@<TRIPOS>MOLECULE
M00
   41    42     1     0     0
SMALL
bcc


@<TRIPOS>ATOM
      1 CAA         1.0020   -1.0310   -0.3980 c3        1 M00     -0.123100
      2 CAI         2.0530   -0.0530    0.0550 c3        1 M00     -0.110400
      3 CAU         1.9940    0.2530    1.5530 c3        1 M00      0.094500
      4 CAJ         3.1250    1.2340    1.9410 c3        1 M00      0.108400
      5 OAD         2.7740    2.5430    1.5460 oh        1 M00     -0.617800
      6 NAN         0.6490    0.8080    1.9470 ny        1 M00     -0.680800
      7 CAP         0.4780    0.8670    3.4530 c         1 M00      0.549100
      8 OAB         0.3480   -0.2110    4.0110 o         1 M00     -0.417100
      9 CAK         0.4790    2.2480    4.0370 c3        1 M00     -0.145400
     10 CAL         0.4550    2.1780    5.5530 c3        1 M00     -0.117700
     11 CAQ         0.4250    3.5580    6.1930 cc        1 M00      0.477900
     12 NAM         0.3880    4.6380    5.4340 nd        1 M00     -0.641100
     13 CAS         0.3580    5.8910    6.0630 ca        1 M00      0.167400
     14 CAG         0.3160    7.0730    5.2860 ca        1 M00     -0.120000
     15 CAE         0.2850    8.3110    5.9130 ca        1 M00     -0.088000
     16 CAF         0.2940    8.4150    7.3090 ca        1 M00     -0.134000
     17 CAH         0.3350    7.2680    8.0920 ca        1 M00     -0.055000
     18 CAT         0.3670    6.0100    7.4790 ca        1 M00     -0.177600
     19 CAR         0.4080    4.7870    8.3000 c         1 M00      0.711100
     20 OAC         0.4210    4.7450    9.5400 o         1 M00     -0.589500
     21 NAO         0.4370    3.5670    7.5900 ns        1 M00     -0.499400
     22 H1         -0.0050   -0.5530   -0.4790 hc        1 M00      0.059367
     23 H2          1.2660   -1.4190   -1.4150 hc        1 M00      0.059367
     24 H3          0.9340   -1.9050    0.2950 hc        1 M00      0.059367
     25 H4          1.9800    0.9020   -0.5310 hc        1 M00      0.083700
     26 H5          3.0720   -0.4880   -0.1420 hc        1 M00      0.083700
     27 H6          2.1300   -0.7070    2.1380 hx        1 M00      0.121700
     28 H7          4.0810    0.8790    1.4790 h1        1 M00      0.085200
     29 H8          3.2410    1.2630    3.0600 h1        1 M00      0.085200
     30 H9          3.3430    2.8080    0.8110 ho        1 M00      0.444000
     31 H10        -0.0780    0.2060    1.5400 hn        1 M00      0.466800
     32 H11         1.3930    2.8080    3.6800 hc        1 M00      0.129700
     33 H12        -0.4260    2.8030    3.6590 hc        1 M00      0.129700
     34 H13        -0.4520    1.6050    5.8900 hc        1 M00      0.086200
     35 H14         1.3650    1.6290    5.9190 hc        1 M00      0.086200
     36 H15         0.3080    7.0090    4.1880 ha        1 M00      0.148000
     37 H16         0.2530    9.2270    5.3020 ha        1 M00      0.148000
     38 H17         0.2690    9.4070    7.7860 ha        1 M00      0.154000
     39 H18         0.3420    7.3280    9.1940 ha        1 M00      0.169000
     40 H19         0.4580    2.7130    8.1000 hn        1 M00      0.339500
     41 HAN2        0.5690    1.7560    1.5540 hn        1 M00      0.466800
@<TRIPOS>BOND
     1    1    2 1   
     2    1   22 1   
     3    1   23 1   
     4    1   24 1   
     5    2    3 1   
     6    2   25 1   
     7    2   26 1   
     8    3    4 1   
     9    3    6 1   
    10    3   27 1   
    11    4    5 1   
    12    4   28 1   
    13    4   29 1   
    14    5   30 1   
    15    6    7 1   
    16    6   31 1   
    17    6   41 1   
    18    7    8 2   
    19    7    9 1   
    20    9   10 1   
    21    9   32 1   
    22    9   33 1   
    23   10   11 1   
    24   10   34 1   
    25   10   35 1   
    26   11   12 2   
    27   11   21 1   
    28   12   13 1   
    29   13   14 ar  
    30   13   18 ar  
    31   14   15 ar  
    32   14   36 1   
    33   15   16 ar  
    34   15   37 1   
    35   16   17 ar  
    36   16   38 1   
    37   17   18 ar  
    38   17   39 1   
    39   18   19 1   
    40   19   20 2   
    41   19   21 1   
    42   21   40 1   
@<TRIPOS>SUBSTRUCTURE
     1 M00         1 TEMP              0 ****  ****    0 ROOT
