@<TRIPOS>MOLECULE
M00
   41    42     1     0     0
SMALL
bcc


@<TRIPOS>ATOM
      1 CAA         0.9820   -1.0080   -0.4180 c3        1 M00     -0.123100
      2 CAI         2.0350   -0.0320    0.0340 c3        1 M00     -0.110400
      3 CAU         1.9840    0.2660    1.5340 c3        1 M00      0.094500
      4 CAJ         3.1160    1.2470    1.9210 c3        1 M00      0.108400
      5 OAD         2.7620    2.5570    1.5340 oh        1 M00     -0.617800
      6 NAN         0.6410    0.8180    1.9380 n4        1 M00     -0.680800
      7 CAP         0.4780    0.8690    3.4460 c         1 M00      0.549100
      8 OAB         0.3530   -0.2120    3.9990 o         1 M00     -0.417100
      9 CAK         0.4810    2.2470    4.0370 c3        1 M00     -0.145400
     10 CAL         0.4660    2.1700    5.5520 c3        1 M00     -0.117700
     11 CAQ         0.4370    3.5460    6.1990 cc        1 M00      0.477900
     12 NAM         0.3930    4.6290    5.4470 nd        1 M00     -0.641100
     13 CAS         0.3640    5.8800    6.0810 ca        1 M00      0.167400
     14 CAG         0.3150    7.0650    5.3110 ca        1 M00     -0.120000
     15 CAE         0.2850    8.3000    5.9440 ca        1 M00     -0.088000
     16 CAF         0.3030    8.3970    7.3400 ca        1 M00     -0.134000
     17 CAH         0.3520    7.2460    8.1170 ca        1 M00     -0.055000
     18 CAT         0.3820    5.9920    7.4980 ca        1 M00     -0.177600
     19 CAR         0.4320    4.7640    8.3130 c         1 M00      0.711100
     20 OAC         0.4530    4.7170    9.5520 o         1 M00     -0.589500
     21 NAO         0.4580    3.5490    7.5960 n         1 M00     -0.499400
     22 H1         -0.0250   -0.5310   -0.4910 hc        1 M00      0.059367
     23 H2          0.9200   -1.8860    0.2700 hc        1 M00      0.059367
     24 H3          1.2410   -1.3900   -1.4390 hc        1 M00      0.059367
     25 H4          1.9590    0.9260   -0.5460 hc        1 M00      0.083700
     26 H5          3.0540   -0.4650   -0.1710 hc        1 M00      0.083700
     27 H6          2.1250   -0.6970    2.1130 hx        1 M00      0.121700
     28 H7          4.0710    0.8950    1.4520 h1        1 M00      0.085200
     29 H8          3.2390    1.2700    3.0400 h1        1 M00      0.085200
     30 H9          3.3270    2.8260    0.7980 ho        1 M00      0.444000
     31 H10        -0.0870    0.2170    1.5320 hn        1 M00      0.466800
     32 H11         1.3910    2.8110    3.6770 hc        1 M00      0.129700
     33 H12        -0.4280    2.8020    3.6670 hc        1 M00      0.129700
     34 H13        -0.4380    1.5930    5.8920 hc        1 M00      0.086200
     35 H14         1.3780    1.6200    5.9100 hc        1 M00      0.086200
     36 H15         0.3000    7.0070    4.2120 ha        1 M00      0.148000
     37 H16         0.2460    9.2200    5.3380 ha        1 M00      0.148000
     38 H17         0.2790    9.3860    7.8220 ha        1 M00      0.154000
     39 H18         0.3660    7.3010    9.2190 ha        1 M00      0.169000
     40 H19         0.4840    2.6920    8.1020 hn        1 M00      0.339500
     41 HAN2        0.5580    1.7670    1.5510 hn        1 M00      0.466800
@<TRIPOS>BOND
     1    1    2 1   
     2    1   22 1   
     3    1   23 1   
     4    1   24 1   
     5    2    3 1   
     6    2   25 1   
     7    2   26 1   
     8    3    4 1   
     9    3    6 1   
    10    3   27 1   
    11    4    5 1   
    12    4   28 1   
    13    4   29 1   
    14    5   30 1   
    15    6    7 1   
    16    6   31 1   
    17    6   41 1   
    18    7    8 2   
    19    7    9 1   
    20    9   10 1   
    21    9   32 1   
    22    9   33 1   
    23   10   11 1   
    24   10   34 1   
    25   10   35 1   
    26   11   12 2   
    27   11   21 1   
    28   12   13 1   
    29   13   14 ar  
    30   13   18 ar  
    31   14   15 ar  
    32   14   36 1   
    33   15   16 ar  
    34   15   37 1   
    35   16   17 ar  
    36   16   38 1   
    37   17   18 ar  
    38   17   39 1   
    39   18   19 1   
    40   19   20 2   
    41   19   21 1   
    42   21   40 1   
@<TRIPOS>SUBSTRUCTURE
     1 M00         1 TEMP              0 ****  ****    0 ROOT
