@<TRIPOS>MOLECULE
M00
   41    42     1     0     0
SMALL
bcc


@<TRIPOS>ATOM
      1 CAA         0.9650   -1.0700   -0.3620 c3        1 M00     -0.123100
      2 CAI         2.0100   -0.0700    0.0570 c3        1 M00     -0.110400
      3 CAU         1.9820    0.2480    1.5530 c3        1 M00      0.094500
      4 CAJ         3.1050    1.2520    1.9050 c3        1 M00      0.108400
      5 OAD         2.7220    2.5510    1.5070 oh        1 M00     -0.617800
      6 NAN         0.6380    0.7830    1.9750 n4        1 M00     -0.680800
      7 CAP         0.5030    0.8530    3.4850 c         1 M00      0.549100
      8 OAB         0.4060   -0.2220    4.0550 o         1 M00     -0.417100
      9 CAK         0.4940    2.2390    4.0570 c3        1 M00     -0.145400
     10 CAL         0.5070    2.1830    5.5720 c3        1 M00     -0.117700
     11 CAQ         0.4670    3.5680    6.2010 cc        1 M00      0.477900
     12 NAM         0.3960    4.6400    5.4340 nd        1 M00     -0.641100
     13 CAS         0.3580    5.8990    6.0520 ca        1 M00      0.167400
     14 CAG         0.2800    7.0720    5.2660 ca        1 M00     -0.120000
     15 CAE         0.2420    8.3150    5.8830 ca        1 M00     -0.088000
     16 CAF         0.2800    8.4320    7.2770 ca        1 M00     -0.134000
     17 CAH         0.3560    7.2930    8.0690 ca        1 M00     -0.055000
     18 CAT         0.3960    6.0300    7.4670 ca        1 M00     -0.177600
     19 CAR         0.4760    4.8160    8.2970 c         1 M00      0.711100
     20 OAC         0.5170    4.7860    9.5370 o         1 M00     -0.589500
     21 NAO         0.5100    3.5900    7.5970 n         1 M00     -0.499400
     22 H1          1.2110   -1.4630   -1.3810 hc        1 M00      0.059367
     23 H2          0.9300   -1.9390    0.3400 hc        1 M00      0.059367
     24 H3         -0.0520   -0.6110   -0.4210 hc        1 M00      0.059367
     25 H4          1.9070    0.8780   -0.5350 hc        1 M00      0.083700
     26 H5          3.0310   -0.4900   -0.1620 hc        1 M00      0.083700
     27 H6          2.1500   -0.7040    2.1430 hx        1 M00      0.121700
     28 H7          3.2480    1.2940    3.0210 h1        1 M00      0.085200
     29 H8          4.0560    0.9090    1.4220 h1        1 M00      0.085200
     30 H9          3.2670    2.8190    0.7550 ho        1 M00      0.444000
     31 H10        -0.0880    0.1650    1.5910 hn        1 M00      0.466800
     32 H11        -0.4300    2.7750    3.6960 hc        1 M00      0.129700
     33 H12         1.3880    2.8120    3.6720 hc        1 M00      0.129700
     34 H13         1.4350    1.6540    5.9220 hc        1 M00      0.086200
     35 H14        -0.3810    1.5970    5.9370 hc        1 M00      0.086200
     36 H15         0.2490    6.9980    4.1690 ha        1 M00      0.148000
     37 H16         0.1800    9.2260    5.2640 ha        1 M00      0.148000
     38 H17         0.2480    9.4280    7.7460 ha        1 M00      0.154000
     39 H18         0.3870    7.3640    9.1700 ha        1 M00      0.169000
     40 H19         0.5560    2.7410    8.1140 hn        1 M00      0.339500
     41 HAN2        0.5320    1.7260    1.5770 hn        1 M00      0.466800
@<TRIPOS>BOND
     1    1    2 1   
     2    1   22 1   
     3    1   23 1   
     4    1   24 1   
     5    2    3 1   
     6    2   25 1   
     7    2   26 1   
     8    3    4 1   
     9    3    6 1   
    10    3   27 1   
    11    4    5 1   
    12    4   28 1   
    13    4   29 1   
    14    5   30 1   
    15    6    7 1   
    16    6   31 1   
    17    6   41 1   
    18    7    8 2   
    19    7    9 1   
    20    9   10 1   
    21    9   32 1   
    22    9   33 1   
    23   10   11 1   
    24   10   34 1   
    25   10   35 1   
    26   11   12 2   
    27   11   21 1   
    28   12   13 1   
    29   13   14 ar  
    30   13   18 ar  
    31   14   15 ar  
    32   14   36 1   
    33   15   16 ar  
    34   15   37 1   
    35   16   17 ar  
    36   16   38 1   
    37   17   18 ar  
    38   17   39 1   
    39   18   19 1   
    40   19   20 2   
    41   19   21 1   
    42   21   40 1   
@<TRIPOS>SUBSTRUCTURE
     1 M00         1 TEMP              0 ****  ****    0 ROOT
