@<TRIPOS>MOLECULE
M01
   33    35     1     0     0
SMALL
bcc


@<TRIPOS>ATOM
      1 N1          5.4440    9.3350    4.6960 nb        1 M01     -0.772000
      2 C2          4.1320    9.0110    4.8630 ca        1 M01      0.669900
      3 N3          3.1080    9.0750    3.9840 nb        1 M01     -0.711000
      4 C4          3.4990    9.5490    2.7640 ca        1 M01      0.432800
      5 C5          4.8750    9.9370    2.4380 ca        1 M01     -0.178200
      6 C7          5.8500    9.8180    3.4840 ca        1 M01      0.717200
      7 C9         10.3450    7.4580    4.2180 c3        1 M01      0.153800
      8 N7          4.9250   10.3960    1.1130 nc        1 M01     -0.533100
      9 C8          3.6690   10.2970    0.6530 cd        1 M01      0.405700
     10 N9          2.7570    9.7900    1.6020 na        1 M01     -0.380000
     11 C10         9.6280    8.7340    3.7480 c3        1 M01     -0.108700
     12 C15         8.8190    9.3120    4.8980 c3        1 M01     -0.105900
     13 C14         8.0080   10.5210    4.4360 c3        1 M01      0.183800
     14 C12         7.9050    9.6850    2.1720 c3        1 M01      0.183800
     15 N10        11.2740    6.8560    3.2990 n3        1 M01     -0.904800
     16 C11         8.7260    8.4520    2.5580 c3        1 M01     -0.105900
     17 N6          7.1650   10.2960    3.2690 nh        1 M01     -0.713300
     18 H2          3.8710    8.6290    5.8740 h5        1 M01      0.054100
     19 H9          1.7910    9.6360    1.4870 hn        1 M01      0.319700
     20 H9C1       10.9100    7.7050    5.1620 h1        1 M01      0.053700
     21 H9C2        9.5660    6.6860    4.4780 h1        1 M01      0.053700
     22 H10        10.3980    9.4950    3.4380 hc        1 M01      0.045700
     23 H101       10.8100    6.5600    2.4630 hn        1 M01      0.344800
     24 H102       12.0020    7.4970    3.0520 hn        1 M01      0.344800
     25 H8          3.3420   10.5750   -0.3570 h5        1 M01      0.074800
     26 H111        9.3410    8.1560    1.6690 hc        1 M01      0.052700
     27 H112        8.0420    7.5970    2.7990 hc        1 M01      0.052700
     28 H151        8.1340    8.5280    5.3150 hc        1 M01      0.052700
     29 H152        9.5070    9.6360    5.7210 hc        1 M01      0.052700
     30 H121        8.6030   10.4850    1.7900 h1        1 M01      0.066200
     31 H122        7.2090    9.4040    1.3360 h1        1 M01      0.066200
     32 H141        7.3890   10.9060    5.2920 h1        1 M01      0.066200
     33 H142        8.7230   11.3410    4.1330 h1        1 M01      0.066200
@<TRIPOS>BOND
     1    1    2 ar  
     2    1    6 ar  
     3    2    3 ar  
     4    2   18 1   
     5    3    4 ar  
     6    4    5 ar  
     7    4   10 1   
     8    5    6 ar  
     9    5    8 1   
    10    6   17 1   
    11    7   11 1   
    12    7   15 1   
    13    7   20 1   
    14    7   21 1   
    15    8    9 2   
    16    9   10 1   
    17    9   25 1   
    18   10   19 1   
    19   11   12 1   
    20   11   16 1   
    21   11   22 1   
    22   12   13 1   
    23   12   28 1   
    24   12   29 1   
    25   13   17 1   
    26   13   32 1   
    27   13   33 1   
    28   14   16 1   
    29   14   17 1   
    30   14   30 1   
    31   14   31 1   
    32   15   23 1   
    33   15   24 1   
    34   16   26 1   
    35   16   27 1   
@<TRIPOS>SUBSTRUCTURE
     1 M01         1 TEMP              0 ****  ****    0 ROOT
