@<TRIPOS>MOLECULE
M01
   34    36     1     0     0
SMALL
bcc


@<TRIPOS>ATOM
      1 N1         -0.3360   -0.6460    0.2810 nb        1 M01     -0.775000
      2 C2          1.0060   -0.8640    0.1610 ca        1 M01      0.663900
      3 N3          1.9980   -0.6080    1.0420 nb        1 M01     -0.679000
      4 C4          1.5440   -0.0520    2.2030 ca        1 M01      0.432800
      5 C5          0.1280    0.2340    2.4710 ca        1 M01     -0.163200
      6 C7         -0.7970   -0.0700    1.4260 ca        1 M01      0.683200
      7 C9         -4.9350   -2.8230    0.4390 c3        1 M01      0.097800
      8 N7          0.0000    0.8020    3.7470 nc        1 M01     -0.543100
      9 C8          1.2520    0.8690    4.2300 cd        1 M01      0.430700
     10 N9          2.2300    0.3660    3.3470 na        1 M01     -0.371000
     11 C10        -4.4120   -1.4910    0.9830 c3        1 M01     -0.088700
     12 C15        -3.6210   -0.8180   -0.1350 c3        1 M01     -0.120400
     13 C14        -2.9590    0.4630    0.3780 c3        1 M01      0.187300
     14 C12        -2.8840   -0.3720    2.6390 c3        1 M01      0.187300
     15 N10        -5.8400   -3.5280    1.3940 nz        1 M01     -0.838600
     16 C11        -3.5460   -1.6920    2.2160 c3        1 M01     -0.120400
     17 N6         -2.1630    0.3120    1.5830 nh        1 M01     -0.706300
     18 H2          1.3260   -1.3180   -0.8030 h5        1 M01      0.063100
     19 H9          3.2070    0.3380    3.4840 hn        1 M01      0.331700
     20 H9C1       -4.0680   -3.5120    0.2160 hx        1 M01      0.113700
     21 H9C2       -5.5140   -2.6440   -0.5130 hx        1 M01      0.113700
     22 H10        -5.2800   -0.8250    1.2510 hc        1 M01      0.070700
     23 H101       -6.1670   -4.4100    0.9880 hn        1 M01      0.460800
     24 H102       -5.3360   -3.7260    2.2670 hn        1 M01      0.460800
     25 H8          1.5270    1.2730    5.2140 h5        1 M01      0.086800
     26 H111       -4.1620   -2.0520    3.0810 hc        1 M01      0.058200
     27 H112       -2.7550   -2.4580    2.0070 hc        1 M01      0.058200
     28 H151       -4.3070   -0.5530   -0.9800 hc        1 M01      0.058200
     29 H152       -2.8390   -1.5180   -0.5280 hc        1 M01      0.058200
     30 H121       -3.6870    0.3400    2.9900 h1        1 M01      0.082200
     31 H122       -2.1990   -0.5780    3.5080 h1        1 M01      0.082200
     32 H141       -2.3300    0.9020   -0.4460 h1        1 M01      0.082200
     33 H142       -3.7660    1.2110    0.6330 h1        1 M01      0.082200
     34 H103       -6.6490   -2.9380    1.6130 hn        1 M01      0.460800
@<TRIPOS>BOND
     1    1    2 ar  
     2    1    6 ar  
     3    2    3 ar  
     4    2   18 1   
     5    3    4 ar  
     6    4    5 ar  
     7    4   10 1   
     8    5    6 ar  
     9    5    8 1   
    10    6   17 1   
    11    7   11 1   
    12    7   15 1   
    13    7   20 1   
    14    7   21 1   
    15    8    9 2   
    16    9   10 1   
    17    9   25 1   
    18   10   19 1   
    19   11   12 1   
    20   11   16 1   
    21   11   22 1   
    22   12   13 1   
    23   12   28 1   
    24   12   29 1   
    25   13   17 1   
    26   13   32 1   
    27   13   33 1   
    28   14   16 1   
    29   14   17 1   
    30   14   30 1   
    31   14   31 1   
    32   15   23 1   
    33   15   24 1   
    34   15   34 1   
    35   16   26 1   
    36   16   27 1   
@<TRIPOS>SUBSTRUCTURE
     1 M01         1 TEMP              0 ****  ****    0 ROOT
