@<TRIPOS>MOLECULE
M01
   34    36     1     0     0
SMALL
bcc


@<TRIPOS>ATOM
      1 N1         -0.3520   -0.6500    0.2560 nb        1 M01     -0.775000
      2 C2          0.9880   -0.8720    0.1180 ca        1 M01      0.663900
      3 N3          1.9920   -0.6200    0.9860 nb        1 M01     -0.679000
      4 C4          1.5550   -0.0650    2.1540 ca        1 M01      0.432800
      5 C5          0.1440    0.2250    2.4410 ca        1 M01     -0.163200
      6 C7         -0.7970   -0.0740    1.4080 ca        1 M01      0.683200
      7 C9         -4.9550   -2.8130    0.4710 c3        1 M01      0.097800
      8 N7          0.0350    0.7910    3.7200 nc        1 M01     -0.543100
      9 C8          1.2930    0.8530    4.1860 cd        1 M01      0.430700
     10 N9          2.2580    0.3490    3.2890 na        1 M01     -0.371000
     11 C10        -4.4210   -1.4840    1.0110 c3        1 M01     -0.088700
     12 C15        -3.6430   -0.8100   -0.1160 c3        1 M01     -0.120400
     13 C14        -2.9710    0.4680    0.3910 c3        1 M01      0.187300
     14 C12        -2.8680   -0.3720    2.6490 c3        1 M01      0.187300
     15 N10        -5.8490   -3.5180    1.4380 n4        1 M01     -0.838600
     16 C11        -3.5390   -1.6890    2.2320 c3        1 M01     -0.120400
     17 N6         -2.1590    0.3120    1.5840 nh        1 M01     -0.706300
     18 H2          1.2930   -1.3250   -0.8510 h5        1 M01      0.063100
     19 H9          3.2370    0.3180    3.4130 hn        1 M01      0.331700
     20 H9C1       -4.0940   -3.5040    0.2350 hx        1 M01      0.113700
     21 H9C2       -5.5470   -2.6300   -0.4720 hx        1 M01      0.113700
     22 H10        -5.2840   -0.8150    1.2920 hc        1 M01      0.070700
     23 H101       -6.6530   -2.9250    1.6690 hn        1 M01      0.460800
     24 H102       -5.3330   -3.7180    2.3020 hn        1 M01      0.460800
     25 H8          1.5830    1.2550    5.1670 h5        1 M01      0.086800
     26 H111       -4.1450   -2.0490    3.1040 hc        1 M01      0.058200
     27 H112       -2.7530   -2.4570    2.0110 hc        1 M01      0.058200
     28 H151       -4.3400   -0.5410   -0.9510 hc        1 M01      0.058200
     29 H152       -2.8680   -1.5120   -0.5210 hc        1 M01      0.058200
     30 H121       -2.1720   -0.5820    3.5080 h1        1 M01      0.082200
     31 H122       -3.6630    0.3410    3.0110 h1        1 M01      0.082200
     32 H141       -3.7710    1.2180    0.6580 h1        1 M01      0.082200
     33 H142       -2.3510    0.9060   -0.4410 h1        1 M01      0.082200
     34 H103       -6.1840   -4.3970    1.0330 hn        1 M01      0.460800
@<TRIPOS>BOND
     1    1    2 ar  
     2    1    6 ar  
     3    2    3 ar  
     4    2   18 1   
     5    3    4 ar  
     6    4    5 ar  
     7    4   10 1   
     8    5    6 ar  
     9    5    8 1   
    10    6   17 1   
    11    7   11 1   
    12    7   15 1   
    13    7   20 1   
    14    7   21 1   
    15    8    9 2   
    16    9   10 1   
    17    9   25 1   
    18   10   19 1   
    19   11   12 1   
    20   11   16 1   
    21   11   22 1   
    22   12   13 1   
    23   12   28 1   
    24   12   29 1   
    25   13   17 1   
    26   13   32 1   
    27   13   33 1   
    28   14   16 1   
    29   14   17 1   
    30   14   30 1   
    31   14   31 1   
    32   15   23 1   
    33   15   24 1   
    34   15   34 1   
    35   16   26 1   
    36   16   27 1   
@<TRIPOS>SUBSTRUCTURE
     1 M01         1 TEMP              0 ****  ****    0 ROOT
