@<TRIPOS>MOLECULE
M01
   34    36     1     0     0
SMALL
bcc


@<TRIPOS>ATOM
      1 N1         -0.3150   -0.7220    0.2980 nb        1 M01     -0.776000
      2 C2          1.0280   -0.9560    0.2100 ca        1 M01      0.663900
      3 N3          2.0080   -0.6680    1.0930 nb        1 M01     -0.679000
      4 C4          1.5410   -0.0540    2.2190 ca        1 M01      0.432800
      5 C5          0.1240    0.2560    2.4510 ca        1 M01     -0.163200
      6 C7         -0.7880   -0.0890    1.4070 ca        1 M01      0.683200
      7 C9         -4.9350   -2.8500    0.4860 c3        1 M01      0.097800
      8 N7         -0.0180    0.8840    3.6970 nc        1 M01     -0.543100
      9 C8          1.2260    0.9640    4.1960 cd        1 M01      0.430700
     10 N9          2.2130    0.4120    3.3540 na        1 M01     -0.371000
     11 C10        -4.4080   -1.4990    0.9750 c3        1 M01     -0.088700
     12 C15        -3.5940   -0.8850   -0.1600 c3        1 M01     -0.120400
     13 C14        -2.9290    0.4130    0.3020 c3        1 M01      0.187300
     14 C12        -2.8960   -0.3150    2.6010 c3        1 M01      0.187300
     15 N10        -5.8600   -3.5020    1.4590 n4        1 M01     -0.838600
     16 C11        -3.5630   -1.6480    2.2300 c3        1 M01     -0.120400
     17 N6         -2.1520    0.3120    1.5250 nh        1 M01     -0.706300
     18 H2          1.3570   -1.4580   -0.7270 h5        1 M01      0.063100
     19 H9          3.1880    0.3810    3.5070 hn        1 M01      0.331700
     20 H9C1       -5.4980   -2.7120   -0.4820 hx        1 M01      0.113700
     21 H9C2       -4.0710   -3.5560    0.3090 hx        1 M01      0.113700
     22 H10        -5.2740   -0.8130    1.1980 hc        1 M01      0.070700
     23 H101       -5.3710   -3.6630    2.3470 hn        1 M01      0.460800
     24 H102       -6.1890   -4.3990    1.0890 hn        1 M01      0.460800
     25 H8          1.4910    1.4110    5.1650 h5        1 M01      0.086800
     26 H111       -4.1960   -1.9620    3.1000 hc        1 M01      0.058200
     27 H112       -2.7760   -2.4290    2.0690 hc        1 M01      0.058200
     28 H151       -2.8120   -1.6100   -0.5090 hc        1 M01      0.058200
     29 H152       -4.2650   -0.6540   -1.0280 hc        1 M01      0.058200
     30 H121       -2.2260   -0.4860    3.4890 h1        1 M01      0.082200
     31 H122       -3.6970    0.4190    2.9040 h1        1 M01      0.082200
     32 H141       -3.7320    1.1790    0.5090 h1        1 M01      0.082200
     33 H142       -2.2830    0.8070   -0.5320 h1        1 M01      0.082200
     34 H103       -6.6670   -2.8960    1.6370 hn        1 M01      0.460800
@<TRIPOS>BOND
     1    1    2 ar  
     2    1    6 ar  
     3    2    3 ar  
     4    2   18 1   
     5    3    4 ar  
     6    4    5 ar  
     7    4   10 1   
     8    5    6 ar  
     9    5    8 1   
    10    6   17 1   
    11    7   11 1   
    12    7   15 1   
    13    7   20 1   
    14    7   21 1   
    15    8    9 2   
    16    9   10 1   
    17    9   25 1   
    18   10   19 1   
    19   11   12 1   
    20   11   16 1   
    21   11   22 1   
    22   12   13 1   
    23   12   28 1   
    24   12   29 1   
    25   13   17 1   
    26   13   32 1   
    27   13   33 1   
    28   14   16 1   
    29   14   17 1   
    30   14   30 1   
    31   14   31 1   
    32   15   23 1   
    33   15   24 1   
    34   15   34 1   
    35   16   26 1   
    36   16   27 1   
@<TRIPOS>SUBSTRUCTURE
     1 M01         1 TEMP              0 ****  ****    0 ROOT
