@<TRIPOS>MOLECULE
M02
   31    33     1     0     0
SMALL
bcc


@<TRIPOS>ATOM
      1 CAK        -0.0780   -0.2240    0.0250 c3        1 M02     -0.145400
      2 CAM         1.4260    0.0500    0.0360 c3        1 M02      0.125500
      3 CAP        -0.3930   -1.3430    1.0290 c3        1 M02      0.189300
      4 CAO         1.9180    0.3560    1.4510 c3        1 M02     -0.145400
      5 C7          1.5230   -0.8000    2.3870 c3        1 M02      0.189300
      6 N6          0.1130   -1.1340    2.3700 nh        1 M02     -0.706300
      7 C6         -0.7020   -0.3790    3.2710 ca        1 M02      0.672200
      8 C5         -0.5420   -0.5810    4.6730 ca        1 M02     -0.156200
      9 N7          0.3350   -1.3500    5.4500 nc        1 M02     -0.543100
     10 C4         -1.4910    0.1190    5.5520 ca        1 M02      0.434800
     11 N9         -1.1470   -0.2700    6.8500 na        1 M02     -0.369000
     12 C8         -0.0510   -1.1470    6.7210 cd        1 M02      0.439700
     13 N10         1.7690    1.1800   -0.9070 n4        1 M02     -0.845600
     14 N3         -2.4720    0.9500    5.0950 nb        1 M02     -0.669000
     15 C2         -2.4820    1.0630    3.7490 ca        1 M02      0.663900
     16 N1         -1.6670    0.4730    2.8250 nb        1 M02     -0.780000
     17 HAM         1.9740   -0.8600   -0.3580 hx        1 M02      0.109700
     18 HAO1        3.0340    0.4580    1.4710 hc        1 M02      0.077700
     19 HAO2        1.4660    1.3110    1.8270 hc        1 M02      0.077700
     20 HAK1       -0.6550    0.6980    0.3000 hc        1 M02      0.077700
     21 HAK2       -0.4110   -0.5600   -0.9910 hc        1 M02      0.077700
     22 H101        1.2940    2.0370   -0.6040 hn        1 M02      0.457133
     23 H102        2.7790    1.3410   -0.9050 hn        1 M02      0.457133
     24 H7C1        1.8490   -0.5340    3.4320 h1        1 M02      0.091700
     25 H7C2        2.0820   -1.7290    2.0750 h1        1 M02      0.091700
     26 HAP1        0.0760   -2.3010    0.6600 h1        1 M02      0.091700
     27 HAP2       -1.5090   -1.4910    1.0560 h1        1 M02      0.091700
     28 H2         -3.2650    1.7330    3.3300 h5        1 M02      0.066100
     29 H9         -1.6040    0.0060    7.6820 hn        1 M02      0.334700
     30 H8          0.4170   -1.6070    7.6030 h5        1 M02      0.089800
     31 H103        1.4590    0.9470   -1.8540 hn        1 M02      0.457133
@<TRIPOS>BOND
     1    1    2 1   
     2    1    3 1   
     3    1   20 1   
     4    1   21 1   
     5    2    4 1   
     6    2   13 1   
     7    2   17 1   
     8    3    6 1   
     9    3   26 1   
    10    3   27 1   
    11    4    5 1   
    12    4   18 1   
    13    4   19 1   
    14    5    6 1   
    15    5   24 1   
    16    5   25 1   
    17    6    7 1   
    18    7    8 ar  
    19    7   16 ar  
    20    8    9 1   
    21    8   10 ar  
    22    9   12 2   
    23   10   11 1   
    24   10   14 ar  
    25   11   12 1   
    26   11   29 1   
    27   12   30 1   
    28   13   22 1   
    29   13   23 1   
    30   13   31 1   
    31   14   15 ar  
    32   15   16 ar  
    33   15   28 1   
@<TRIPOS>SUBSTRUCTURE
     1 M02         1 TEMP              0 ****  ****    0 ROOT
