@<TRIPOS>MOLECULE
M02
   30    32     1     0     0
SMALL
bcc


@<TRIPOS>ATOM
      1 CAK         8.8800    9.1590    5.1900 c3        1 M02     -0.108900
      2 CAM         9.7170    8.3970    4.1510 c3        1 M02      0.172500
      3 CAP         8.2330   10.3800    4.5400 c3        1 M02      0.183800
      4 CAO         8.8190    8.0400    2.9570 c3        1 M02     -0.108900
      5 C7          8.1620    9.2960    2.3820 c3        1 M02      0.183800
      6 N6          7.4360   10.1070    3.3520 nh        1 M02     -0.714300
      7 C6          6.0650    9.8060    3.5270 ca        1 M02      0.718200
      8 C5          5.1710    9.8940    2.4070 ca        1 M02     -0.179200
      9 N7          5.3490   10.1750    1.0440 nc        1 M02     -0.533100
     10 C4          3.7440    9.7000    2.6780 ca        1 M02      0.432800
     11 N9          3.1020    9.8690    1.4460 na        1 M02     -0.380000
     12 C8          4.1190   10.1510    0.5100 cd        1 M02      0.404700
     13 N10        10.3420    7.2150    4.7220 n3        1 M02     -0.912800
     14 N3          3.2310    9.4300    3.9150 nb        1 M02     -0.713000
     15 C2          4.1890    9.3700    4.8670 ca        1 M02      0.670900
     16 N1          5.5360    9.5300    4.7560 nb        1 M02     -0.770000
     17 HAM        10.5030    9.1230    3.7650 h1        1 M02      0.004700
     18 HAO1        9.4270    7.5620    2.1460 hc        1 M02      0.059200
     19 HAO2        8.0360    7.3060    3.2770 hc        1 M02      0.059200
     20 HAK1        8.0930    8.4860    5.6200 hc        1 M02      0.059200
     21 HAK2        9.5320    9.5080    6.0310 hc        1 M02      0.059200
     22 H101       10.9220    6.7680    4.0410 hn        1 M02      0.350300
     23 H102       10.8910    7.4650    5.5190 hn        1 M02      0.350300
     24 H7C1        8.9610    9.9690    1.9570 h1        1 M02      0.065700
     25 H7C2        7.4850    8.9880    1.5400 h1        1 M02      0.065700
     26 HAP1        7.6140   10.9240    5.3050 h1        1 M02      0.065700
     27 HAP2        9.0470   11.0840    4.1970 h1        1 M02      0.065700
     28 H2          3.8280    9.1490    5.8950 h5        1 M02      0.054100
     29 H9          2.1330    9.8020    1.2810 hn        1 M02      0.319700
     30 H8          3.8850   10.3310   -0.5460 h5        1 M02      0.073800
@<TRIPOS>BOND
     1    1    2 1   
     2    1    3 1   
     3    1   20 1   
     4    1   21 1   
     5    2    4 1   
     6    2   13 1   
     7    2   17 1   
     8    3    6 1   
     9    3   26 1   
    10    3   27 1   
    11    4    5 1   
    12    4   18 1   
    13    4   19 1   
    14    5    6 1   
    15    5   24 1   
    16    5   25 1   
    17    6    7 1   
    18    7    8 ar  
    19    7   16 ar  
    20    8    9 1   
    21    8   10 ar  
    22    9   12 2   
    23   10   11 1   
    24   10   14 ar  
    25   11   12 1   
    26   11   29 1   
    27   12   30 1   
    28   13   22 1   
    29   13   23 1   
    30   14   15 ar  
    31   15   16 ar  
    32   15   28 1   
@<TRIPOS>SUBSTRUCTURE
     1 M02         1 TEMP              0 ****  ****    0 ROOT
