@<TRIPOS>MOLECULE
M02
   31    33     1     0     0
SMALL
bcc


@<TRIPOS>ATOM
      1 CAK        -0.0870   -0.2430    0.0270 c3        1 M02     -0.145400
      2 CAM         1.4140    0.0520    0.0310 c3        1 M02      0.125500
      3 CAP        -0.3830   -1.3600    1.0380 c3        1 M02      0.189300
      4 CAO         1.9070    0.3710    1.4430 c3        1 M02     -0.145400
      5 C7          1.5310   -0.7850    2.3860 c3        1 M02      0.189300
      6 N6          0.1260   -1.1380    2.3760 nh        1 M02     -0.706300
      7 C6         -0.6970   -0.3900    3.2750 ca        1 M02      0.672200
      8 C5         -0.5290   -0.5820    4.6780 ca        1 M02     -0.156200
      9 N7          0.3610   -1.3360    5.4560 nc        1 M02     -0.543100
     10 C4         -1.4850    0.1090    5.5570 ca        1 M02      0.434800
     11 N9         -1.1310   -0.2680    6.8560 na        1 M02     -0.369000
     12 C8         -0.0230   -1.1310    6.7270 cd        1 M02      0.439700
     13 N10         1.7380    1.1820   -0.9190 nz        1 M02     -0.845600
     14 N3         -2.4780    0.9240    5.1000 nb        1 M02     -0.669000
     15 C2         -2.4940    1.0300    3.7530 ca        1 M02      0.663900
     16 N1         -1.6750    0.4470    2.8290 nb        1 M02     -0.780000
     17 HAM         1.9730   -0.8520   -0.3610 hx        1 M02      0.109700
     18 HAO1        1.4430    1.3220    1.8160 hc        1 M02      0.077700
     19 HAO2        3.0210    0.4890    1.4580 hc        1 M02      0.077700
     20 HAK1       -0.4180   -0.5880   -0.9870 hc        1 M02      0.077700
     21 HAK2       -0.6750    0.6730    0.2990 hc        1 M02      0.077700
     22 H101        1.4280    0.9400   -1.8630 hn        1 M02      0.457133
     23 H102        1.2530    2.0340   -0.6190 hn        1 M02      0.457133
     24 H7C1        2.1010   -1.7080    2.0760 h1        1 M02      0.091700
     25 H7C2        1.8560   -0.5090    3.4280 h1        1 M02      0.091700
     26 HAP1       -1.4970   -1.5240    1.0690 h1        1 M02      0.091700
     27 HAP2        0.0980   -2.3140    0.6720 h1        1 M02      0.091700
     28 H2         -3.2880    1.6870    3.3330 h5        1 M02      0.066100
     29 H9         -1.5880    0.0060    7.6880 hn        1 M02      0.334700
     30 H8          0.4550   -1.5800    7.6100 h5        1 M02      0.089800
     31 H103        2.7460    1.3570   -0.9220 hn        1 M02      0.457133
@<TRIPOS>BOND
     1    1    2 1   
     2    1    3 1   
     3    1   20 1   
     4    1   21 1   
     5    2    4 1   
     6    2   13 1   
     7    2   17 1   
     8    3    6 1   
     9    3   26 1   
    10    3   27 1   
    11    4    5 1   
    12    4   18 1   
    13    4   19 1   
    14    5    6 1   
    15    5   24 1   
    16    5   25 1   
    17    6    7 1   
    18    7    8 ar  
    19    7   16 ar  
    20    8    9 1   
    21    8   10 ar  
    22    9   12 2   
    23   10   11 1   
    24   10   14 ar  
    25   11   12 1   
    26   11   29 1   
    27   12   30 1   
    28   13   22 1   
    29   13   23 1   
    30   13   31 1   
    31   14   15 ar  
    32   15   16 ar  
    33   15   28 1   
@<TRIPOS>SUBSTRUCTURE
     1 M02         1 TEMP              0 ****  ****    0 ROOT
