@<TRIPOS>MOLECULE
M02
   31    33     1     0     0
SMALL
bcc


@<TRIPOS>ATOM
      1 CAK        -0.0880   -0.2300    0.0260 c3        1 M02     -0.145400
      2 CAM         1.4150    0.0530    0.0310 c3        1 M02      0.125500
      3 CAP        -0.3930   -1.3490    1.0320 c3        1 M02      0.189300
      4 CAO         1.9100    0.3620    1.4440 c3        1 M02     -0.145400
      5 C7          1.5260   -0.7950    2.3820 c3        1 M02      0.189300
      6 N6          0.1170   -1.1370    2.3710 nh        1 M02     -0.706300
      7 C6         -0.6990   -0.3870    3.2740 ca        1 M02      0.672200
      8 C5         -0.5320   -0.5870    4.6760 ca        1 M02     -0.156200
      9 N7          0.3520   -1.3520    5.4500 nc        1 M02     -0.543100
     10 C4         -1.4820    0.1080    5.5590 ca        1 M02      0.434800
     11 N9         -1.1310   -0.2790    6.8560 na        1 M02     -0.369000
     12 C8         -0.0310   -1.1510    6.7230 cd        1 M02      0.439700
     13 N10         1.7470    1.1840   -0.9130 n4        1 M02     -0.845600
     14 N3         -2.4690    0.9330    5.1050 nb        1 M02     -0.669000
     15 C2         -2.4840    1.0460    3.7600 ca        1 M02      0.663900
     16 N1         -1.6700    0.4600    2.8330 nb        1 M02     -0.780000
     17 HAM         1.9660   -0.8540   -0.3640 hx        1 M02      0.109700
     18 HAO1        3.0260    0.4710    1.4600 hc        1 M02      0.077700
     19 HAO2        1.4550    1.3150    1.8220 hc        1 M02      0.077700
     20 HAK1       -0.6690    0.6900    0.3030 hc        1 M02      0.077700
     21 HAK2       -0.4230   -0.5670   -0.9890 hc        1 M02      0.077700
     22 H101        1.4350    0.9480   -1.8590 hn        1 M02      0.457133
     23 H102        1.2690    2.0380   -0.6100 hn        1 M02      0.457133
     24 H7C1        2.0880   -1.7220    2.0680 h1        1 M02      0.091450
     25 H7C2        1.8530   -0.5270    3.4260 h1        1 M02      0.091450
     26 HAP1        0.0800   -2.3050    0.6620 h1        1 M02      0.091450
     27 HAP2       -1.5080   -1.5040    1.0640 h1        1 M02      0.091450
     28 H2         -3.2720    1.7120    3.3430 h5        1 M02      0.066100
     29 H9         -1.5860   -0.0050    7.6890 hn        1 M02      0.334700
     30 H8          0.4440   -1.6070    7.6030 h5        1 M02      0.089800
     31 H103        2.7570    1.3510   -0.9160 hn        1 M02      0.457133
@<TRIPOS>BOND
     1    1    2 1   
     2    1    3 1   
     3    1   20 1   
     4    1   21 1   
     5    2    4 1   
     6    2   13 1   
     7    2   17 1   
     8    3    6 1   
     9    3   26 1   
    10    3   27 1   
    11    4    5 1   
    12    4   18 1   
    13    4   19 1   
    14    5    6 1   
    15    5   24 1   
    16    5   25 1   
    17    6    7 1   
    18    7    8 ar  
    19    7   16 ar  
    20    8    9 1   
    21    8   10 ar  
    22    9   12 2   
    23   10   11 1   
    24   10   14 ar  
    25   11   12 1   
    26   11   29 1   
    27   12   30 1   
    28   13   22 1   
    29   13   23 1   
    30   13   31 1   
    31   14   15 ar  
    32   15   16 ar  
    33   15   28 1   
@<TRIPOS>SUBSTRUCTURE
     1 M02         1 TEMP              0 ****  ****    0 ROOT
