@<TRIPOS>MOLECULE
M03
   44    39     1     0     0
SMALL
bcc


@<TRIPOS>ATOM
      1 N1         -0.7290   -0.9070   -0.4740 n3        1 M03     -0.221000
      2 C2          0.7430   -0.8880   -0.5690 c3        1 M03     -0.055000
      3 C3          1.4180   -0.8490    0.8050 c3        1 M03     -0.152500
      4 C4          0.8870    0.2460    1.6670 c3        1 M03     -0.009000
      5 C5          1.4880    0.0960    3.1070 c3        1 M03     -0.072000
      6 N6          1.1470   -1.2030    3.6390 n3        1 M03     -0.352000
      7 C7         -0.5960    0.2210    1.7570 c3        1 M03     -0.152500
      8 C8         -1.2630    0.1770    0.3800 c3        1 M03     -0.055000
      9 C9          1.3330    1.6130    1.0750 c2        1 M03     -0.063000
     10 C10         2.5630    1.7240    0.4490 c1        1 M03     -0.123000
     11 C11         3.0350    2.9680    0.0640 c1        1 M03     -0.124000
     12 C12         2.2760    4.1020    0.3050 c1        1 M03     -0.063000
     13 CL1         2.8640    5.6680   -0.1920 cl        1 M03     -0.016000
     14 C14         1.0460    3.9920    0.9300 c2        1 M03     -0.123000
     15 C15         0.5740    2.7500    1.3150 c2        1 M03     -0.119000
     16 C16        -1.3040   -0.8060   -1.8070 c2        1 M03      0.178000
     17 N17        -2.0920    0.2810   -1.8520 n2        1 M03     -0.247000
     18 C18        -3.3020    0.2280   -2.4980 c1        1 M03      0.002000
     19 N19        -3.7080   -0.9320   -3.0980 n1        1 M03     -0.193000
     20 C20        -2.9130   -2.0380   -3.0560 c1        1 M03      0.059000
     21 N21        -3.0450   -3.3010   -3.6250 n1        1 M03     -0.197000
     22 C22        -1.9260   -4.0160   -3.3300 c1        1 M03     -0.095000
     23 C23        -1.0940   -3.2130   -2.5810 c1        1 M03     -0.160000
     24 C24        -1.7160   -1.9880   -2.4170 c1        1 M03     -0.187000
     25 H2C1        1.0380   -1.6870   -1.0430 h1        1 M03      0.090500
     26 HA2         1.0160   -0.0980   -1.0790 h1        1 M03      0.090500
     27 H8C1       -1.1160    1.0390   -0.0720 h1        1 M03      0.090500
     28 H8C2       -2.2220    0.0420    0.4990 h1        1 M03      0.090500
     29 HA1         2.3790   -0.7160    0.6820 hc        1 M03      0.096000
     30 HB2         1.2730   -1.7000    1.2520 hc        1 M03      0.096000
     31 HB1         1.1190    0.7980    3.6920 h1        1 M03      0.070500
     32 HC2         2.4670    0.1850    3.0650 h1        1 M03      0.070500
     33 H7C1       -0.8990    1.0280    2.2320 hc        1 M03      0.096000
     34 H7C2       -0.8650   -0.5580    2.2610 hc        1 M03      0.096000
     35 HC1         1.9210   -1.6350    3.9230 hn        1 M03      0.147500
     36 HD2         0.5690   -1.1030    4.3540 hn        1 M03      0.147500
     37 H10         3.0970    0.9270    0.2800 ha        1 M03      0.139000
     38 H15        -0.2960    2.6730    1.7570 ha        1 M03      0.140000
     39 H11         3.9020    3.0470   -0.3770 ha        1 M03      0.147000
     40 H14         0.5080    4.7970    1.1010 ha        1 M03      0.148000
     41 H18        -3.8720    1.0190   -2.5300 ha        1 M03      0.187000
     42 H21        -3.7630   -3.6000   -4.1140 DU        1 M03      0.198667
     43 H22        -1.7200   -4.9200   -3.6480 DU        1 M03      0.198667
     44 H23        -0.2230   -3.4630   -2.2300 DU        1 M03      0.198667
@<TRIPOS>BOND
     1    1    2 1   
     2    1    8 1   
     3    1   16 1   
     4    2    3 1   
     5    2   25 1   
     6    2   26 1   
     7    3    4 1   
     8    3   29 1   
     9    3   30 1   
    10    4    5 1   
    11    4    7 1   
    12    4    9 1   
    13    5    6 1   
    14    5   31 1   
    15    5   32 1   
    16    6   35 1   
    17    6   36 1   
    18    7    8 1   
    19    7   33 1   
    20    7   34 1   
    21    8   27 1   
    22    8   28 1   
    23    9   10 1   
    24    9   15 1   
    25   10   37 1   
    26   11   12 1   
    27   11   39 1   
    28   12   14 1   
    29   14   15 1   
    30   14   40 1   
    31   15   38 1   
    32   16   17 1   
    33   16   24 1   
    34   17   18 1   
    35   18   41 1   
    36   19   20 1   
    37   21   22 1   
    38   22   23 1   
    39   23   24 1   
@<TRIPOS>SUBSTRUCTURE
     1 M03         1 TEMP              0 ****  ****    0 ROOT
