@<TRIPOS>MOLECULE
M03
   45    48     1     0     0
SMALL
bcc


@<TRIPOS>ATOM
      1 N1          0.2540    0.0380   -0.5060 nh        1 M03     -0.706300
      2 C2          1.6630   -0.0760   -0.1720 c3        1 M03      0.181300
      3 C3          1.9840    0.0610    1.3210 c3        1 M03     -0.113400
      4 C4          1.3900    1.3270    1.9440 c3        1 M03     -0.000700
      5 C5          1.4280    1.1640    3.4900 c3        1 M03      0.093800
      6 N6          2.8120    1.2570    4.0350 n4        1 M03     -0.835600
      7 C7         -0.1000    1.4180    1.5770 c3        1 M03     -0.113400
      8 C8         -0.3450    1.2220    0.0810 c3        1 M03      0.181300
      9 C9          2.1260    2.5940    1.6000 ca        1 M03     -0.153300
     10 C10         1.6470    3.8170    2.1010 ca        1 M03     -0.129000
     11 C11         2.2850    5.0170    1.8040 ca        1 M03     -0.117500
     12 C12         3.4290    5.0150    0.9960 ca        1 M03      0.033400
     13 CL1         4.2090    6.4680    0.6290 cl        1 M03     -0.034400
     14 C14         3.9200    3.8060    0.4920 ca        1 M03     -0.117500
     15 C15         3.2720    2.6100    0.7960 ca        1 M03     -0.129000
     16 C16        -0.4730   -1.1940   -0.3850 ca        1 M03      0.656200
     17 N17        -1.4110   -1.3870    0.5820 nb        1 M03     -0.780000
     18 C18        -2.1080   -2.5630    0.5640 ca        1 M03      0.654900
     19 N19        -1.9910   -3.6110   -0.2760 nb        1 M03     -0.686000
     20 C20        -1.0360   -3.4260   -1.2400 ca        1 M03      0.448800
     21 N21        -0.6480   -4.2830   -2.2720 na        1 M03     -0.273100
     22 C22         0.3530   -3.6480   -3.0150 cc        1 M03     -0.094100
     23 C23         0.6390   -2.3940   -2.4790 cd        1 M03     -0.163200
     24 C24        -0.2250   -2.2130   -1.3440 ca        1 M03     -0.312400
     25 H2C1        2.1880    0.7420   -0.7440 h1        1 M03      0.078450
     26 HA2         2.0540   -1.0680   -0.5360 h1        1 M03      0.078450
     27 H8C1        0.0940    2.1000   -0.4770 h1        1 M03      0.078450
     28 H8C2       -1.4560    1.2120   -0.1020 h1        1 M03      0.078450
     29 HA1         1.5590   -0.8330    1.8540 hc        1 M03      0.058950
     30 HB2         3.0960    0.0350    1.4490 hc        1 M03      0.058950
     31 HB1         0.8150    1.9810    3.9680 hx        1 M03      0.111700
     32 HC2         1.0000    0.1630    3.7820 hx        1 M03      0.111700
     33 H7C1       -0.6650    0.6370    2.1520 hc        1 M03      0.058950
     34 H7C2       -0.5100    2.4190    1.8680 hc        1 M03      0.058950
     35 HC1         3.2370    2.1430    3.7270 hn        1 M03      0.460800
     36 HD2         2.7980    1.2210    5.0570 hn        1 M03      0.460800
     37 H10         0.7350    3.8460    2.7190 ha        1 M03      0.143500
     38 H15         3.6790    1.6820    0.3630 ha        1 M03      0.143500
     39 H11         1.8830    5.9670    2.1940 ha        1 M03      0.169000
     40 H14         4.8120    3.7970   -0.1560 ha        1 M03      0.169000
     41 H18        -2.8780   -2.6670    1.3590 h5        1 M03      0.058100
     42 H21        -1.0510   -5.1650   -2.4630 hn        1 M03      0.322700
     43 H22         0.7900   -4.1480   -3.8830 h4        1 M03      0.183000
     44 H23         1.3580   -1.6730   -2.8570 ha        1 M03      0.167000
     45 H63         3.3790    0.4830    3.6750 hn        1 M03      0.460800
@<TRIPOS>BOND
     1    1    2 1   
     2    1    8 1   
     3    1   16 1   
     4    2    3 1   
     5    2   25 1   
     6    2   26 1   
     7    3    4 1   
     8    3   29 1   
     9    3   30 1   
    10    4    5 1   
    11    4    7 1   
    12    4    9 1   
    13    5    6 1   
    14    5   31 1   
    15    5   32 1   
    16    6   35 1   
    17    6   36 1   
    18    6   45 1   
    19    7    8 1   
    20    7   33 1   
    21    7   34 1   
    22    8   27 1   
    23    8   28 1   
    24    9   10 ar  
    25    9   15 ar  
    26   10   11 ar  
    27   10   37 1   
    28   11   12 ar  
    29   11   39 1   
    30   12   13 1   
    31   12   14 ar  
    32   14   15 ar  
    33   14   40 1   
    34   15   38 1   
    35   16   17 ar  
    36   16   24 ar  
    37   17   18 ar  
    38   18   19 ar  
    39   18   41 1   
    40   19   20 ar  
    41   20   21 1   
    42   20   24 ar  
    43   21   22 1   
    44   21   42 1   
    45   22   23 2   
    46   22   43 1   
    47   23   24 1   
    48   23   44 1   
@<TRIPOS>SUBSTRUCTURE
     1 M03         1 TEMP              0 ****  ****    0 ROOT
