@<TRIPOS>MOLECULE
M03
   45    48     1     0     0
SMALL
bcc


@<TRIPOS>ATOM
      1 N1          0.2380    0.0420   -0.4970 nh        1 M03     -0.706300
      2 C2          1.6530   -0.0590   -0.1890 c3        1 M03      0.181300
      3 C3          1.9990    0.0650    1.3000 c3        1 M03     -0.113400
      4 C4          1.4020    1.3160    1.9480 c3        1 M03     -0.000700
      5 C5          1.4680    1.1360    3.4900 c3        1 M03      0.093800
      6 N6          2.8610    1.2390    4.0130 nz        1 M03     -0.835600
      7 C7         -0.0950    1.3950    1.6080 c3        1 M03     -0.113400
      8 C8         -0.3640    1.2130    0.1140 c3        1 M03      0.181300
      9 C9          2.1180    2.5960    1.6060 ca        1 M03     -0.153300
     10 C10         1.6340    3.8070    2.1300 ca        1 M03     -0.129500
     11 C11         2.2520    5.0180    1.8370 ca        1 M03     -0.117500
     12 C12         3.3820    5.0390    1.0090 ca        1 M03      0.033400
     13 Cl1         4.1380    6.5050    0.6460 cl        1 M03     -0.034400
     14 C14         3.8770    3.8420    0.4810 ca        1 M03     -0.117500
     15 C15         3.2480    2.6340    0.7820 ca        1 M03     -0.129500
     16 C16        -0.4730   -1.1990   -0.3770 ca        1 M03      0.656200
     17 N17        -1.3920   -1.4130    0.6040 nb        1 M03     -0.780000
     18 C18        -2.0750   -2.5980    0.5840 ca        1 M03      0.654900
     19 N19        -1.9610   -3.6350   -0.2690 nb        1 M03     -0.686000
     20 C20        -1.0250   -3.4280   -1.2470 ca        1 M03      0.448800
     21 N21        -0.6450   -4.2690   -2.2950 na        1 M03     -0.273100
     22 C22         0.3360   -3.6150   -3.0480 cc        1 M03     -0.094100
     23 C23         0.6170   -2.3640   -2.5030 cd        1 M03     -0.163200
     24 C24        -0.2290   -2.2050   -1.3520 ca        1 M03     -0.312400
     25 H2C1        2.1590    0.7710   -0.7610 h1        1 M03      0.078700
     26 HA2         2.0490   -1.0420   -0.5720 h1        1 M03      0.078700
     27 H8C1        0.0550    2.1020   -0.4410 h1        1 M03      0.078700
     28 H8C2       -1.4780    1.1920   -0.0500 h1        1 M03      0.078700
     29 HA1         1.5950   -0.8400    1.8300 hc        1 M03      0.058950
     30 HB2         3.1140    0.0510    1.4080 hc        1 M03      0.058950
     31 HB1         0.8550    1.9400    3.9890 hx        1 M03      0.111700
     32 HC2         1.0580    0.1260    3.7790 hx        1 M03      0.111700
     33 H7C1       -0.5110    2.3880    1.9180 hc        1 M03      0.058950
     34 H7C2       -0.6410    0.6010    2.1840 hc        1 M03      0.058950
     35 HC1         3.4300    0.4750    3.6340 hn        1 M03      0.460800
     36 HD2         2.8650    1.1900    5.0340 hn        1 M03      0.460800
     37 H10         0.7330    3.8190    2.7650 ha        1 M03      0.143500
     38 H15         3.6580    1.7170    0.3310 ha        1 M03      0.143500
     39 H11         1.8470    5.9580    2.2460 ha        1 M03      0.169000
     40 H14         4.7570    3.8500   -0.1830 ha        1 M03      0.169000
     41 H18        -2.8310   -2.7190    1.3910 h5        1 M03      0.058100
     42 H21        -1.0410   -5.1540   -2.4900 hn        1 M03      0.322700
     43 H22         0.7630   -4.1000   -3.9290 h4        1 M03      0.183000
     44 H23         1.3210   -1.6300   -2.8850 ha        1 M03      0.167000
     45 H63         3.2700    2.1330    3.7080 hn        1 M03      0.460800
@<TRIPOS>BOND
     1    1    2 1   
     2    1    8 1   
     3    1   16 1   
     4    2    3 1   
     5    2   25 1   
     6    2   26 1   
     7    3    4 1   
     8    3   29 1   
     9    3   30 1   
    10    4    5 1   
    11    4    7 1   
    12    4    9 1   
    13    5    6 1   
    14    5   31 1   
    15    5   32 1   
    16    6   35 1   
    17    6   36 1   
    18    6   45 1   
    19    7    8 1   
    20    7   33 1   
    21    7   34 1   
    22    8   27 1   
    23    8   28 1   
    24    9   10 ar  
    25    9   15 ar  
    26   10   11 ar  
    27   10   37 1   
    28   11   12 ar  
    29   11   39 1   
    30   12   13 1   
    31   12   14 ar  
    32   14   15 ar  
    33   14   40 1   
    34   15   38 1   
    35   16   17 ar  
    36   16   24 ar  
    37   17   18 ar  
    38   18   19 ar  
    39   18   41 1   
    40   19   20 ar  
    41   20   21 1   
    42   20   24 ar  
    43   21   22 1   
    44   21   42 1   
    45   22   23 2   
    46   22   43 1   
    47   23   24 1   
    48   23   44 1   
@<TRIPOS>SUBSTRUCTURE
     1 M03         1 TEMP              0 ****  ****    0 ROOT
