@<TRIPOS>MOLECULE
M03
   44    47     1     0     0
SMALL
bcc


@<TRIPOS>ATOM
      1 N1          6.7700   10.0150    2.8090 nh        1 M03     -0.716300
      2 C2          7.4880    9.3690    1.7180 c3        1 M03      0.178800
      3 C3          8.4620    8.2670    2.1410 c3        1 M03     -0.100400
      4 C4          9.4340    8.7000    3.2390 c3        1 M03     -0.049700
      5 C5         10.1190    7.4210    3.8100 c3        1 M03      0.160800
      6 N6         10.9880    6.6960    2.9290 n3        1 M03     -0.903800
      7 C7          8.6170    9.3220    4.3790 c3        1 M03     -0.100400
      8 C8          7.6700   10.4110    3.8820 c3        1 M03      0.178800
      9 C9         10.5110    9.6400    2.7700 ca        1 M03     -0.068300
     10 C10        11.4150   10.1620    3.7110 ca        1 M03     -0.125000
     11 C11        12.4390   11.0240    3.3300 ca        1 M03     -0.122000
     12 C12        12.5800   11.3760    1.9840 ca        1 M03      0.014400
     13 CL1        13.8250   12.4310    1.5090 cl        1 M03     -0.092400
     14 C14        11.7010   10.8590    1.0310 ca        1 M03     -0.122000
     15 C15        10.6790    9.9960    1.4270 ca        1 M03     -0.125000
     16 C16         5.5400    9.3930    3.1690 ca        1 M03      0.689200
     17 N17         5.3030    8.9320    4.4310 nb        1 M03     -0.772000
     18 C18         4.0620    8.4330    4.7060 ca        1 M03      0.662900
     19 N19         2.9930    8.2990    3.8960 nb        1 M03     -0.716000
     20 C20         3.2240    8.7590    2.6260 ca        1 M03      0.450800
     21 N21         2.3500    8.8000    1.5370 na        1 M03     -0.282100
     22 C22         3.0240    9.3830    0.4570 cc        1 M03     -0.120100
     23 C23         4.3270    9.7140    0.8200 cd        1 M03     -0.150200
     24 C24         4.4980    9.3260    2.1950 ca        1 M03     -0.329400
     25 H2C1        6.7530    8.9340    0.9850 h1        1 M03      0.064450
     26 HA2         8.0570   10.1930    1.1990 h1        1 M03      0.064450
     27 H8C1        8.2830   11.2610    3.4620 h1        1 M03      0.064450
     28 H8C2        7.0760   10.8100    4.7500 h1        1 M03      0.064450
     29 HA1         7.8720    7.3900    2.5240 hc        1 M03      0.055700
     30 HB2         9.0190    7.9170    1.2340 hc        1 M03      0.055700
     31 HB1        10.7190    7.7280    4.7140 h1        1 M03      0.056200
     32 HC2         9.3080    6.7200    4.1560 h1        1 M03      0.056200
     33 H7C1        8.0270    8.5110    4.8830 hc        1 M03      0.055700
     34 H7C2        9.2960    9.7700    5.1480 hc        1 M03      0.055700
     35 HC1        10.4920    6.3630    2.1250 hn        1 M03      0.349300
     36 HD2        11.7530    7.2660    2.6250 hn        1 M03      0.349300
     37 H10        11.3260    9.8860    4.7740 ha        1 M03      0.138500
     38 H15        10.0090    9.6020    0.6480 ha        1 M03      0.138500
     39 H11        13.1330   11.4230    4.0860 ha        1 M03      0.148000
     40 H14        11.8100   11.1280   -0.0300 ha        1 M03      0.148000
     41 H18         3.9240    8.0780    5.7500 h5        1 M03      0.051100
     42 H21         1.4140    8.4890    1.5440 hn        1 M03      0.312700
     43 H22         2.5130    9.5180   -0.4980 h4        1 M03      0.171000
     44 H23         5.0730   10.1970    0.1950 ha        1 M03      0.163000
@<TRIPOS>BOND
     1    1    2 1   
     2    1    8 1   
     3    1   16 1   
     4    2    3 1   
     5    2   25 1   
     6    2   26 1   
     7    3    4 1   
     8    3   29 1   
     9    3   30 1   
    10    4    5 1   
    11    4    7 1   
    12    4    9 1   
    13    5    6 1   
    14    5   31 1   
    15    5   32 1   
    16    6   35 1   
    17    6   36 1   
    18    7    8 1   
    19    7   33 1   
    20    7   34 1   
    21    8   27 1   
    22    8   28 1   
    23    9   10 ar  
    24    9   15 ar  
    25   10   11 ar  
    26   10   37 1   
    27   11   12 ar  
    28   11   39 1   
    29   12   13 1   
    30   12   14 ar  
    31   14   15 ar  
    32   14   40 1   
    33   15   38 1   
    34   16   17 ar  
    35   16   24 ar  
    36   17   18 ar  
    37   18   19 ar  
    38   18   41 1   
    39   19   20 ar  
    40   20   21 1   
    41   20   24 ar  
    42   21   22 1   
    43   21   42 1   
    44   22   23 2   
    45   22   43 1   
    46   23   24 1   
    47   23   44 1   
@<TRIPOS>SUBSTRUCTURE
     1 M03         1 TEMP              0 ****  ****    0 ROOT
