@<TRIPOS>MOLECULE
M03
   45    48     1     0     0
SMALL
bcc


@<TRIPOS>ATOM
      1 N1          0.2330    0.0460   -0.4950 nh        1 M03     -0.706300
      2 C2          1.6490   -0.0560   -0.1930 c3        1 M03      0.181300
      3 C3          2.0020    0.0640    1.2940 c3        1 M03     -0.113400
      4 C4          1.4070    1.3120    1.9500 c3        1 M03     -0.000700
      5 C5          1.4800    1.1270    3.4910 c3        1 M03      0.093800
      6 N6          2.8750    1.2290    4.0070 n4        1 M03     -0.835600
      7 C7         -0.0910    1.3920    1.6170 c3        1 M03     -0.113400
      8 C8         -0.3670    1.2150    0.1230 c3        1 M03      0.181300
      9 C9          2.1210    2.5940    1.6080 ca        1 M03     -0.153300
     10 C10         1.6390    3.8030    2.1380 ca        1 M03     -0.129000
     11 C11         2.2560    5.0140    1.8470 ca        1 M03     -0.117500
     12 C12         3.3810    5.0380    1.0130 ca        1 M03      0.033400
     13 CL1         4.1360    6.5060    0.6520 cl        1 M03     -0.034400
     14 C14         3.8750    3.8440    0.4790 ca        1 M03     -0.117500
     15 C15         3.2480    2.6350    0.7790 ca        1 M03     -0.129000
     16 C16        -0.4770   -1.1960   -0.3760 ca        1 M03      0.656200
     17 N17        -1.3920   -1.4140    0.6080 nb        1 M03     -0.780000
     18 C18        -2.0750   -2.5980    0.5880 ca        1 M03      0.654900
     19 N19        -1.9640   -3.6320   -0.2690 nb        1 M03     -0.686000
     20 C20        -1.0320   -3.4230   -1.2510 ca        1 M03      0.448800
     21 N21        -0.6570   -4.2600   -2.3030 na        1 M03     -0.273100
     22 C22         0.3210   -3.6030   -3.0580 cc        1 M03     -0.094100
     23 C23         0.6030   -2.3530   -2.5100 cd        1 M03     -0.163200
     24 C24        -0.2380   -2.1990   -1.3550 ca        1 M03     -0.312400
     25 H2C1        2.0440   -1.0380   -0.5810 h1        1 M03      0.078700
     26 HA2         2.1520    0.7760   -0.7650 h1        1 M03      0.078700
     27 H8C1       -1.4810    1.1940   -0.0360 h1        1 M03      0.078700
     28 H8C2        0.0490    2.1060   -0.4310 h1        1 M03      0.078700
     29 HA1         3.1170    0.0490    1.3970 hc        1 M03      0.058950
     30 HB2         1.6000   -0.8430    1.8230 hc        1 M03      0.058950
     31 HB1         0.8690    1.9300    3.9950 hx        1 M03      0.111700
     32 HC2         1.0710    0.1170    3.7780 hx        1 M03      0.111700
     33 H7C1       -0.5060    2.3830    1.9310 hc        1 M03      0.058950
     34 H7C2       -0.6350    0.5960    2.1920 hc        1 M03      0.058950
     35 HC1         3.2830    2.1240    3.7030 hn        1 M03      0.460800
     36 HD2         2.8840    1.1770    5.0290 hn        1 M03      0.460800
     37 H10         0.7410    3.8120    2.7770 ha        1 M03      0.143500
     38 H15         3.6560    1.7190    0.3240 ha        1 M03      0.143500
     39 H11         1.8510    5.9530    2.2600 ha        1 M03      0.169000
     40 H14         4.7520    3.8540   -0.1890 ha        1 M03      0.169000
     41 H18        -2.8270   -2.7220    1.3970 h5        1 M03      0.058100
     42 H21        -1.0530   -5.1440   -2.4980 hn        1 M03      0.322700
     43 H22         0.7450   -4.0850   -3.9420 h4        1 M03      0.183000
     44 H23         1.3060   -1.6180   -2.8930 ha        1 M03      0.167000
     45 H63         3.4430    0.4670    3.6230 hn        1 M03      0.460800
@<TRIPOS>BOND
     1    1    2 1   
     2    1    8 1   
     3    1   16 1   
     4    2    3 1   
     5    2   25 1   
     6    2   26 1   
     7    3    4 1   
     8    3   29 1   
     9    3   30 1   
    10    4    5 1   
    11    4    7 1   
    12    4    9 1   
    13    5    6 1   
    14    5   31 1   
    15    5   32 1   
    16    6   35 1   
    17    6   36 1   
    18    6   45 1   
    19    7    8 1   
    20    7   33 1   
    21    7   34 1   
    22    8   27 1   
    23    8   28 1   
    24    9   10 ar  
    25    9   15 ar  
    26   10   11 ar  
    27   10   37 1   
    28   11   12 ar  
    29   11   39 1   
    30   12   13 1   
    31   12   14 ar  
    32   14   15 ar  
    33   14   40 1   
    34   15   38 1   
    35   16   17 ar  
    36   16   24 ar  
    37   17   18 ar  
    38   18   19 ar  
    39   18   41 1   
    40   19   20 ar  
    41   20   21 1   
    42   20   24 ar  
    43   21   22 1   
    44   21   42 1   
    45   22   23 2   
    46   22   43 1   
    47   23   24 1   
    48   23   44 1   
@<TRIPOS>SUBSTRUCTURE
     1 M03         1 TEMP              0 ****  ****    0 ROOT
