@<TRIPOS>MOLECULE
M04
   48    51     1     0     0
SMALL
bcc


@<TRIPOS>ATOM
      1 N1          0.1460   -0.0120    0.0270 nh        1 M04     -0.724300
      2 C2          1.5660   -0.3040   -0.0940 c3        1 M04      0.178300
      3 C3          2.2770   -0.3020    1.2570 c3        1 M04     -0.092400
      4 C5          1.6980   -2.7190    1.8120 c3        1 M04      0.090800
      5 N6          3.0790   -3.2000    1.5250 n4        1 M04     -0.835600
      6 C7          0.1320   -0.8950    2.3520 c3        1 M04     -0.092400
      7 C8         -0.5550   -0.8520    0.9870 c3        1 M04      0.178300
      8 C9          2.1510    0.2190    4.2760 ca        1 M04     -0.112300
      9 C10         3.1160    1.2100    4.0580 ca        1 M04     -0.114000
     10 C11         3.0140    2.4490    4.6870 ca        1 M04     -0.115000
     11 C12         1.9380    2.7030    5.5450 ca        1 M04      0.032400
     12 CL1         1.8090    4.2070    6.3120 cl        1 M04     -0.053400
     13 C14         0.9720    1.7170    5.7750 ca        1 M04     -0.115000
     14 C15         1.0830    0.4810    5.1420 ca        1 M04     -0.114000
     15 C16        -0.5000    0.1440   -1.2450 ca        1 M04      0.660200
     16 N17        -1.3830   -0.7800   -1.7120 nb        1 M04     -0.767000
     17 C13         2.2890   -1.1190    3.6380 c3        1 M04     -0.029100
     18 C18        -2.0000   -0.5200   -2.9040 ca        1 M04      0.658900
     19 N19        -1.8510    0.5370   -3.7270 nb        1 M04     -0.683000
     20 C20        -0.9560    1.4630   -3.2630 ca        1 M04      0.449800
     21 N21        -0.5620    2.6730   -3.8380 na        1 M04     -0.273100
     22 C22         0.3610    3.2840   -2.9840 cc        1 M04     -0.090100
     23 C23         0.5900    2.4900   -1.8610 cd        1 M04     -0.168200
     24 C24        -0.2300    1.3170   -2.0000 ca        1 M04     -0.310400
     25 C4          1.6210   -1.2440    2.2610 c3        1 M04     -0.063000
     26 H2C1        2.0230    0.4960   -0.7460 h1        1 M04      0.050200
     27 H2C2        1.7490   -1.3000   -0.5980 h1        1 M04      0.050200
     28 H8C1       -0.6940   -1.9090    0.6140 h1        1 M04      0.050200
     29 H8C2       -1.5850   -0.4100    1.1230 h1        1 M04      0.050200
     30 H3C1        3.3580   -0.5490    1.1020 hc        1 M04      0.072450
     31 H3C2        2.2440    0.7370    1.6920 hc        1 M04      0.072450
     32 H5C1        1.2680   -3.3780    2.6210 hx        1 M04      0.115200
     33 H5C2        1.0950   -2.8580    0.8660 hx        1 M04      0.115200
     34 H6N1        3.6750   -3.0750    2.3510 hn        1 M04      0.460133
     35 H6N2        3.4790   -2.6600    0.7490 hn        1 M04      0.460133
     36 H7C1        0.0410    0.1100    2.8480 hc        1 M04      0.072450
     37 H7C2       -0.4010   -1.6430    2.9950 hc        1 M04      0.072450
     38 H10         3.9690    1.0130    3.3920 ha        1 M04      0.133000
     39 H15         0.3250   -0.2940    5.3310 ha        1 M04      0.133000
     40 H131        1.8420   -1.8930    4.3210 hc        1 M04      0.040700
     41 H132        3.3860   -1.3450    3.5350 hc        1 M04      0.040700
     42 H11         3.7790    3.2220    4.5110 ha        1 M04      0.161500
     43 H14         0.1280    1.9130    6.4560 ha        1 M04      0.161500
     44 H18        -2.7240   -1.2950   -3.2380 h5        1 M04      0.063100
     45 H21        -0.9080    3.0400   -4.6880 hn        1 M04      0.323700
     46 H22         0.7900    4.2550   -3.2460 h4        1 M04      0.183000
     47 H23         1.2410    2.7230   -1.0240 ha        1 M04      0.163000
     48 H63         3.0600   -4.1920    1.2700 hn        1 M04      0.460133
@<TRIPOS>BOND
     1    1    2 1   
     2    1    7 1   
     3    1   15 1   
     4    2    3 1   
     5    2   26 1   
     6    2   27 1   
     7    3   25 1   
     8    3   30 1   
     9    3   31 1   
    10    4    5 1   
    11    4   25 1   
    12    4   32 1   
    13    4   33 1   
    14    5   34 1   
    15    5   35 1   
    16    5   48 1   
    17    6    7 1   
    18    6   25 1   
    19    6   36 1   
    20    6   37 1   
    21    7   28 1   
    22    7   29 1   
    23    8    9 ar  
    24    8   14 ar  
    25    8   17 1   
    26    9   10 ar  
    27    9   38 1   
    28   10   11 ar  
    29   10   42 1   
    30   11   12 1   
    31   11   13 ar  
    32   13   14 ar  
    33   13   43 1   
    34   14   39 1   
    35   15   16 ar  
    36   15   24 ar  
    37   16   18 ar  
    38   17   25 1   
    39   17   40 1   
    40   17   41 1   
    41   18   19 ar  
    42   18   44 1   
    43   19   20 ar  
    44   20   21 1   
    45   20   24 ar  
    46   21   22 1   
    47   21   45 1   
    48   22   23 2   
    49   22   46 1   
    50   23   24 1   
    51   23   47 1   
@<TRIPOS>SUBSTRUCTURE
     1 M04         1 TEMP              0 ****  ****    0 ROOT
