@<TRIPOS>MOLECULE
M04
   48    51     1     0     0
SMALL
bcc


@<TRIPOS>ATOM
      1 N1          0.1510   -0.0110    0.0240 nh        1 M04     -0.724300
      2 C2          1.5730   -0.2940   -0.0940 c3        1 M04      0.178300
      3 C3          2.2790   -0.2960    1.2600 c3        1 M04     -0.092400
      4 C5          1.7110   -2.7180    1.8000 c3        1 M04      0.090800
      5 N6          3.0950   -3.1910    1.5160 nz        1 M04     -0.835600
      6 C7          0.1330   -0.9050    2.3440 c3        1 M04     -0.092400
      7 C8         -0.5490   -0.8590    0.9770 c3        1 M04      0.178300
      8 C9          2.1400    0.2090    4.2810 ca        1 M04     -0.112300
      9 C10         3.1000    1.2070    4.0720 ca        1 M04     -0.114000
     10 C11         2.9890    2.4410    4.7060 ca        1 M04     -0.115000
     11 C12         1.9090    2.6850    5.5630 ca        1 M04      0.032400
     12 Cl1         1.7690    4.1840    6.3370 cl        1 M04     -0.053400
     13 C14         0.9470    1.6930    5.7840 ca        1 M04     -0.115000
     14 C15         1.0670    0.4620    5.1450 ca        1 M04     -0.114000
     15 C16        -0.4910    0.1480   -1.2500 ca        1 M04      0.660200
     16 N17        -1.3670   -0.7780   -1.7250 nb        1 M04     -0.767000
     17 C13         2.2870   -1.1250    3.6370 c3        1 M04     -0.029100
     18 C18        -1.9810   -0.5160   -2.9180 ca        1 M04      0.658900
     19 N19        -1.8350    0.5460   -3.7350 nb        1 M04     -0.683000
     20 C20        -0.9470    1.4740   -3.2630 ca        1 M04      0.449800
     21 N21        -0.5570    2.6890   -3.8320 na        1 M04     -0.273100
     22 C22         0.3590    3.3010   -2.9700 cc        1 M04     -0.090100
     23 C23         0.5870    2.5030   -1.8510 cd        1 M04     -0.168200
     24 C24        -0.2250    1.3260   -1.9980 ca        1 M04     -0.310400
     25 C4          1.6250   -1.2460    2.2570 c3        1 M04     -0.063000
     26 H2C1        2.0270    0.5120   -0.7400 h1        1 M04      0.050200
     27 H2C2        1.7630   -1.2870   -0.6020 h1        1 M04      0.050200
     28 H8C1       -1.5820   -0.4240    1.1110 h1        1 M04      0.050200
     29 H8C2       -0.6810   -1.9150    0.5980 h1        1 M04      0.050200
     30 H3C1        2.2390    0.7410    1.7000 hc        1 M04      0.072450
     31 H3C2        3.3620   -0.5360    1.1080 hc        1 M04      0.072450
     32 H5C1        1.1120   -2.8560    0.8510 hx        1 M04      0.115200
     33 H5C2        1.2810   -3.3830    2.6040 hx        1 M04      0.115200
     34 H6N1        3.0820   -4.1810    1.2560 hn        1 M04      0.460133
     35 H6N2        3.4950   -2.6450    0.7450 hn        1 M04      0.460133
     36 H7C1        0.0350    0.0960    2.8450 hc        1 M04      0.072450
     37 H7C2       -0.3980   -1.6590    2.9810 hc        1 M04      0.072450
     38 H10         3.9570    1.0170    3.4080 ha        1 M04      0.133000
     39 H15         0.3120   -0.3190    5.3270 ha        1 M04      0.133000
     40 H131        3.3850   -1.3440    3.5370 hc        1 M04      0.040700
     41 H132        1.8420   -1.9050    4.3140 hc        1 M04      0.040700
     42 H11         3.7510    3.2190    4.5370 ha        1 M04      0.161500
     43 H14         0.1000    1.8820    6.4630 ha        1 M04      0.161500
     44 H18        -2.6990   -1.2940   -3.2590 h5        1 M04      0.063100
     45 H21        -0.9020    3.0580   -4.6810 hn        1 M04      0.323700
     46 H22         0.7830    4.2760   -3.2260 h4        1 M04      0.183000
     47 H23         1.2340    2.7350   -1.0100 ha        1 M04      0.163000
     48 H63         3.6870   -3.0670    2.3450 hn        1 M04      0.460133
@<TRIPOS>BOND
     1    1    2 1   
     2    1    7 1   
     3    1   15 1   
     4    2    3 1   
     5    2   26 1   
     6    2   27 1   
     7    3   25 1   
     8    3   30 1   
     9    3   31 1   
    10    4    5 1   
    11    4   25 1   
    12    4   32 1   
    13    4   33 1   
    14    5   34 1   
    15    5   35 1   
    16    5   48 1   
    17    6    7 1   
    18    6   25 1   
    19    6   36 1   
    20    6   37 1   
    21    7   28 1   
    22    7   29 1   
    23    8    9 ar  
    24    8   14 ar  
    25    8   17 1   
    26    9   10 ar  
    27    9   38 1   
    28   10   11 ar  
    29   10   42 1   
    30   11   12 1   
    31   11   13 ar  
    32   13   14 ar  
    33   13   43 1   
    34   14   39 1   
    35   15   16 ar  
    36   15   24 ar  
    37   16   18 ar  
    38   17   25 1   
    39   17   40 1   
    40   17   41 1   
    41   18   19 ar  
    42   18   44 1   
    43   19   20 ar  
    44   20   21 1   
    45   20   24 ar  
    46   21   22 1   
    47   21   45 1   
    48   22   23 2   
    49   22   46 1   
    50   23   24 1   
    51   23   47 1   
@<TRIPOS>SUBSTRUCTURE
     1 M04         1 TEMP              0 ****  ****    0 ROOT
