@<TRIPOS>MOLECULE
M04
   47    50     1     0     0
SMALL
bcc


@<TRIPOS>ATOM
      1 N1          7.4790    9.7420    3.2240 nh        1 M04     -0.730300
      2 C2          8.0300    8.6140    2.4830 c3        1 M04      0.186300
      3 C3          9.4930    8.8290    2.0980 c3        1 M04     -0.076900
      4 C5         10.4980    7.9560    4.2640 c3        1 M04      0.153800
      5 N6         11.0690    6.7380    3.7630 n3        1 M04     -0.905800
      6 C7          9.7420   10.3250    4.0640 c3        1 M04     -0.076900
      7 C8          8.2680   10.0980    4.3970 c3        1 M04      0.186300
      8 C9         11.8790   10.7870    2.0190 ca        1 M04     -0.074300
      9 C10        11.7790   10.7410    0.6230 ca        1 M04     -0.120500
     10 C11        11.9080   11.8990   -0.1400 ca        1 M04     -0.121500
     11 C12        12.1430   13.1210    0.4980 ca        1 M04      0.016400
     12 CL1        12.3030   14.5390   -0.4260 cl        1 M04     -0.094400
     13 C14        12.2510   13.1840    1.8910 ca        1 M04     -0.121500
     14 C15        12.1200   12.0180    2.6420 ca        1 M04     -0.120500
     15 C16         6.0690    9.6970    3.3980 ca        1 M04      0.697200
     16 N17         5.5040    9.6770    4.6400 nb        1 M04     -0.771000
     17 C13        11.7830    9.5390    2.8250 c3        1 M04     -0.034100
     18 C18         4.1420    9.7070    4.7220 ca        1 M04      0.663900
     19 N19         3.2240    9.7420    3.7350 nb        1 M04     -0.717000
     20 C20         3.7860    9.7670    2.4850 ca        1 M04      0.450800
     21 N21         3.1500    9.8330    1.2430 na        1 M04     -0.282100
     22 C22         4.1360    9.8740    0.2490 cc        1 M04     -0.121100
     23 C23         5.4040    9.8260    0.8210 cd        1 M04     -0.149200
     24 C24         5.2260    9.7480    2.2470 ca        1 M04     -0.328400
     25 C4         10.3720    9.1630    3.2970 c3        1 M04     -0.086000
     26 H2C1        7.9490    7.6600    3.0830 h1        1 M04      0.048950
     27 H2C2        7.4260    8.4760    1.5420 h1        1 M04      0.048950
     28 H8C1        7.8490   11.0580    4.8140 h1        1 M04      0.048950
     29 H8C2        8.1890    9.3120    5.2040 h1        1 M04      0.048950
     30 H3C1        9.8570    7.9020    1.5850 hc        1 M04      0.053200
     31 H3C2        9.5620    9.6720    1.3570 hc        1 M04      0.053200
     32 H5C1        9.4680    7.7100    4.6510 h1        1 M04      0.057200
     33 H5C2       11.1230    8.2870    5.1430 h1        1 M04      0.057200
     34 H6N1       10.5240    6.3600    3.0130 hn        1 M04      0.346300
     35 H6N2       12.0080    6.8770    3.4440 hn        1 M04      0.346300
     36 H7C1        9.8410   11.2600    3.4510 hc        1 M04      0.053200
     37 H7C2       10.2930   10.4860    5.0270 hc        1 M04      0.053200
     38 H10        11.5990    9.7780    0.1190 ha        1 M04      0.136500
     39 H15        12.2050   12.0660    3.7390 ha        1 M04      0.136500
     40 H131       12.1910    8.6920    2.2090 hc        1 M04      0.048700
     41 H132       12.4370    9.6420    3.7340 hc        1 M04      0.048700
     42 H11        11.8260   11.8510   -1.2360 ha        1 M04      0.147500
     43 H14        12.4380   14.1450    2.3920 ha        1 M04      0.147500
     44 H18         3.7360    9.6910    5.7560 h5        1 M04      0.051100
     45 H21         2.1750    9.8650    1.1020 hn        1 M04      0.311700
     46 H22         3.8490    9.9360   -0.8020 h4        1 M04      0.171000
     47 H23         6.3530    9.8670    0.2940 ha        1 M04      0.163000
@<TRIPOS>BOND
     1    1    2 1   
     2    1    7 1   
     3    1   15 1   
     4    2    3 1   
     5    2   26 1   
     6    2   27 1   
     7    3   25 1   
     8    3   30 1   
     9    3   31 1   
    10    4    5 1   
    11    4   25 1   
    12    4   32 1   
    13    4   33 1   
    14    5   34 1   
    15    5   35 1   
    16    6    7 1   
    17    6   25 1   
    18    6   36 1   
    19    6   37 1   
    20    7   28 1   
    21    7   29 1   
    22    8    9 ar  
    23    8   14 ar  
    24    8   17 1   
    25    9   10 ar  
    26    9   38 1   
    27   10   11 ar  
    28   10   42 1   
    29   11   12 1   
    30   11   13 ar  
    31   13   14 ar  
    32   13   43 1   
    33   14   39 1   
    34   15   16 ar  
    35   15   24 ar  
    36   16   18 ar  
    37   17   25 1   
    38   17   40 1   
    39   17   41 1   
    40   18   19 ar  
    41   18   44 1   
    42   19   20 ar  
    43   20   21 1   
    44   20   24 ar  
    45   21   22 1   
    46   21   45 1   
    47   22   23 2   
    48   22   46 1   
    49   23   24 1   
    50   23   47 1   
@<TRIPOS>SUBSTRUCTURE
     1 M04         1 TEMP              0 ****  ****    0 ROOT
