@<TRIPOS>MOLECULE
M04
   48    51     1     0     0
SMALL
bcc


@<TRIPOS>ATOM
      1 N1          0.1470   -0.0150    0.0270 nh        1 M04     -0.724300
      2 C2          1.5690   -0.2930   -0.0960 c3        1 M04      0.178300
      3 C3          2.2810   -0.2920    1.2560 c3        1 M04     -0.092400
      4 C5          1.7220   -2.7160    1.7990 c3        1 M04      0.090800
      5 N6          3.1070   -3.1840    1.5100 n4        1 M04     -0.835600
      6 C7          0.1410   -0.9080    2.3480 c3        1 M04     -0.092400
      7 C8         -0.5470   -0.8640    0.9840 c3        1 M04      0.178300
      8 C9          2.1520    0.2140    4.2760 ca        1 M04     -0.112300
      9 C10         3.1070    1.2150    4.0630 ca        1 M04     -0.114000
     10 C11         2.9950    2.4500    4.6980 ca        1 M04     -0.115000
     11 C12         1.9170    2.6900    5.5580 ca        1 M04      0.032400
     12 CL1         1.7750    4.1890    6.3320 cl        1 M04     -0.053400
     13 C14         0.9600    1.6940    5.7840 ca        1 M04     -0.115000
     14 C15         1.0820    0.4630    5.1450 ca        1 M04     -0.114000
     15 C16        -0.5010    0.1420   -1.2440 ca        1 M04      0.660200
     16 N17        -1.3760   -0.7880   -1.7140 nb        1 M04     -0.767000
     17 C13         2.3000   -1.1190    3.6320 c3        1 M04     -0.029100
     18 C18        -1.9960   -0.5280   -2.9050 ca        1 M04      0.658900
     19 N19        -1.8560    0.5340   -3.7240 nb        1 M04     -0.683000
     20 C20        -0.9690    1.4650   -3.2560 ca        1 M04      0.449800
     21 N21        -0.5870    2.6810   -3.8260 na        1 M04     -0.273100
     22 C22         0.3310    3.2970   -2.9690 cc        1 M04     -0.090100
     23 C23         0.5670    2.5000   -1.8500 cd        1 M04     -0.168200
     24 C24        -0.2420    1.3210   -1.9940 ca        1 M04     -0.310400
     25 C4          1.6330   -1.2430    2.2550 c3        1 M04     -0.063000
     26 H2C1        2.0180    0.5140   -0.7450 h1        1 M04      0.050200
     27 H2C2        1.7600   -1.2850   -0.6050 h1        1 M04      0.050200
     28 H8C1       -1.5810   -0.4320    1.1220 h1        1 M04      0.050200
     29 H8C2       -0.6770   -1.9210    0.6060 h1        1 M04      0.050200
     30 H3C1        2.2390    0.7450    1.6950 hc        1 M04      0.072450
     31 H3C2        3.3640   -0.5290    1.0990 hc        1 M04      0.072450
     32 H5C1        1.1210   -2.8560    0.8530 hx        1 M04      0.115200
     33 H5C2        1.2980   -3.3820    2.6050 hx        1 M04      0.115200
     34 H6N1        3.0960   -4.1750    1.2500 hn        1 M04      0.460133
     35 H6N2        3.5020   -2.6370    0.7360 hn        1 M04      0.460133
     36 H7C1        0.0420    0.0940    2.8490 hc        1 M04      0.072450
     37 H7C2       -0.3850   -1.6630    2.9880 hc        1 M04      0.072450
     38 H10         3.9620    1.0280    3.3960 ha        1 M04      0.133000
     39 H15         0.3300   -0.3200    5.3300 ha        1 M04      0.133000
     40 H131        3.3990   -1.3350    3.5280 hc        1 M04      0.040700
     41 H132        1.8610   -1.9010    4.3120 hc        1 M04      0.040700
     42 H11         3.7520    3.2300    4.5250 ha        1 M04      0.161500
     43 H14         0.1150    1.8800    6.4660 ha        1 M04      0.161500
     44 H18        -2.7130   -1.3090   -3.2430 h5        1 M04      0.063100
     45 H21        -0.9360    3.0490   -4.6740 hn        1 M04      0.323700
     46 H22         0.7510    4.2730   -3.2270 h4        1 M04      0.183000
     47 H23         1.2160    2.7350   -1.0120 ha        1 M04      0.163000
     48 H63         3.7020   -3.0580    2.3370 hn        1 M04      0.460133
@<TRIPOS>BOND
     1    1    2 1   
     2    1    7 1   
     3    1   15 1   
     4    2    3 1   
     5    2   26 1   
     6    2   27 1   
     7    3   25 1   
     8    3   30 1   
     9    3   31 1   
    10    4    5 1   
    11    4   25 1   
    12    4   32 1   
    13    4   33 1   
    14    5   34 1   
    15    5   35 1   
    16    5   48 1   
    17    6    7 1   
    18    6   25 1   
    19    6   36 1   
    20    6   37 1   
    21    7   28 1   
    22    7   29 1   
    23    8    9 ar  
    24    8   14 ar  
    25    8   17 1   
    26    9   10 ar  
    27    9   38 1   
    28   10   11 ar  
    29   10   42 1   
    30   11   12 1   
    31   11   13 ar  
    32   13   14 ar  
    33   13   43 1   
    34   14   39 1   
    35   15   16 ar  
    36   15   24 ar  
    37   16   18 ar  
    38   17   25 1   
    39   17   40 1   
    40   17   41 1   
    41   18   19 ar  
    42   18   44 1   
    43   19   20 ar  
    44   20   21 1   
    45   20   24 ar  
    46   21   22 1   
    47   21   45 1   
    48   22   23 2   
    49   22   46 1   
    50   23   24 1   
    51   23   47 1   
@<TRIPOS>SUBSTRUCTURE
     1 M04         1 TEMP              0 ****  ****    0 ROOT
