@<TRIPOS>MOLECULE
M05
   45    48     1     0     0
SMALL
bcc


@<TRIPOS>ATOM
      1 N1         -0.5810    0.5560    0.3200 nh        1 M05     -0.702300
      2 C8          0.8060    0.5550   -0.1050 c3        1 M05      0.178300
      3 C4          2.0820    2.4210    2.1220 c3        1 M05     -0.058100
      4 C5          1.6360    0.9500    2.2660 c3        1 M05      0.161200
      5 N6          2.4910    0.2900    3.3500 nz        1 M05     -0.850600
      6 C2         -0.7770    1.2720    1.5660 c3        1 M05      0.178300
      7 C9          3.5550    2.5930    2.0110 ca        1 M05     -0.150300
      8 C10         4.3300    2.7760    3.1650 ca        1 M05     -0.128500
      9 C11         5.7050    2.9740    3.0720 ca        1 M05     -0.111500
     10 C12         6.3190    2.9910    1.8130 ca        1 M05      0.033400
     11 Cl1         7.9890    3.2250    1.6950 cl        1 M05     -0.036400
     12 C14         5.5520    2.8250    0.6540 ca        1 M05     -0.111500
     13 C15         4.1760    2.6300    0.7580 ca        1 M05     -0.128500
     14 C16        -1.2080   -0.7480    0.2900 ca        1 M05      0.629200
     15 N17        -0.7570   -1.7770    1.0580 nb        1 M05     -0.791000
     16 C18        -1.4100   -2.9730    0.9560 ca        1 M05      0.646900
     17 N19        -2.4690   -3.3010    0.1870 nb        1 M05     -0.671000
     18 C20        -2.9220   -2.2670   -0.5830 ca        1 M05      0.445800
     19 N21        -3.9830   -2.2370   -1.4890 na        1 M05     -0.273100
     20 C22        -4.0560   -0.9500   -2.0360 cc        1 M05     -0.084100
     21 C23        -3.0620   -0.1320   -1.5050 cd        1 M05     -0.156200
     22 C3          1.8440    0.1730    0.9550 c3        1 M05     -0.138900
     23 C17         0.1660    0.8940    2.7130 c3        1 M05     -0.138900
     24 C24        -2.3140   -0.9310   -0.5730 ca        1 M05     -0.279400
     25 H8C1        1.0260    1.5990   -0.4740 h1        1 M05      0.080200
     26 H8C2        0.9250   -0.1510   -0.9760 h1        1 M05      0.080200
     27 H2C1       -1.8370    1.1170    1.9180 h1        1 M05      0.080200
     28 H2C2       -0.6450    2.3670    1.3300 h1        1 M05      0.080200
     29 H3C1        2.8640    0.3990    0.5440 hc        1 M05      0.077450
     30 H3C2        1.7760   -0.9320    1.1400 hc        1 M05      0.077450
     31 H4C1        1.5750    2.8270    1.2030 hc        1 M05      0.090700
     32 H4C2        1.6970    3.0130    2.9970 hc        1 M05      0.090700
     33 H6N1        2.2470   -0.7000    3.4210 hn        1 M05      0.456133
     34 H6N2        3.4810    0.3910    3.1010 hn        1 M05      0.456133
     35 H171       -0.0950   -0.1390    3.0690 hc        1 M05      0.077450
     36 H172       -0.0070    1.6090    3.5600 hc        1 M05      0.077450
     37 H10         3.8490    2.8150    4.1540 ha        1 M05      0.138000
     38 H15         3.5740    2.5230   -0.1590 ha        1 M05      0.138000
     39 H11         6.3050    3.1310    3.9840 ha        1 M05      0.168000
     40 H14         6.0300    2.8600   -0.3390 ha        1 M05      0.168000
     41 H18        -1.0130   -3.7910    1.5960 h5        1 M05      0.057100
     42 H21        -4.5750   -3.0000   -1.7020 hn        1 M05      0.325700
     43 H22        -4.8270   -0.7140   -2.7750 h4        1 M05      0.187000
     44 H23        -2.8760    0.9110   -1.7440 ha        1 M05      0.176000
     45 H4          2.3200    0.7530    4.2440 hn        1 M05      0.456133
@<TRIPOS>BOND
     1    1    2 1   
     2    1    6 1   
     3    1   14 1   
     4    2   22 1   
     5    2   25 1   
     6    2   26 1   
     7    3    4 1   
     8    3    7 1   
     9    3   31 1   
    10    3   32 1   
    11    4    5 1   
    12    4   22 1   
    13    4   23 1   
    14    5   33 1   
    15    5   34 1   
    16    5   45 1   
    17    6   23 1   
    18    6   27 1   
    19    6   28 1   
    20    7    8 ar  
    21    7   13 ar  
    22    8    9 ar  
    23    8   37 1   
    24    9   10 ar  
    25    9   39 1   
    26   10   11 1   
    27   10   12 ar  
    28   12   13 ar  
    29   12   40 1   
    30   13   38 1   
    31   14   15 ar  
    32   14   24 ar  
    33   15   16 ar  
    34   16   17 ar  
    35   16   41 1   
    36   17   18 ar  
    37   18   19 1   
    38   18   24 ar  
    39   19   20 1   
    40   19   42 1   
    41   20   21 2   
    42   20   43 1   
    43   21   24 1   
    44   21   44 1   
    45   22   29 1   
    46   22   30 1   
    47   23   35 1   
    48   23   36 1   
@<TRIPOS>SUBSTRUCTURE
     1 M05         1 TEMP              0 ****  ****    0 ROOT
