@<TRIPOS>MOLECULE
M05
   45    48     1     0     0
SMALL
bcc


@<TRIPOS>ATOM
      1 N1         -0.5820    0.5550    0.3210 nh        1 M05     -0.702300
      2 C8          0.8050    0.5590   -0.1050 c3        1 M05      0.178300
      3 C4          2.0790    2.4210    2.1270 c3        1 M05     -0.058100
      4 C5          1.6360    0.9480    2.2660 c3        1 M05      0.161200
      5 N6          2.4940    0.2870    3.3470 n4        1 M05     -0.850600
      6 C2         -0.7780    1.2660    1.5700 c3        1 M05      0.178300
      7 C9          3.5510    2.5970    2.0150 ca        1 M05     -0.150300
      8 C10         4.3270    2.7780    3.1680 ca        1 M05     -0.128500
      9 C11         5.7010    2.9790    3.0750 ca        1 M05     -0.111500
     10 C12         6.3140    3.0020    1.8150 ca        1 M05      0.033400
     11 CL1         7.9830    3.2400    1.6960 cl        1 M05     -0.036400
     12 C14         5.5460    2.8370    0.6560 ca        1 M05     -0.111500
     13 C15         4.1700    2.6390    0.7610 ca        1 M05     -0.128500
     14 C16        -1.2050   -0.7510    0.2880 ca        1 M05      0.629200
     15 N17        -0.7510   -1.7810    1.0530 nb        1 M05     -0.791000
     16 C18        -1.4010   -2.9780    0.9480 ca        1 M05      0.646900
     17 N19        -2.4600   -3.3060    0.1780 nb        1 M05     -0.671000
     18 C20        -2.9170   -2.2710   -0.5890 ca        1 M05      0.445800
     19 N21        -3.9780   -2.2410   -1.4940 na        1 M05     -0.273100
     20 C22        -4.0550   -0.9530   -2.0370 cc        1 M05     -0.084100
     21 C23        -3.0620   -0.1340   -1.5040 cd        1 M05     -0.156200
     22 C3          1.8450    0.1760    0.9530 c3        1 M05     -0.138900
     23 C17         0.1670    0.8870    2.7150 c3        1 M05     -0.138900
     24 C24        -2.3110   -0.9330   -0.5740 ca        1 M05     -0.279400
     25 H8C1        1.0220    1.6040   -0.4710 h1        1 M05      0.080200
     26 H8C2        0.9240   -0.1440   -0.9780 h1        1 M05      0.080200
     27 H2C1       -1.8370    1.1070    1.9220 h1        1 M05      0.080200
     28 H2C2       -0.6490    2.3630    1.3370 h1        1 M05      0.080200
     29 H3C1        2.8640    0.4050    0.5420 hc        1 M05      0.077450
     30 H3C2        1.7790   -0.9300    1.1350 hc        1 M05      0.077450
     31 H4C1        1.5700    2.8280    1.2090 hc        1 M05      0.090700
     32 H4C2        1.6930    3.0090    3.0040 hc        1 M05      0.090700
     33 H6N1        2.2520   -0.7040    3.4160 hn        1 M05      0.456133
     34 H6N2        3.4840    0.3910    3.0980 hn        1 M05      0.456133
     35 H171       -0.0070    1.5990    3.5640 hc        1 M05      0.077450
     36 H172       -0.0920   -0.1470    3.0680 hc        1 M05      0.077450
     37 H10         3.8470    2.8130    4.1580 ha        1 M05      0.138000
     38 H15         3.5670    2.5340   -0.1560 ha        1 M05      0.138000
     39 H11         6.3010    3.1350    3.9860 ha        1 M05      0.168000
     40 H14         6.0230    2.8760   -0.3370 ha        1 M05      0.168000
     41 H18        -1.0020   -3.7970    1.5850 h5        1 M05      0.057100
     42 H21        -4.5680   -3.0050   -1.7090 hn        1 M05      0.325700
     43 H22        -4.8260   -0.7170   -2.7750 h4        1 M05      0.187000
     44 H23        -2.8790    0.9110   -1.7400 ha        1 M05      0.176000
     45 H4          2.3230    0.7470    4.2430 hn        1 M05      0.456133
@<TRIPOS>BOND
     1    1    2 1   
     2    1    6 1   
     3    1   14 1   
     4    2   22 1   
     5    2   25 1   
     6    2   26 1   
     7    3    4 1   
     8    3    7 1   
     9    3   31 1   
    10    3   32 1   
    11    4    5 1   
    12    4   22 1   
    13    4   23 1   
    14    5   33 1   
    15    5   34 1   
    16    5   45 1   
    17    6   23 1   
    18    6   27 1   
    19    6   28 1   
    20    7    8 ar  
    21    7   13 ar  
    22    8    9 ar  
    23    8   37 1   
    24    9   10 ar  
    25    9   39 1   
    26   10   11 1   
    27   10   12 ar  
    28   12   13 ar  
    29   12   40 1   
    30   13   38 1   
    31   14   15 ar  
    32   14   24 ar  
    33   15   16 ar  
    34   16   17 ar  
    35   16   41 1   
    36   17   18 ar  
    37   18   19 1   
    38   18   24 ar  
    39   19   20 1   
    40   19   42 1   
    41   20   21 2   
    42   20   43 1   
    43   21   24 1   
    44   21   44 1   
    45   22   29 1   
    46   22   30 1   
    47   23   35 1   
    48   23   36 1   
@<TRIPOS>SUBSTRUCTURE
     1 M05         1 TEMP              0 ****  ****    0 ROOT
