@<TRIPOS>MOLECULE
M05
   45    48     1     0     0
SMALL
bcc


@<TRIPOS>ATOM
      1 N1         -6.6650   -7.8190   -8.8080 nh        1 M05     -0.702300
      2 C8         -7.6540   -8.0880   -7.7810 c3        1 M05      0.178300
      3 C4        -10.3120   -7.3390   -9.3450 c3        1 M05     -0.058100
      4 C5         -9.4480   -8.6090   -9.5060 c3        1 M05      0.161200
      5 N6        -10.3530   -9.7520   -9.9700 n4        1 M05     -0.850600
      6 C2         -7.2690   -7.4500  -10.0740 c3        1 M05      0.178300
      7 C9        -11.5640   -7.5590   -8.5720 ca        1 M05     -0.150300
      8 C10       -12.7440   -7.9240   -9.2350 ca        1 M05     -0.128500
      9 C11       -13.9300   -8.0980   -8.5280 ca        1 M05     -0.111500
     10 C12       -13.9440   -7.9050   -7.1400 ca        1 M05      0.033400
     11 CL1       -15.3800   -8.1210   -6.2760 cl        1 M05     -0.036400
     12 C14       -12.7750   -7.5250   -6.4710 ca        1 M05     -0.111500
     13 C15       -11.5930   -7.3510   -7.1890 ca        1 M05     -0.128500
     14 C16        -5.6430   -8.8370   -8.9230 ca        1 M05      0.629200
     15 N17        -5.9450  -10.1210   -9.2580 nb        1 M05     -0.791000
     16 C18        -4.9120  -11.0130   -9.3350 ca        1 M05      0.646900
     17 N19        -3.5950  -10.8080   -9.1240 nb        1 M05     -0.671000
     18 C20        -3.2920   -9.5180   -8.7890 ca        1 M05      0.445800
     19 N21        -2.0520   -8.9470   -8.5030 na        1 M05     -0.273100
     20 C22        -2.2510   -7.5910   -8.2130 cc        1 M05     -0.084100
     21 C23        -3.6010   -7.2610   -8.3050 cd        1 M05     -0.156200
     22 C3         -8.8060   -9.0200   -8.1710 c3        1 M05     -0.138900
     23 C17        -8.3770   -8.3760  -10.5850 c3        1 M05     -0.138900
     24 C24        -4.3030   -8.4600   -8.6700 ca        1 M05     -0.279400
     25 H8C1       -7.1400   -8.5300   -6.8810 h1        1 M05      0.080200
     26 H8C2       -8.0790   -7.0860   -7.4800 h1        1 M05      0.080200
     27 H2C1       -7.6930   -6.4130   -9.9370 h1        1 M05      0.080200
     28 H2C2       -6.4660   -7.3960  -10.8640 h1        1 M05      0.080200
     29 H3C1       -8.4110  -10.0690   -8.2320 hc        1 M05      0.077450
     30 H3C2       -9.5780   -8.9820   -7.3570 hc        1 M05      0.077450
     31 H4C1       -9.6700   -6.5720   -8.8310 hc        1 M05      0.090700
     32 H4C2      -10.5620   -6.9290  -10.3620 hc        1 M05      0.090700
     33 H6N1      -10.7420   -9.5260  -10.8860 hn        1 M05      0.456133
     34 H6N2       -9.8080  -10.6160  -10.0290 hn        1 M05      0.456133
     35 H171       -7.9180   -9.3520  -10.8960 hc        1 M05      0.077450
     36 H172       -8.8400   -7.9040  -11.4910 hc        1 M05      0.077450
     37 H10       -12.7540   -8.0270  -10.3320 ha        1 M05      0.138000
     38 H15       -10.6810   -7.0290   -6.6610 ha        1 M05      0.138000
     39 H11       -14.8570   -8.3710   -9.0590 ha        1 M05      0.168000
     40 H14       -12.7880   -7.3520   -5.3820 ha        1 M05      0.168000
     41 H18        -5.1970  -12.0520   -9.6080 h5        1 M05      0.057100
     42 H21        -1.1870   -9.4250   -8.5050 hn        1 M05      0.325700
     43 H22        -1.3970   -6.9560   -7.9600 h4        1 M05      0.187000
     44 H23        -4.0490   -6.2860   -8.1330 ha        1 M05      0.176000
     45 H4        -11.1190   -9.8660   -9.2960 hn        1 M05      0.456133
@<TRIPOS>BOND
     1    1    2 1   
     2    1    6 1   
     3    1   14 1   
     4    2   22 1   
     5    2   25 1   
     6    2   26 1   
     7    3    4 1   
     8    3    7 1   
     9    3   31 1   
    10    3   32 1   
    11    4    5 1   
    12    4   22 1   
    13    4   23 1   
    14    5   33 1   
    15    5   34 1   
    16    5   45 1   
    17    6   23 1   
    18    6   27 1   
    19    6   28 1   
    20    7    8 ar  
    21    7   13 ar  
    22    8    9 ar  
    23    8   37 1   
    24    9   10 ar  
    25    9   39 1   
    26   10   11 1   
    27   10   12 ar  
    28   12   13 ar  
    29   12   40 1   
    30   13   38 1   
    31   14   15 ar  
    32   14   24 ar  
    33   15   16 ar  
    34   16   17 ar  
    35   16   41 1   
    36   17   18 ar  
    37   18   19 1   
    38   18   24 ar  
    39   19   20 1   
    40   19   42 1   
    41   20   21 2   
    42   20   43 1   
    43   21   24 1   
    44   21   44 1   
    45   22   29 1   
    46   22   30 1   
    47   23   35 1   
    48   23   36 1   
@<TRIPOS>SUBSTRUCTURE
     1 M05         1 TEMP              0 ****  ****    0 ROOT
