@<TRIPOS>MOLECULE
M05
   45    48     1     0     0
SMALL
bcc


@<TRIPOS>ATOM
      1 N1         -0.5750    0.5490    0.3090 nh        1 M05     -0.702300
      2 C8          0.8150    0.5510   -0.1060 c3        1 M05      0.178300
      3 C4          2.0690    2.4280    2.1250 c3        1 M05     -0.058100
      4 C5          1.6270    0.9550    2.2700 c3        1 M05      0.161200
      5 N6          2.4760    0.3010    3.3610 n4        1 M05     -0.850600
      6 C2         -0.7820    1.2680    1.5520 c3        1 M05      0.178300
      7 C9          3.5430    2.6040    2.0240 ca        1 M05     -0.150300
      8 C10         4.3090    2.7930    3.1830 ca        1 M05     -0.128500
      9 C11         5.6840    2.9940    3.0980 ca        1 M05     -0.111500
     10 C12         6.3070    3.0100    1.8430 ca        1 M05      0.033400
     11 CL1         7.9760    3.2490    1.7360 cl        1 M05     -0.036400
     12 C14         5.5480    2.8380    0.6800 ca        1 M05     -0.111500
     13 C15         4.1720    2.6400    0.7740 ca        1 M05     -0.128500
     14 C16        -1.1970   -0.7580    0.2790 ca        1 M05      0.629200
     15 N17        -0.7490   -1.7830    1.0540 nb        1 M05     -0.791000
     16 C18        -1.3970   -2.9810    0.9500 ca        1 M05      0.646900
     17 N19        -2.4490   -3.3140    0.1740 nb        1 M05     -0.671000
     18 C20        -2.9000   -2.2840   -0.6030 ca        1 M05      0.445800
     19 N21        -3.9540   -2.2610   -1.5160 na        1 M05     -0.273100
     20 C22        -4.0270   -0.9760   -2.0680 cc        1 M05     -0.084100
     21 C23        -3.0390   -0.1530   -1.5320 cd        1 M05     -0.156200
     22 C3          1.8470    0.1760    0.9630 c3        1 M05     -0.138900
     23 C17         0.1540    0.8960    2.7070 c3        1 M05     -0.138900
     24 C24        -2.2960   -0.9460   -0.5920 ca        1 M05     -0.279400
     25 H8C1        1.0340    1.5950   -0.4760 h1        1 M05      0.080200
     26 H8C2        0.9420   -0.1570   -0.9740 h1        1 M05      0.080200
     27 H2C1       -0.6520    2.3630    1.3140 h1        1 M05      0.080200
     28 H2C2       -1.8440    1.1100    1.8970 h1        1 M05      0.080200
     29 H3C1        2.8690    0.4040    0.5590 hc        1 M05      0.077450
     30 H3C2        1.7800   -0.9300    1.1500 hc        1 M05      0.077450
     31 H4C1        1.6760    3.0200    2.9960 hc        1 M05      0.090700
     32 H4C2        1.5680    2.8290    1.2010 hc        1 M05      0.090700
     33 H6N1        2.2980    0.7670    4.2530 hn        1 M05      0.456133
     34 H6N2        2.2350   -0.6900    3.4340 hn        1 M05      0.456133
     35 H171       -0.1070   -0.1360    3.0640 hc        1 M05      0.077450
     36 H172       -0.0270    1.6130    3.5500 hc        1 M05      0.077450
     37 H10         3.8210    2.8330    4.1680 ha        1 M05      0.138000
     38 H15         3.5760    2.5280   -0.1460 ha        1 M05      0.138000
     39 H11         6.2770    3.1560    4.0130 ha        1 M05      0.168000
     40 H14         6.0330    2.8720   -0.3100 ha        1 M05      0.168000
     41 H18        -1.0020   -3.7950    1.5950 h5        1 M05      0.057100
     42 H21        -4.5420   -3.0260   -1.7320 hn        1 M05      0.325700
     43 H22        -4.7930   -0.7450   -2.8140 h4        1 M05      0.187000
     44 H23        -2.8560    0.8910   -1.7730 ha        1 M05      0.176000
     45 H4          3.4680    0.4040    3.1190 hn        1 M05      0.456133
@<TRIPOS>BOND
     1    1    2 1   
     2    1    6 1   
     3    1   14 1   
     4    2   22 1   
     5    2   25 1   
     6    2   26 1   
     7    3    4 1   
     8    3    7 1   
     9    3   31 1   
    10    3   32 1   
    11    4    5 1   
    12    4   22 1   
    13    4   23 1   
    14    5   33 1   
    15    5   34 1   
    16    5   45 1   
    17    6   23 1   
    18    6   27 1   
    19    6   28 1   
    20    7    8 ar  
    21    7   13 ar  
    22    8    9 ar  
    23    8   37 1   
    24    9   10 ar  
    25    9   39 1   
    26   10   11 1   
    27   10   12 ar  
    28   12   13 ar  
    29   12   40 1   
    30   13   38 1   
    31   14   15 ar  
    32   14   24 ar  
    33   15   16 ar  
    34   16   17 ar  
    35   16   41 1   
    36   17   18 ar  
    37   18   19 1   
    38   18   24 ar  
    39   19   20 1   
    40   19   42 1   
    41   20   21 2   
    42   20   43 1   
    43   21   24 1   
    44   21   44 1   
    45   22   29 1   
    46   22   30 1   
    47   23   35 1   
    48   23   36 1   
@<TRIPOS>SUBSTRUCTURE
     1 M05         1 TEMP              0 ****  ****    0 ROOT
