@<TRIPOS>MOLECULE
M05
   45    40     1     0     0
SMALL
bcc


@<TRIPOS>ATOM
      1 N1         -1.3400    0.6360   -0.9090 n3        1 M05     -0.200000
      2 C8          0.1310    0.5880   -0.9160 c3        1 M05     -0.086500
      3 C4          0.6190   -0.4020    2.7200 c3        1 M05     -0.140000
      4 C5          0.1200   -0.5350    1.2970 c3        1 M05     -0.015000
      5 N6          0.5490   -1.8410    0.7590 n4        1 M05     -0.072000
      6 C2         -1.9400   -0.4260   -0.0970 c3        1 M05     -0.086500
      7 C9          2.1010   -0.7000    2.7650 c2        1 M05     -0.149000
      8 C10         3.0180    0.3340    2.6560 c1        1 M05     -0.104000
      9 C11         4.3720    0.0790    2.8050 c1        1 M05     -0.111000
     10 C12         4.8100   -1.2100    3.0640 c1        1 M05     -0.044000
     11 CL1         6.5130   -1.5290    3.2650 cl        1 M05      0.043000
     12 C14         3.8940   -2.2440    3.1740 c2        1 M05     -0.114000
     13 C15         2.5400   -1.9890    3.0240 c2        1 M05     -0.150000
     14 C16        -1.8220    0.5440   -2.2370 c2        1 M05      0.105000
     15 N17        -1.6330   -0.6420   -2.8420 n2        1 M05     -0.247000
     16 C18        -2.0960   -0.8450   -4.1130 c1        1 M05     -0.010000
     17 N19        -2.7510    0.1570   -4.7700 n1        1 M05     -0.144000
     18 C20        -2.9450    1.3580   -4.1610 c1        1 M05      0.055000
     19 N21        -3.5870    2.5170   -4.5750 n1        1 M05     -0.188000
     20 C22        -3.5160    3.4220   -3.5630 c1        1 M05     -0.054000
     21 C23        -2.8370    2.8420   -2.5200 c1        1 M05     -0.174000
     22 C3          0.7160    0.5350    0.4790 c3        1 M05     -0.186000
     23 C17        -1.3640   -0.4820    1.3000 c3        1 M05     -0.186000
     24 C24        -2.4860    1.5600   -2.9010 c1        1 M05     -0.135000
     25 H8C1        0.4710    1.3840   -1.3720 h1        1 M05      0.100500
     26 H8C2        0.4190   -0.2070   -1.4100 h1        1 M05      0.100500
     27 H2C1       -1.7850   -1.2860   -0.5370 h1        1 M05      0.100500
     28 H2C2       -2.9040   -0.2710   -0.0350 h1        1 M05      0.100500
     29 H3C1        0.5600    1.3940    0.9200 hc        1 M05      0.129000
     30 H3C2        1.6800    0.3840    0.4120 hc        1 M05      0.129000
     31 H4C1        0.4600    0.5100    3.0370 hc        1 M05      0.129500
     32 H4C2        0.1410   -1.0340    3.2940 hc        1 M05      0.129500
     33 H6N1       -0.1430   -2.2210    0.2900 hn        1 M05      0.255000
     34 H6N2        1.2670   -1.7210    0.2010 hn        1 M05      0.255000
     35 H171       -1.7090   -1.2770    1.7530 hc        1 M05      0.129000
     36 H172       -1.6510    0.3130    1.7920 hc        1 M05      0.129000
     37 H10         2.7100    1.2420    2.4730 ha        1 M05      0.148000
     38 H15         1.8950   -2.7180    3.1020 ha        1 M05      0.131000
     39 H11         5.0180    0.8070    2.7280 ha        1 M05      0.170000
     40 H14         4.2020   -3.1520    3.3560 ha        1 M05      0.167000
     41 H18        -1.9580   -1.7060   -4.5510 ha        1 M05      0.201000
     42 H21        -3.9860    2.6480   -5.3840 DU        1 M05      0.212000
     43 H22        -3.9040    4.3190   -3.5660 DU        1 M05      0.212000
     44 H23        -2.6370    3.2600   -1.6610 DU        1 M05      0.212000
     45 H4          0.7890   -2.3940    1.4520 hn        1 M05      0.255000
@<TRIPOS>BOND
     1    1    2 1   
     2    1    6 1   
     3    1   14 1   
     4    2   22 1   
     5    2   25 1   
     6    2   26 1   
     7    3    4 1   
     8    3    7 1   
     9    3   31 1   
    10    3   32 1   
    11    4    5 1   
    12    4   22 1   
    13    4   23 1   
    14    5   33 1   
    15    5   34 1   
    16    5   45 1   
    17    6   23 1   
    18    6   27 1   
    19    6   28 1   
    20    7    8 1   
    21    7   13 1   
    22    8   37 1   
    23    9   10 1   
    24    9   39 1   
    25   10   12 1   
    26   12   13 1   
    27   12   40 1   
    28   13   38 1   
    29   14   15 1   
    30   14   24 1   
    31   15   16 1   
    32   16   41 1   
    33   17   18 1   
    34   19   20 1   
    35   20   21 1   
    36   21   24 1   
    37   22   29 1   
    38   22   30 1   
    39   23   35 1   
    40   23   36 1   
@<TRIPOS>SUBSTRUCTURE
     1 M05         1 TEMP              0 ****  ****    0 ROOT
