@<TRIPOS>MOLECULE
M06
   42    45     1     0     0
SMALL
bcc


@<TRIPOS>ATOM
      1 C           0.5940   -2.5600   -0.8850 cc        1 M06      0.037800
      2 N          -1.2670   -0.9770    0.5520 n         1 M06     -0.344000
      3 O           1.7740   -0.5610   -1.5050 os        1 M06     -0.217200
      4 CL          4.7390   -0.6050    2.6910 cl        1 M06     -0.079400
      5 C1         -0.5600   -3.1340   -0.2630 cc        1 M06     -0.243000
      6 C2         -1.4460   -2.3380    0.4150 cd        1 M06      0.024600
      7 C3         -0.1760   -0.3320   -0.0780 c         1 M06      0.687700
      8 C4          0.7740   -1.2030   -0.7840 cd        1 M06     -0.066100
      9 C5          2.8680   -0.1090   -0.7720 ca        1 M06      0.127100
     10 C6          1.5220   -3.4420   -1.6240 c3        1 M06     -0.073900
     11 C7          3.6820    0.8150   -1.4480 ca        1 M06     -0.107000
     12 C8          4.8370    1.2790   -0.8110 ca        1 M06      0.021000
     13 C9          5.1730    0.8420    0.4790 ca        1 M06     -0.117000
     14 C10         4.3410   -0.0710    1.1280 ca        1 M06      0.040400
     15 C11         3.1830   -0.5580    0.5140 ca        1 M06     -0.161000
     16 O12        -0.0760    0.9100    0.0000 o         1 M06     -0.650500
     17 C13        -3.2130    0.5420    0.4350 cc        1 M06     -0.158300
     18 N14        -2.8730    1.5450   -0.4700 na        1 M06      0.090800
     19 N15        -3.8930    2.0790   -1.1110 nc        1 M06     -0.226400
     20 C16        -5.0270    1.4240   -0.6390 ca        1 M06      0.266300
     21 C17        -4.6200    0.4190    0.3640 ca        1 M06     -0.220300
     22 N18        -6.3520    1.6220   -0.9970 nb        1 M06     -0.606000
     23 C19        -7.2250    0.8500   -0.3790 ca        1 M06      0.410200
     24 C20        -6.9180   -0.1510    0.6110 ca        1 M06     -0.254300
     25 C21        -5.6170   -0.3650    0.9820 ca        1 M06     -0.053000
     26 C22        -2.2350   -0.1820    1.2890 c3        1 M06      0.158200
     27 C23         5.6810    2.2100   -1.4780 cg        1 M06      0.230800
     28 N24         6.3730    2.9710   -2.0220 n1        1 M06     -0.348800
     29 H1         -0.7290   -4.2160   -0.3410 ha        1 M06      0.161000
     30 H2         -2.3500   -2.7610    0.8930 h4        1 M06      0.161000
     31 H16         1.8170   -4.3140   -0.9890 hc        1 M06      0.064033
     32 H26         1.0180   -3.8320   -2.5450 hc        1 M06      0.064033
     33 H36         2.4440   -2.8900   -1.9340 hc        1 M06      0.064033
     34 H7          3.4020    1.1580   -2.4550 ha        1 M06      0.169000
     35 H9          6.0830    1.2190    0.9700 ha        1 M06      0.162000
     36 H11         2.5270   -1.2750    1.0300 ha        1 M06      0.159000
     37 HN14       -1.9350    1.8650   -0.6450 hn        1 M06      0.357700
     38 H19        -8.2830    1.0060   -0.6630 h4        1 M06      0.024100
     39 H20        -7.7450   -0.7240    1.0500 ha        1 M06      0.143000
     40 H21        -5.3410   -1.1150    1.7360 ha        1 M06      0.129000
     41 H122       -2.8110   -0.8550    1.9860 h1        1 M06      0.086200
     42 H222       -1.6530    0.5690    1.9050 h1        1 M06      0.086200
@<TRIPOS>BOND
     1    1    5 1   
     2    1    8 2   
     3    1   10 1   
     4    2    6 1   
     5    2    7 1   
     6    2   26 1   
     7    3    8 1   
     8    3    9 1   
     9    4   14 1   
    10    5    6 2   
    11    5   29 1   
    12    6   30 1   
    13    7    8 1   
    14    7   16 2   
    15    9   11 ar  
    16    9   15 ar  
    17   10   31 1   
    18   10   32 1   
    19   10   33 1   
    20   11   12 ar  
    21   11   34 1   
    22   12   13 ar  
    23   12   27 1   
    24   13   14 ar  
    25   13   35 1   
    26   14   15 ar  
    27   15   36 1   
    28   17   18 1   
    29   17   21 2   
    30   17   26 1   
    31   18   19 1   
    32   18   37 1   
    33   19   20 2   
    34   20   21 ar  
    35   20   22 ar  
    36   21   25 ar  
    37   22   23 ar  
    38   23   24 ar  
    39   23   38 1   
    40   24   25 ar  
    41   24   39 1   
    42   25   40 1   
    43   26   41 1   
    44   26   42 1   
    45   27   28 3   
@<TRIPOS>SUBSTRUCTURE
     1 M06         1 TEMP              0 ****  ****    0 ROOT
