@<TRIPOS>MOLECULE
M06
   42    37     1     0     0
SMALL
bcc


@<TRIPOS>ATOM
      1 C          -0.5860    0.0660   -2.7760 c1        1 M06      0.040000
      2 N           0.9010   -0.1100   -0.1870 n         1 M06     -0.237000
      3 O          -2.7380    0.0580   -1.5030 os        1 M06     -0.135000
      4 CL         -5.4740    0.5200    2.7950 cl        1 M06      0.010000
      5 C1          0.8860    0.1210   -2.7630 c1        1 M06     -0.240000
      6 C2          1.6390    0.0040   -1.4470 c2        1 M06      0.021000
      7 C3         -0.5690   -0.1660   -0.1960 c2        1 M06      0.330000
      8 C4         -1.3260   -0.0480   -1.5080 c2        1 M06     -0.085000
      9 C5         -3.2530   -0.5790   -0.3550 c2        1 M06      0.060000
     10 C6         -1.3320   -0.0030   -4.0990 c3        1 M06     -0.195000
     11 C7         -3.9970   -1.6130   -0.9010 c1        1 M06     -0.110000
     12 C8         -5.1700   -2.0240   -0.2840 c1        1 M06      0.012000
     13 C9         -5.5980   -1.4010    0.8790 c1        1 M06     -0.104000
     14 C10        -4.8530   -0.3680    1.4260 c1        1 M06     -0.050000
     15 C11        -3.6800    0.0440    0.8090 c2        1 M06     -0.128000
     16 O12        -1.1800   -0.2200    0.8540 o         1 M06     -0.384000
     17 C13         3.0970    0.1440    0.8380 c1        1 M06     -0.125000
     18 N14         3.8320   -0.9770    0.6310 n2        1 M06     -0.068000
     19 N15         5.0560   -0.8010    1.2340 n2        1 M06     -0.048000
     20 C16         5.0690    0.4420    1.8170 c1        1 M06     -0.062000
     21 C17         3.8670    1.0310    1.5780 c1        1 M06     -0.155000
     22 N18         6.0600    1.1360    2.5040 n1        1 M06     -0.080000
     23 C19         5.8270    2.4010    2.9360 c1        1 M06     -0.122000
     24 C20         4.6020    3.0040    2.6940 c1        1 M06     -0.122000
     25 C21         3.6290    2.3240    2.0200 c1        1 M06     -0.052000
     26 C22         1.6190   -0.2020    1.0670 c2        1 M06      0.037000
     27 C23        -5.9900   -3.1530   -0.8870 c1        1 M06     -0.099000
     28 N24        -6.6070   -4.0020   -1.3410 n1        1 M06     -0.025000
     29 H1          1.3780    0.1970   -3.6010 ha        1 M06      0.161000
     30 H2          2.6130    0.0410   -1.4390 h4        1 M06      0.161000
     31 H16        -1.0880    0.7680   -4.6530 hc        1 M06      0.102333
     32 H26        -2.3000    0.0080   -3.9310 hc        1 M06      0.102333
     33 H36        -1.0910   -0.8320   -4.5680 hc        1 M06      0.102333
     34 H7         -3.6970   -2.0510   -1.7200 ha        1 M06      0.162000
     35 H9         -6.4260   -1.6920    1.3150 ha        1 M06      0.162000
     36 H11        -3.1790    0.8020    1.1700 ha        1 M06      0.172000
     37 HN14        3.5530   -1.7280    0.1910 DU        1 M06      0.306000
     38 H19         6.5260    2.8890    3.4200 ha        1 M06      0.152000
     39 H20         4.4360    3.9130    3.0050 ha        1 M06      0.152000
     40 H21         2.7660    2.7480    1.8490 ha        1 M06      0.130000
     41 H122        1.5480   -1.1150    1.4180 h4        1 M06      0.125500
     42 H222        1.2330    0.4260    1.7110 h4        1 M06      0.125500
@<TRIPOS>BOND
     1    1    8 1   
     2    1   10 1   
     3    2    6 1   
     4    2    7 1   
     5    2   26 1   
     6    3    8 1   
     7    3    9 1   
     8    4   14 1   
     9    5    6 1   
    10    5   29 1   
    11    6   30 1   
    12    7    8 1   
    13    7   16 1   
    14    9   11 1   
    15    9   15 1   
    16   10   31 1   
    17   10   32 1   
    18   10   33 1   
    19   11   34 1   
    20   12   13 1   
    21   12   27 1   
    22   13   35 1   
    23   14   15 1   
    24   15   36 1   
    25   17   18 1   
    26   17   21 1   
    27   18   19 1   
    28   19   20 1   
    29   20   22 1   
    30   21   25 1   
    31   23   24 1   
    32   23   38 1   
    33   24   39 1   
    34   25   40 1   
    35   26   41 1   
    36   26   42 1   
    37   27   28 1   
@<TRIPOS>SUBSTRUCTURE
     1 M06         1 TEMP              0 ****  ****    0 ROOT
