@<TRIPOS>MOLECULE
M06
   42    45     1     0     0
SMALL
bcc


@<TRIPOS>ATOM
      1 C          -0.1540    0.4350   -0.2250 cc        1 M06      0.037800
      2 N           1.5470    0.0120    2.0020 n         1 M06     -0.344000
      3 O          -2.0590    0.1740    1.2150 os        1 M06     -0.217200
      4 CL         -2.2100    5.1520    2.4790 cl        1 M06     -0.079400
      5 C1          1.2680    0.3570   -0.3680 cc        1 M06     -0.243000
      6 C2          2.0610    0.1410    0.7280 cd        1 M06      0.024600
      7 C3          0.1480    0.0290    2.2140 c         1 M06      0.687700
      8 C4         -0.6850    0.2810    1.0310 cd        1 M06     -0.066100
      9 C5         -2.6920    1.2770    1.7840 ca        1 M06      0.127100
     10 C6         -0.9840    0.6520   -1.4300 c3        1 M06     -0.073900
     11 C7         -3.9890    1.0230    2.2600 ca        1 M06     -0.107000
     12 C8         -4.7230    2.0850    2.7950 ca        1 M06      0.021000
     13 C9         -4.1760    3.3760    2.8670 ca        1 M06     -0.117000
     14 C10        -2.8810    3.5950    2.3930 ca        1 M06      0.040400
     15 C11        -2.1260    2.5530    1.8470 ca        1 M06     -0.161000
     16 O12        -0.2950   -0.1610    3.3650 o         1 M06     -0.650500
     17 C13         2.5300   -1.6250    3.5710 cc        1 M06     -0.158300
     18 N14         1.4650   -2.3580    4.0900 na        1 M06      0.090800
     19 N15         1.7650   -3.5910    4.4450 nc        1 M06     -0.226400
     20 C16         3.1200   -3.7520    4.1670 ca        1 M06      0.266300
     21 C17         3.6450   -2.4940    3.5960 ca        1 M06     -0.220300
     22 N18         3.9170   -4.8690    4.3620 nb        1 M06     -0.606000
     23 C19         5.1790   -4.7310    4.0040 ca        1 M06      0.410200
     24 C20         5.7760   -3.5450    3.4440 ca        1 M06     -0.254300
     25 C21         5.0090   -2.4280    3.2420 ca        1 M06     -0.053000
     26 C22         2.4360   -0.2090    3.1310 c3        1 M06      0.158200
     27 C23        -6.0420    1.8570    3.2760 cg        1 M06      0.230800
     28 N24        -7.1210    1.6710    3.6700 n1        1 M06     -0.348800
     29 H1          1.7130    0.4660   -1.3660 ha        1 M06      0.161000
     30 H2          3.1620    0.0660    0.6370 h4        1 M06      0.161000
     31 H16        -0.6030    1.5290   -2.0100 hc        1 M06      0.064033
     32 H26        -0.9350   -0.2530   -2.0880 hc        1 M06      0.064033
     33 H36        -2.0530    0.8320   -1.1570 hc        1 M06      0.064033
     34 H7         -4.4040    0.0060    2.2060 ha        1 M06      0.169000
     35 H9         -4.7640    4.2020    3.2960 ha        1 M06      0.162000
     36 H11        -1.1040    2.7290    1.4780 ha        1 M06      0.159000
     37 HN14        0.5290   -2.0070    4.2020 hn        1 M06      0.357700
     38 H19         5.8170   -5.6220    4.1590 h4        1 M06      0.024100
     39 H20         6.8440   -3.5660    3.1920 ha        1 M06      0.143000
     40 H21         5.4270   -1.5020    2.8210 ha        1 M06      0.129000
     41 H122        3.4720    0.1430    2.8590 h1        1 M06      0.086200
     42 H222        2.0510    0.4220    3.9900 h1        1 M06      0.086200
@<TRIPOS>BOND
     1    1    5 1   
     2    1    8 2   
     3    1   10 1   
     4    2    6 1   
     5    2    7 1   
     6    2   26 1   
     7    3    8 1   
     8    3    9 1   
     9    4   14 1   
    10    5    6 2   
    11    5   29 1   
    12    6   30 1   
    13    7    8 1   
    14    7   16 2   
    15    9   11 ar  
    16    9   15 ar  
    17   10   31 1   
    18   10   32 1   
    19   10   33 1   
    20   11   12 ar  
    21   11   34 1   
    22   12   13 ar  
    23   12   27 1   
    24   13   14 ar  
    25   13   35 1   
    26   14   15 ar  
    27   15   36 1   
    28   17   18 1   
    29   17   21 2   
    30   17   26 1   
    31   18   19 1   
    32   18   37 1   
    33   19   20 2   
    34   20   21 ar  
    35   20   22 ar  
    36   21   25 ar  
    37   22   23 ar  
    38   23   24 ar  
    39   23   38 1   
    40   24   25 ar  
    41   24   39 1   
    42   25   40 1   
    43   26   41 1   
    44   26   42 1   
    45   27   28 3   
@<TRIPOS>SUBSTRUCTURE
     1 M06         1 TEMP              0 ****  ****    0 ROOT
