@<TRIPOS>MOLECULE
M06
   42    44     1     0     0
SMALL
bcc


@<TRIPOS>ATOM
      1 C          -0.3790    1.2650   -1.1150 cc        1 M06      0.035800
      2 N           1.7840    0.0010    0.2970 n         1 M06     -0.237600
      3 O          -1.9310    0.3630    0.4770 os        1 M06     -0.221200
      4 CL         -1.5710    4.4330    3.5920 cl        1 M06     -0.071400
      5 C1          0.9820    1.3150   -1.5900 cc        1 M06     -0.215000
      6 C2          1.9870    0.7090   -0.9080 cd        1 M06      0.027600
      7 C3          0.4350   -0.0740    0.8190 c         1 M06      0.646700
      8 C4         -0.6290    0.5950    0.0490 cd        1 M06     -0.058100
      9 C5         -2.3720    1.1250    1.5570 ca        1 M06      0.122100
     10 C6         -1.4300    1.9220   -1.9180 c3        1 M06     -0.076900
     11 C7         -3.5430    0.6460    2.1670 ca        1 M06     -0.108000
     12 C8         -4.0910    1.3780    3.2250 ca        1 M06      0.022000
     13 C9         -3.4820    2.5590    3.6750 ca        1 M06     -0.115000
     14 C10        -2.3150    3.0060    3.0530 ca        1 M06      0.041400
     15 C11        -1.7480    2.2990    1.9880 ca        1 M06     -0.163000
     16 O12         0.2450   -0.6920    1.8780 o         1 M06     -0.585500
     17 C13         1.7230   -2.4990    4.2930 cc        1 M06     -0.142100
     18 N14         1.0180   -3.0290    5.3620 na        1 M06      0.052800
     19 N15         1.7540   -3.6970    6.2440 nc        1 M06     -0.254400
     20 C16         3.0540   -3.6340    5.7690 ca        1 M06      0.275300
     21 C17         3.0700   -2.8640    4.5040 ca        1 M06     -0.253300
     22 N18         4.2090   -4.1730    6.3210 nb        1 M06     -0.619000
     23 C19         5.3150   -3.9520    5.6410 ca        1 M06      0.417200
     24 C20         5.4220   -3.2160    4.4060 ca        1 M06     -0.271300
     25 C21         4.3000   -2.6720    3.8390 ca        1 M06     -0.037000
     26 C22         2.8420   -0.5630    0.8820 c1        1 M06      0.003500
     27 C23        -5.2790    0.9160    3.8560 cg        1 M06      0.227800
     28 N24        -6.2520    0.5400    4.3720 n1        1 M06     -0.342800
     29 H1          1.1900    1.8540   -2.5260 ha        1 M06      0.167000
     30 H2          3.0420    0.7220   -1.2460 h4        1 M06      0.192000
     31 H16        -2.4180    1.8960   -1.3930 hc        1 M06      0.068367
     32 H26        -1.1530    2.9880   -2.1180 hc        1 M06      0.068367
     33 H36        -1.5370    1.3960   -2.9010 hc        1 M06      0.068367
     34 H7         -4.0080   -0.2840    1.8090 ha        1 M06      0.169000
     35 H9         -3.9220    3.1230    4.5130 ha        1 M06      0.164000
     36 H11        -0.8270    2.6540    1.5020 ha        1 M06      0.159000
     37 HN14        0.0360   -2.9490    5.5120 hn        1 M06      0.326700
     38 H19         6.2370   -4.3810    6.0790 h4        1 M06      0.020100
     39 H20         6.4120   -3.1070    3.9450 ha        1 M06      0.141000
     40 H21         4.3370   -2.1040    2.8970 ha        1 M06      0.140000
     41 H122        1.2450   -1.9270    3.4950 h4        1 M06      0.202000
     42 H222        2.6240   -1.1140    1.8250 ha        1 M06      0.015500
@<TRIPOS>BOND
     1    1    5 1   
     2    1    8 2   
     3    1   10 1   
     4    2    6 1   
     5    2    7 1   
     6    2   26 3   
     7    3    8 1   
     8    3    9 1   
     9    4   14 1   
    10    5    6 2   
    11    5   29 1   
    12    6   30 1   
    13    7    8 1   
    14    7   16 2   
    15    9   11 ar  
    16    9   15 ar  
    17   10   31 1   
    18   10   32 1   
    19   10   33 1   
    20   11   12 ar  
    21   11   34 1   
    22   12   13 ar  
    23   12   27 1   
    24   13   14 ar  
    25   13   35 1   
    26   14   15 ar  
    27   15   36 1   
    28   17   18 1   
    29   17   21 2   
    30   17   41 1   
    31   18   19 1   
    32   18   37 1   
    33   19   20 2   
    34   20   21 ar  
    35   20   22 ar  
    36   21   25 ar  
    37   22   23 ar  
    38   23   24 ar  
    39   23   38 1   
    40   24   25 ar  
    41   24   39 1   
    42   25   40 1   
    43   26   42 1   
    44   27   28 3   
@<TRIPOS>SUBSTRUCTURE
     1 M06         1 TEMP              0 ****  ****    0 ROOT
