@<TRIPOS>MOLECULE
M07
   42    44     1     0     0
SMALL
bcc


@<TRIPOS>ATOM
      1 C15         0.1610    0.9750    0.0330 c3        1 M07      0.112700
      2 O8          1.5370    0.6130    0.0880 os        1 M07     -0.324900
      3 C12         2.0480    0.3480    1.3420 ca        1 M07      0.139100
      4 C11         1.3120    0.4100    2.5300 ca        1 M07     -0.186500
      5 C10         1.9390    0.1190    3.7400 ca        1 M07     -0.069500
      6 C13         3.4120   -0.0040    1.3620 ca        1 M07     -0.186500
      7 C14         4.0210   -0.2900    2.5750 ca        1 M07     -0.069500
      8 C9          3.2950   -0.2320    3.7770 ca        1 M07     -0.149900
      9 C8          3.9570   -0.5350    5.0350 ce        1 M07      0.353900
     10 C7          5.4450   -0.8550    5.1060 c3        1 M07     -0.148700
     11 N1          3.3930   -0.5740    6.2340 n2        1 M07     -0.353200
     12 O7          4.2590   -0.8770    7.1740 os        1 M07     -0.162300
     13 C1          5.6210   -1.0410    6.6300 c3        1 M07      0.300600
     14 O5          6.3410    0.0530    7.1470 os        1 M07     -0.421600
     15 C5          6.4590    0.0810    8.5790 c3        1 M07      0.103100
     16 C6          7.3320    1.3000    8.8890 c3        1 M07      0.140400
     17 O6          6.6500    2.5040    8.6210 oh        1 M07     -0.591800
     18 C4          7.1160   -1.2100    9.0910 c3        1 M07      0.123100
     19 O4          7.1290   -1.1450   10.5050 oh        1 M07     -0.589800
     20 C3          6.2870   -2.4140    8.6100 c3        1 M07      0.064100
     21 O3          6.9590   -3.5870    9.0410 oh        1 M07     -0.605800
     22 C2          6.2220   -2.3790    7.0750 c3        1 M07      0.107100
     23 O2          5.4100   -3.4210    6.5680 oh        1 M07     -0.579800
     24 H151       -0.0230    1.9140    0.6090 h1        1 M07      0.046700
     25 H152       -0.4800    0.1460    0.4180 h1        1 M07      0.046700
     26 H153       -0.0200    1.1390   -1.0600 h1        1 M07      0.046700
     27 H11         0.2480    0.6840    2.5250 ha        1 M07      0.147000
     28 H10         1.3530    0.1700    4.6720 ha        1 M07      0.144000
     29 H13         3.9730   -0.0480    0.4180 ha        1 M07      0.147000
     30 H14         5.0870   -0.5670    2.5890 ha        1 M07      0.144000
     31 H71         6.0690   -0.0130    4.7230 hc        1 M07      0.093200
     32 H72         5.6860   -1.8000    4.5650 hc        1 M07      0.093200
     33 H5          5.4360    0.2020    9.0290 h1        1 M07      0.095700
     34 H61         7.5540    1.3170    9.9900 h1        1 M07      0.062700
     35 H62         8.2840    1.2500    8.2970 h1        1 M07      0.062700
     36 HO6         6.3720    2.4750    7.6970 ho        1 M07      0.411000
     37 H4          8.1690   -1.2990    8.7040 h1        1 M07      0.057700
     38 HO4         7.4610   -2.0000   10.8110 ho        1 M07      0.421000
     39 H3          5.2470   -2.3620    9.0360 h1        1 M07      0.087700
     40 HO3         6.2860   -4.2670    9.1620 ho        1 M07      0.413000
     41 H2          7.2620   -2.4600    6.6480 h1        1 M07      0.064700
     42 HO2         5.8480   -4.2460    6.8160 ho        1 M07      0.411000
@<TRIPOS>BOND
     1    1    2 1   
     2    1   24 1   
     3    1   25 1   
     4    1   26 1   
     5    2    3 1   
     6    3    4 ar  
     7    3    6 ar  
     8    4    5 ar  
     9    4   27 1   
    10    5    8 ar  
    11    5   28 1   
    12    6    7 ar  
    13    6   29 1   
    14    7    8 ar  
    15    7   30 1   
    16    8    9 1   
    17    9   10 1   
    18    9   11 2   
    19   10   13 1   
    20   10   31 1   
    21   10   32 1   
    22   11   12 1   
    23   12   13 1   
    24   13   14 1   
    25   13   22 1   
    26   14   15 1   
    27   15   16 1   
    28   15   18 1   
    29   15   33 1   
    30   16   17 1   
    31   16   34 1   
    32   16   35 1   
    33   17   36 1   
    34   18   19 1   
    35   18   20 1   
    36   18   37 1   
    37   19   38 1   
    38   20   21 1   
    39   20   22 1   
    40   20   39 1   
    41   21   40 1   
    42   22   23 1   
    43   22   41 1   
    44   23   42 1   
@<TRIPOS>SUBSTRUCTURE
     1 M07         1 TEMP              0 ****  ****    0 ROOT
