@<TRIPOS>MOLECULE
M07
   42    44     1     0     0
SMALL
bcc


@<TRIPOS>ATOM
      1 C15         0.1520    0.9880    0.0430 c3        1 M07      0.112700
      2 O8          1.5280    0.6260    0.0950 os        1 M07     -0.324900
      3 C12         2.0410    0.3580    1.3470 ca        1 M07      0.139100
      4 C11         1.3080    0.4170    2.5370 ca        1 M07     -0.186500
      5 C10         1.9380    0.1240    3.7450 ca        1 M07     -0.069500
      6 C13         3.4050    0.0060    1.3640 ca        1 M07     -0.186500
      7 C14         4.0170   -0.2820    2.5740 ca        1 M07     -0.069500
      8 C9          3.2940   -0.2270    3.7790 ca        1 M07     -0.149900
      9 C8          3.9590   -0.5330    5.0340 ce        1 M07      0.353900
     10 C7          5.4480   -0.8500    5.1010 c3        1 M07     -0.148700
     11 N1          3.3970   -0.5760    6.2340 n2        1 M07     -0.353200
     12 O7          4.2650   -0.8810    7.1720 os        1 M07     -0.162300
     13 C1          5.6260   -1.0410    6.6250 c3        1 M07      0.300600
     14 O5          6.3450    0.0530    7.1440 os        1 M07     -0.421600
     15 C5          6.4660    0.0770    8.5750 c3        1 M07      0.103100
     16 C6          7.3370    1.2960    8.8880 c3        1 M07      0.140400
     17 O6          6.6520    2.5010    8.6250 oh        1 M07     -0.591800
     18 C4          7.1250   -1.2150    9.0820 c3        1 M07      0.123100
     19 O4          7.1410   -1.1530   10.4970 oh        1 M07     -0.589800
     20 C3          6.2980   -2.4180    8.5990 c3        1 M07      0.064100
     21 O3          6.9730   -3.5920    9.0260 oh        1 M07     -0.605800
     22 C2          6.2300   -2.3790    7.0650 c3        1 M07      0.107100
     23 O2          5.4190   -3.4210    6.5560 oh        1 M07     -0.579800
     24 H151       -0.0320    1.1540   -1.0490 h1        1 M07      0.046700
     25 H152       -0.4880    0.1570    0.4290 h1        1 M07      0.046700
     26 H153       -0.0320    1.9250    0.6220 h1        1 M07      0.046700
     27 H11         0.2440    0.6910    2.5340 ha        1 M07      0.147000
     28 H10         1.3530    0.1730    4.6780 ha        1 M07      0.144000
     29 H13         3.9650   -0.0350    0.4180 ha        1 M07      0.147000
     30 H14         5.0830   -0.5580    2.5860 ha        1 M07      0.144000
     31 H71         5.6890   -1.7930    4.5570 hc        1 M07      0.093200
     32 H72         6.0700   -0.0060    4.7200 hc        1 M07      0.093200
     33 H5          5.4430    0.1950    9.0280 h1        1 M07      0.095700
     34 H61         7.5600    1.3110    9.9890 h1        1 M07      0.062700
     35 H62         8.2880    1.2500    8.2950 h1        1 M07      0.062700
     36 HO6         6.3720    2.4740    7.7010 ho        1 M07      0.411000
     37 H4          8.1780   -1.3010    8.6940 h1        1 M07      0.057700
     38 HO4         7.4740   -2.0090   10.8000 ho        1 M07      0.421000
     39 H3          5.2590   -2.3700    9.0280 h1        1 M07      0.087700
     40 HO3         6.3010   -4.2730    9.1460 ho        1 M07      0.413000
     41 H2          7.2700   -2.4570    6.6360 h1        1 M07      0.064700
     42 HO2         5.8590   -4.2450    6.8010 ho        1 M07      0.411000
@<TRIPOS>BOND
     1    1    2 1   
     2    1   24 1   
     3    1   25 1   
     4    1   26 1   
     5    2    3 1   
     6    3    4 ar  
     7    3    6 ar  
     8    4    5 ar  
     9    4   27 1   
    10    5    8 ar  
    11    5   28 1   
    12    6    7 ar  
    13    6   29 1   
    14    7    8 ar  
    15    7   30 1   
    16    8    9 1   
    17    9   10 1   
    18    9   11 2   
    19   10   13 1   
    20   10   31 1   
    21   10   32 1   
    22   11   12 1   
    23   12   13 1   
    24   13   14 1   
    25   13   22 1   
    26   14   15 1   
    27   15   16 1   
    28   15   18 1   
    29   15   33 1   
    30   16   17 1   
    31   16   34 1   
    32   16   35 1   
    33   17   36 1   
    34   18   19 1   
    35   18   20 1   
    36   18   37 1   
    37   19   38 1   
    38   20   21 1   
    39   20   22 1   
    40   20   39 1   
    41   21   40 1   
    42   22   23 1   
    43   22   41 1   
    44   23   42 1   
@<TRIPOS>SUBSTRUCTURE
     1 M07         1 TEMP              0 ****  ****    0 ROOT
