@<TRIPOS>MOLECULE
M07
   42    44     1     0     0
SMALL
bcc


@<TRIPOS>ATOM
      1 C15         7.4160   -0.6920    0.5860 c3        1 M07      0.112700
      2 O8          6.5620   -0.5870   -0.5480 os        1 M07     -0.324900
      3 C12         5.2190   -0.4080   -0.2860 ca        1 M07      0.138100
      4 C11         4.6610   -0.3360    0.9950 ca        1 M07     -0.186000
      5 C10         3.2870   -0.1530    1.1350 ca        1 M07     -0.069000
      6 C13         4.4030   -0.2960   -1.4290 ca        1 M07     -0.186000
      7 C14         3.0370   -0.1150   -1.2730 ca        1 M07     -0.069000
      8 C9          2.4610   -0.0420    0.0080 ca        1 M07     -0.148900
      9 C8          1.0270    0.1480    0.1440 ce        1 M07      0.355900
     10 C7          0.1070    0.2400   -1.0670 c3        1 M07     -0.147700
     11 N1          0.3520    0.2630    1.2790 n2        1 M07     -0.357200
     12 O7         -0.9350    0.4280    1.0690 os        1 M07     -0.164300
     13 C1         -1.2650    0.3860   -0.3690 c3        1 M07      0.293600
     14 O5         -1.9820   -0.8190   -0.5230 os        1 M07     -0.406600
     15 C5         -3.2170   -0.8700    0.2010 c3        1 M07      0.073100
     16 C6         -3.8310   -2.2290   -0.1540 c3        1 M07      0.125400
     17 O6         -4.9670   -2.4820    0.6480 oh        1 M07     -0.604800
     18 C4         -4.1370    0.2950   -0.1940 c3        1 M07      0.090100
     19 O4         -5.2840    0.3480    0.6370 oh        1 M07     -0.609800
     20 C3         -3.4030    1.6290    0.0210 c3        1 M07      0.108100
     21 O3         -4.1620    2.7180   -0.4740 oh        1 M07     -0.609800
     22 C2         -2.0900    1.6110   -0.7770 c3        1 M07      0.143100
     23 O2         -1.3090    2.7650   -0.5410 oh        1 M07     -0.587800
     24 H151        7.1410   -1.5800    1.2050 h1        1 M07      0.046700
     25 H152        8.4320   -0.8230    0.1340 h1        1 M07      0.046700
     26 H153        7.3740    0.2420    1.1980 h1        1 M07      0.046700
     27 H11         5.2900   -0.4200    1.8920 ha        1 M07      0.146500
     28 H10         2.8560   -0.0960    2.1470 ha        1 M07      0.144000
     29 H13         4.8600   -0.3540   -2.4270 ha        1 M07      0.146500
     30 H14         2.4010   -0.0260   -2.1670 ha        1 M07      0.144000
     31 H71         0.3310    1.1450   -1.6820 hc        1 M07      0.095200
     32 H72         0.1510   -0.6820   -1.6930 hc        1 M07      0.095200
     33 H5         -3.0020   -0.8140    1.3050 h1        1 M07      0.077700
     34 H61        -4.2150   -2.2320   -1.2090 h1        1 M07      0.066700
     35 H62        -3.0620   -3.0350   -0.0310 h1        1 M07      0.066700
     36 HO6        -4.6650   -2.5770    1.5600 ho        1 M07      0.411000
     37 H4         -4.4480    0.1980   -1.2710 h1        1 M07      0.057700
     38 HO4        -5.7560   -0.4900    0.5260 ho        1 M07      0.432000
     39 H3         -3.1890    1.7780    1.1160 h1        1 M07      0.081700
     40 HO3        -5.0210    2.6760   -0.0330 ho        1 M07      0.431000
     41 H2         -2.3170    1.5370   -1.8790 h1        1 M07      0.065700
     42 HO2        -1.9220    3.5140   -0.5220 ho        1 M07      0.431000
@<TRIPOS>BOND
     1    1    2 1   
     2    1   24 1   
     3    1   25 1   
     4    1   26 1   
     5    2    3 1   
     6    3    4 ar  
     7    3    6 ar  
     8    4    5 ar  
     9    4   27 1   
    10    5    8 ar  
    11    5   28 1   
    12    6    7 ar  
    13    6   29 1   
    14    7    8 ar  
    15    7   30 1   
    16    8    9 1   
    17    9   10 1   
    18    9   11 2   
    19   10   13 1   
    20   10   31 1   
    21   10   32 1   
    22   11   12 1   
    23   12   13 1   
    24   13   14 1   
    25   13   22 1   
    26   14   15 1   
    27   15   16 1   
    28   15   18 1   
    29   15   33 1   
    30   16   17 1   
    31   16   34 1   
    32   16   35 1   
    33   17   36 1   
    34   18   19 1   
    35   18   20 1   
    36   18   37 1   
    37   19   38 1   
    38   20   21 1   
    39   20   22 1   
    40   20   39 1   
    41   21   40 1   
    42   22   23 1   
    43   22   41 1   
    44   23   42 1   
@<TRIPOS>SUBSTRUCTURE
     1 M07         1 TEMP              0 ****  ****    0 ROOT
