@<TRIPOS>MOLECULE
M07
   42    44     1     0     0
SMALL
bcc


@<TRIPOS>ATOM
      1 C15         0.1700    0.9830    0.0270 c3        1 M07      0.112700
      2 O8          1.5440    0.6160    0.0840 os        1 M07     -0.324900
      3 C12         2.0540    0.3510    1.3380 ca        1 M07      0.139100
      4 C11         1.3170    0.4180    2.5270 ca        1 M07     -0.186500
      5 C10         1.9430    0.1270    3.7380 ca        1 M07     -0.069500
      6 C13         3.4160   -0.0070    1.3610 ca        1 M07     -0.186500
      7 C14         4.0240   -0.2930    2.5740 ca        1 M07     -0.069500
      8 C9          3.2970   -0.2300    3.7760 ca        1 M07     -0.149900
      9 C8          3.9570   -0.5330    5.0340 ce        1 M07      0.353900
     10 C7          5.4440   -0.8590    5.1070 c3        1 M07     -0.148700
     11 N1          3.3930   -0.5660    6.2330 n2        1 M07     -0.353200
     12 O7          4.2570   -0.8720    7.1750 os        1 M07     -0.162300
     13 C1          5.6180   -1.0430    6.6320 c3        1 M07      0.300600
     14 O5          6.3430    0.0490    7.1470 os        1 M07     -0.421600
     15 C5          6.4610    0.0790    8.5780 c3        1 M07      0.103100
     16 C6          7.3390    1.2950    8.8850 c3        1 M07      0.140400
     17 O6          6.6640    2.5020    8.6150 oh        1 M07     -0.591800
     18 C4          7.1110   -1.2140    9.0930 c3        1 M07      0.123100
     19 O4          7.1230   -1.1450   10.5070 oh        1 M07     -0.589800
     20 C3          6.2770   -2.4140    8.6150 c3        1 M07      0.064100
     21 O3          6.9430   -3.5900    9.0500 oh        1 M07     -0.605800
     22 C2          6.2130   -2.3830    7.0800 c3        1 M07      0.107100
     23 O2          5.3960   -3.4220    6.5750 oh        1 M07     -0.579800
     24 H151       -0.4750    0.1570    0.4140 h1        1 M07      0.046700
     25 H152       -0.0090    1.1450   -1.0660 h1        1 M07      0.046700
     26 H153       -0.0110    1.9240    0.6010 h1        1 M07      0.046700
     27 H11         0.2540    0.6960    2.5200 ha        1 M07      0.147000
     28 H10         1.3560    0.1820    4.6690 ha        1 M07      0.144000
     29 H13         3.9770   -0.0550    0.4170 ha        1 M07      0.147000
     30 H14         5.0880   -0.5740    2.5890 ha        1 M07      0.144000
     31 H71         6.0720   -0.0210    4.7230 hc        1 M07      0.093200
     32 H72         5.6810   -1.8070    4.5680 hc        1 M07      0.093200
     33 H5          5.4380    0.2060    9.0270 h1        1 M07      0.095700
     34 H61         8.2920    1.2390    8.2950 h1        1 M07      0.062700
     35 H62         7.5600    1.3140    9.9870 h1        1 M07      0.062700
     36 HO6         6.3860    2.4720    7.6900 ho        1 M07      0.411000
     37 H4          8.1640   -1.3080    8.7080 h1        1 M07      0.057700
     38 HO4         7.4510   -2.0010   10.8160 ho        1 M07      0.421000
     39 H3          5.2370   -2.3570    9.0410 h1        1 M07      0.087700
     40 HO3         6.2660   -4.2660    9.1710 ho        1 M07      0.413000
     41 H2          7.2530   -2.4700    6.6540 h1        1 M07      0.064700
     42 HO2         5.8300   -4.2480    6.8250 ho        1 M07      0.411000
@<TRIPOS>BOND
     1    1    2 1   
     2    1   24 1   
     3    1   25 1   
     4    1   26 1   
     5    2    3 1   
     6    3    4 ar  
     7    3    6 ar  
     8    4    5 ar  
     9    4   27 1   
    10    5    8 ar  
    11    5   28 1   
    12    6    7 ar  
    13    6   29 1   
    14    7    8 ar  
    15    7   30 1   
    16    8    9 1   
    17    9   10 1   
    18    9   11 2   
    19   10   13 1   
    20   10   31 1   
    21   10   32 1   
    22   11   12 1   
    23   12   13 1   
    24   13   14 1   
    25   13   22 1   
    26   14   15 1   
    27   15   16 1   
    28   15   18 1   
    29   15   33 1   
    30   16   17 1   
    31   16   34 1   
    32   16   35 1   
    33   17   36 1   
    34   18   19 1   
    35   18   20 1   
    36   18   37 1   
    37   19   38 1   
    38   20   21 1   
    39   20   22 1   
    40   20   39 1   
    41   21   40 1   
    42   22   23 1   
    43   22   41 1   
    44   23   42 1   
@<TRIPOS>SUBSTRUCTURE
     1 M07         1 TEMP              0 ****  ****    0 ROOT
