@<TRIPOS>MOLECULE
M08
   38    40     1     0     0
SMALL
bcc


@<TRIPOS>ATOM
      1 C10        -0.1950    0.5390    0.0410 ca        1 M08     -0.104000
      2 C11         1.1530    0.8970    0.0580 ca        1 M08     -0.134500
      3 C12         1.8900    0.8080    1.2370 ca        1 M08     -0.116000
      4 C13         1.2760    0.3580    2.4070 ca        1 M08     -0.134500
      5 C14        -0.0700   -0.0010    2.3980 ca        1 M08     -0.104000
      6 C9         -0.8180    0.0870    1.2140 ca        1 M08     -0.111900
      7 C8         -2.2230   -0.2900    1.2180 ce        1 M08      0.344900
      8 C7         -2.9390   -0.7170    2.4940 c3        1 M08     -0.147700
      9 N1         -3.0360   -0.3140    0.1720 n2        1 M08     -0.345200
     10 O7         -4.2480   -0.6980    0.5010 os        1 M08     -0.161300
     11 C1         -4.3680   -0.9490    1.9510 c3        1 M08      0.300600
     12 O5         -5.2090    0.0790    2.4170 os        1 M08     -0.421600
     13 C5         -6.5400    0.0660    1.8780 c3        1 M08      0.103100
     14 C6         -7.2720    1.2120    2.5820 c3        1 M08      0.140400
     15 O6         -6.7920    2.4680    2.1620 oh        1 M08     -0.591800
     16 C4         -7.2240   -1.2800    2.1600 c3        1 M08      0.122100
     17 O4         -8.4950   -1.2460    1.5360 oh        1 M08     -0.589800
     18 C3         -6.3600   -2.4090    1.5720 c3        1 M08      0.064100
     19 O3         -6.9850   -3.6370    1.9100 oh        1 M08     -0.605800
     20 C2         -4.9640   -2.3360    2.2100 c3        1 M08      0.107100
     21 O2         -4.0920   -3.3040    1.6570 oh        1 M08     -0.579800
     22 H10        -0.7650    0.6150   -0.8980 ha        1 M08      0.142000
     23 H11         1.6330    1.2510   -0.8660 ha        1 M08      0.135500
     24 H12         2.9530    1.0910    1.2470 ha        1 M08      0.134000
     25 H13         1.8550    0.2850    3.3390 ha        1 M08      0.135500
     26 H14        -0.5440   -0.3560    3.3250 ha        1 M08      0.142000
     27 H71        -2.5150   -1.6660    2.9010 hc        1 M08      0.093700
     28 H72        -2.9210    0.0850    3.2680 hc        1 M08      0.093700
     29 H5         -6.4890    0.2520    0.7700 h1        1 M08      0.095700
     30 H61        -7.1690    1.1060    3.6950 h1        1 M08      0.063200
     31 H62        -8.3550    1.1880    2.2840 h1        1 M08      0.063200
     32 HO6        -5.8410    2.4810    2.3300 ho        1 M08      0.411000
     33 H4         -7.3480   -1.4370    3.2670 h1        1 M08      0.057700
     34 HO4        -8.8730   -2.1300    1.6470 ho        1 M08      0.421000
     35 H3         -6.2760   -2.2910    0.4570 h1        1 M08      0.087700
     36 HO3        -6.7600   -4.2670    1.2150 ho        1 M08      0.413000
     37 H2         -5.0460   -2.4850    3.3240 h1        1 M08      0.065700
     38 HO2        -4.4700   -4.1650    1.8850 ho        1 M08      0.411000
@<TRIPOS>BOND
     1    1    2 ar  
     2    1    6 ar  
     3    1   22 1   
     4    2    3 ar  
     5    2   23 1   
     6    3    4 ar  
     7    3   24 1   
     8    4    5 ar  
     9    4   25 1   
    10    5    6 ar  
    11    5   26 1   
    12    6    7 1   
    13    7    8 1   
    14    7    9 2   
    15    8   11 1   
    16    8   27 1   
    17    8   28 1   
    18    9   10 1   
    19   10   11 1   
    20   11   12 1   
    21   11   20 1   
    22   12   13 1   
    23   13   14 1   
    24   13   16 1   
    25   13   29 1   
    26   14   15 1   
    27   14   30 1   
    28   14   31 1   
    29   15   32 1   
    30   16   17 1   
    31   16   18 1   
    32   16   33 1   
    33   17   34 1   
    34   18   19 1   
    35   18   20 1   
    36   18   35 1   
    37   19   36 1   
    38   20   21 1   
    39   20   37 1   
    40   21   38 1   
@<TRIPOS>SUBSTRUCTURE
     1 M08         1 TEMP              0 ****  ****    0 ROOT
