@<TRIPOS>MOLECULE
M08
   38    40     1     0     0
SMALL
bcc


@<TRIPOS>ATOM
      1 C10        -0.2050    0.5280    0.0130 ca        1 M08     -0.104000
      2 C11         1.1400    0.8920    0.0190 ca        1 M08     -0.134500
      3 C12         1.8820    0.8250    1.1980 ca        1 M08     -0.116000
      4 C13         1.2740    0.3910    2.3760 ca        1 M08     -0.134500
      5 C14        -0.0700    0.0250    2.3770 ca        1 M08     -0.104000
      6 C9         -0.8230    0.0910    1.1940 ca        1 M08     -0.111900
      7 C8         -2.2250   -0.2930    1.2090 ce        1 M08      0.344900
      8 C7         -2.9360   -0.7000    2.4940 c3        1 M08     -0.147700
      9 N1         -3.0410   -0.3390    0.1660 n2        1 M08     -0.345200
     10 O7         -4.2500   -0.7230    0.5050 os        1 M08     -0.161300
     11 C1         -4.3650   -0.9480    1.9600 c3        1 M08      0.300600
     12 O5         -5.2100    0.0840    2.4090 os        1 M08     -0.421600
     13 C5         -6.5430    0.0550    1.8740 c3        1 M08      0.103100
     14 C6         -7.2780    1.2100    2.5590 c3        1 M08      0.140400
     15 O6         -6.8050    2.4610    2.1150 oh        1 M08     -0.591800
     16 C4         -7.2200   -1.2890    2.1820 c3        1 M08      0.122100
     17 O4         -8.4920   -1.2720    1.5610 oh        1 M08     -0.589800
     18 C3         -6.3520   -2.4250    1.6130 c3        1 M08      0.064100
     19 O3         -6.9700   -3.6490    1.9740 oh        1 M08     -0.605800
     20 C2         -4.9540   -2.3340    2.2450 c3        1 M08      0.107100
     21 O2         -4.0790   -3.3080    1.7080 oh        1 M08     -0.579800
     22 H10        -0.7790    0.5860   -0.9260 ha        1 M08      0.142000
     23 H11         1.6170    1.2340   -0.9120 ha        1 M08      0.135500
     24 H12         2.9430    1.1140    1.2000 ha        1 M08      0.134000
     25 H13         1.8560    0.3360    3.3080 ha        1 M08      0.135500
     26 H14        -0.5400   -0.3170    3.3120 ha        1 M08      0.142000
     27 H71        -2.5070   -1.6390    2.9170 hc        1 M08      0.093700
     28 H72        -2.9200    0.1160    3.2540 hc        1 M08      0.093700
     29 H5         -6.4950    0.2210    0.7620 h1        1 M08      0.095700
     30 H61        -7.1720    1.1240    3.6730 h1        1 M08      0.063200
     31 H62        -8.3620    1.1750    2.2650 h1        1 M08      0.063200
     32 HO6        -5.8540    2.4810    2.2810 ho        1 M08      0.411000
     33 H4         -7.3390   -1.4270    3.2920 h1        1 M08      0.057700
     34 HO4        -8.8660   -2.1550    1.6890 ho        1 M08      0.421000
     35 H3         -6.2710   -2.3260    0.4950 h1        1 M08      0.087700
     36 HO3        -6.7440   -4.2910    1.2900 ho        1 M08      0.413000
     37 H2         -5.0330   -2.4630    3.3620 h1        1 M08      0.065700
     38 HO2        -4.4520   -4.1650    1.9520 ho        1 M08      0.411000
@<TRIPOS>BOND
     1    1    2 ar  
     2    1    6 ar  
     3    1   22 1   
     4    2    3 ar  
     5    2   23 1   
     6    3    4 ar  
     7    3   24 1   
     8    4    5 ar  
     9    4   25 1   
    10    5    6 ar  
    11    5   26 1   
    12    6    7 1   
    13    7    8 1   
    14    7    9 2   
    15    8   11 1   
    16    8   27 1   
    17    8   28 1   
    18    9   10 1   
    19   10   11 1   
    20   11   12 1   
    21   11   20 1   
    22   12   13 1   
    23   13   14 1   
    24   13   16 1   
    25   13   29 1   
    26   14   15 1   
    27   14   30 1   
    28   14   31 1   
    29   15   32 1   
    30   16   17 1   
    31   16   18 1   
    32   16   33 1   
    33   17   34 1   
    34   18   19 1   
    35   18   20 1   
    36   18   35 1   
    37   19   36 1   
    38   20   21 1   
    39   20   37 1   
    40   21   38 1   
@<TRIPOS>SUBSTRUCTURE
     1 M08         1 TEMP              0 ****  ****    0 ROOT
