@<TRIPOS>MOLECULE
M08
   38    40     1     0     0
SMALL
bcc


@<TRIPOS>ATOM
      1 C10        -0.1950    0.5110    0.0230 ca        1 M08     -0.104000
      2 C11         1.1510    0.8740    0.0330 ca        1 M08     -0.134500
      3 C12         1.8870    0.8170    1.2160 ca        1 M08     -0.116000
      4 C13         1.2720    0.3940    2.3950 ca        1 M08     -0.134500
      5 C14        -0.0720    0.0310    2.3930 ca        1 M08     -0.104000
      6 C9         -0.8190    0.0860    1.2060 ca        1 M08     -0.111900
      7 C8         -2.2220   -0.2950    1.2180 ce        1 M08      0.344900
      8 C7         -2.9390   -0.6940    2.5020 c3        1 M08     -0.147700
      9 N1         -3.0340   -0.3470    0.1710 n2        1 M08     -0.345200
     10 O7         -4.2450   -0.7280    0.5070 os        1 M08     -0.161300
     11 C1         -4.3660   -0.9440    1.9630 c3        1 M08      0.300600
     12 O5         -5.2120    0.0920    2.4030 os        1 M08     -0.421600
     13 C5         -6.5420    0.0610    1.8630 c3        1 M08      0.103100
     14 C6         -7.2790    1.2200    2.5390 c3        1 M08      0.140400
     15 O6         -6.8030    2.4680    2.0890 oh        1 M08     -0.591800
     16 C4         -7.2220   -1.2800    2.1760 c3        1 M08      0.122100
     17 O4         -8.4910   -1.2660    1.5500 oh        1 M08     -0.589800
     18 C3         -6.3530   -2.4200    1.6170 c3        1 M08      0.064100
     19 O3         -6.9740   -3.6420    1.9830 oh        1 M08     -0.605800
     20 C2         -4.9580   -2.3270    2.2540 c3        1 M08      0.107100
     21 O2         -4.0820   -3.3050    1.7260 oh        1 M08     -0.579800
     22 H10        -0.7640    0.5610   -0.9180 ha        1 M08      0.142000
     23 H11         1.6320    1.2060   -0.8990 ha        1 M08      0.135500
     24 H12         2.9480    1.1030    1.2210 ha        1 M08      0.134000
     25 H13         1.8490    0.3470    3.3300 ha        1 M08      0.135500
     26 H14        -0.5470   -0.3020    3.3280 ha        1 M08      0.142000
     27 H71        -2.5130   -1.6310    2.9330 hc        1 M08      0.093700
     28 H72        -2.9250    0.1270    3.2570 hc        1 M08      0.093700
     29 H5         -6.4890    0.2210    0.7500 h1        1 M08      0.095700
     30 H61        -7.1770    1.1410    3.6530 h1        1 M08      0.063200
     31 H62        -8.3620    1.1860    2.2400 h1        1 M08      0.063200
     32 HO6        -5.8520    2.4890    2.2590 ho        1 M08      0.411000
     33 H4         -7.3460   -1.4110    3.2870 h1        1 M08      0.057700
     34 HO4        -8.8670   -2.1480    1.6810 ho        1 M08      0.421000
     35 H3         -6.2680   -2.3280    0.4990 h1        1 M08      0.087700
     36 HO3        -6.7460   -4.2880    1.3040 ho        1 M08      0.413000
     37 H2         -5.0410   -2.4500    3.3720 h1        1 M08      0.065700
     38 HO2        -4.4560   -4.1610    1.9740 ho        1 M08      0.411000
@<TRIPOS>BOND
     1    1    2 ar  
     2    1    6 ar  
     3    1   22 1   
     4    2    3 ar  
     5    2   23 1   
     6    3    4 ar  
     7    3   24 1   
     8    4    5 ar  
     9    4   25 1   
    10    5    6 ar  
    11    5   26 1   
    12    6    7 1   
    13    7    8 1   
    14    7    9 2   
    15    8   11 1   
    16    8   27 1   
    17    8   28 1   
    18    9   10 1   
    19   10   11 1   
    20   11   12 1   
    21   11   20 1   
    22   12   13 1   
    23   13   14 1   
    24   13   16 1   
    25   13   29 1   
    26   14   15 1   
    27   14   30 1   
    28   14   31 1   
    29   15   32 1   
    30   16   17 1   
    31   16   18 1   
    32   16   33 1   
    33   17   34 1   
    34   18   19 1   
    35   18   20 1   
    36   18   35 1   
    37   19   36 1   
    38   20   21 1   
    39   20   37 1   
    40   21   38 1   
@<TRIPOS>SUBSTRUCTURE
     1 M08         1 TEMP              0 ****  ****    0 ROOT
