@<TRIPOS>MOLECULE
M08
   38    40     1     0     0
SMALL
bcc


@<TRIPOS>ATOM
      1 C10         3.9740    0.5080   -1.1640 ca        1 M08     -0.103500
      2 C11         5.3400    0.7430   -1.0170 ca        1 M08     -0.134500
      3 C12         5.9200    0.7600    0.2510 ca        1 M08     -0.117000
      4 C13         5.1270    0.5400    1.3780 ca        1 M08     -0.134500
      5 C14         3.7620    0.3040    1.2400 ca        1 M08     -0.103500
      6 C9          3.1720    0.2870   -0.0340 ca        1 M08     -0.110900
      7 C8          1.7450    0.0400   -0.1650 ce        1 M08      0.346900
      8 C7          0.8450   -0.1500    1.0500 c3        1 M08     -0.146700
      9 N1          1.0610   -0.0500   -1.2960 n2        1 M08     -0.349200
     10 O7         -0.2140   -0.2810   -1.0820 os        1 M08     -0.163300
     11 C1         -0.5280   -0.3220    0.3600 c3        1 M08      0.292600
     12 O5         -1.2940    0.8420    0.5790 os        1 M08     -0.406600
     13 C5         -2.5400    0.8730   -0.1280 c3        1 M08      0.073100
     14 C6         -3.2080    2.1860    0.2990 c3        1 M08      0.125400
     15 O6         -4.3640    2.4260   -0.4760 oh        1 M08     -0.603800
     16 C4         -3.4040   -0.3490    0.2190 c3        1 M08      0.090100
     17 O4         -4.5570   -0.4110   -0.6010 oh        1 M08     -0.609800
     18 C3         -2.6160   -1.6370   -0.0680 c3        1 M08      0.108100
     19 O3         -3.3200   -2.7810    0.3820 oh        1 M08     -0.609800
     20 C2         -1.2950   -1.6000    0.7160 c3        1 M08      0.143100
     21 O2         -0.4670   -2.7060    0.4160 oh        1 M08     -0.587800
     22 H10         3.5300    0.4960   -2.1710 ha        1 M08      0.142000
     23 H11         5.9620    0.9150   -1.9080 ha        1 M08      0.135000
     24 H12         6.9980    0.9460    0.3630 ha        1 M08      0.134000
     25 H13         5.5810    0.5510    2.3800 ha        1 M08      0.135000
     26 H14         3.1460    0.1290    2.1350 ha        1 M08      0.142000
     27 H71         1.1150   -1.0730    1.6180 hc        1 M08      0.095700
     28 H72         0.8570    0.7420    1.7200 hc        1 M08      0.095700
     29 H5         -2.3370    0.8800   -1.2360 h1        1 M08      0.077700
     30 H61        -3.5760    2.1210    1.3570 h1        1 M08      0.066700
     31 H62        -2.4760    3.0300    0.2060 h1        1 M08      0.066700
     32 HO6        -4.0800    2.5790   -1.3860 ho        1 M08      0.411000
     33 H4         -3.7050   -0.3160    1.3030 h1        1 M08      0.057700
     34 HO4        -5.0650    0.3980   -0.4430 ho        1 M08      0.432000
     35 H3         -2.4090   -1.7240   -1.1710 h1        1 M08      0.081700
     36 HO3        -4.1860   -2.7550   -0.0480 ho        1 M08      0.431000
     37 H2         -1.5110   -1.5900    1.8230 h1        1 M08      0.065700
     38 HO2        -1.0470   -3.4790    0.3640 ho        1 M08      0.432000
@<TRIPOS>BOND
     1    1    2 ar  
     2    1    6 ar  
     3    1   22 1   
     4    2    3 ar  
     5    2   23 1   
     6    3    4 ar  
     7    3   24 1   
     8    4    5 ar  
     9    4   25 1   
    10    5    6 ar  
    11    5   26 1   
    12    6    7 1   
    13    7    8 1   
    14    7    9 2   
    15    8   11 1   
    16    8   27 1   
    17    8   28 1   
    18    9   10 1   
    19   10   11 1   
    20   11   12 1   
    21   11   20 1   
    22   12   13 1   
    23   13   14 1   
    24   13   16 1   
    25   13   29 1   
    26   14   15 1   
    27   14   30 1   
    28   14   31 1   
    29   15   32 1   
    30   16   17 1   
    31   16   18 1   
    32   16   33 1   
    33   17   34 1   
    34   18   19 1   
    35   18   20 1   
    36   18   35 1   
    37   19   36 1   
    38   20   21 1   
    39   20   37 1   
    40   21   38 1   
@<TRIPOS>SUBSTRUCTURE
     1 M08         1 TEMP              0 ****  ****    0 ROOT
