@<TRIPOS>MOLECULE
M08
   38    34     1     0     0
SMALL
bcc


@<TRIPOS>ATOM
      1 C10         2.9070   -0.5110   -2.5580 c1        1 M08     -0.113000
      2 C11         4.2220   -0.4670   -3.1140 c1        1 M08     -0.117750
      3 C12         5.1200    0.4540   -2.6670 c1        1 M08     -0.117750
      4 C13         4.7540    1.3510   -1.6670 c1        1 M08     -0.117750
      5 C14         3.4400    1.3060   -1.1130 c1        1 M08     -0.117750
      6 C9          2.5440    0.3860   -1.5610 c1        1 M08     -0.035000
      7 C8          1.1270    0.3560   -0.9860 c1        1 M08     -0.099000
      8 C7          0.6210   -0.7630   -0.5690 c2        1 M08     -0.161000
      9 N1          0.6350    1.4410   -0.3440 n1        1 M08      0.037000
     10 O7         -0.4880    1.2560    0.1640 o         1 M08     -0.216000
     11 C1         -0.6290   -0.2380    0.1960 c3        1 M08      0.112000
     12 O5         -1.7720   -0.6170   -0.4620 os        1 M08     -0.254000
     13 C5         -3.0070   -0.2790    0.2800 c3        1 M08     -0.003000
     14 C6         -3.1750    1.2270    0.3050 c3        1 M08     -0.040000
     15 O6         -3.9660    1.6270   -0.7770 oh        1 M08     -0.328000
     16 C4         -2.9800   -0.7850    1.7000 c3        1 M08     -0.017000
     17 O4         -3.0660   -2.3050    1.6870 oh        1 M08     -0.312000
     18 C3         -1.7820   -0.3920    2.3960 c3        1 M08      0.009000
     19 O3         -1.8070    1.0960    2.6080 oh        1 M08     -0.309000
     20 C2         -0.5820   -0.7390    1.6590 c3        1 M08     -0.019000
     21 O2         -0.4300   -2.1760    1.6590 oh        1 M08     -0.312000
     22 H10         2.2440   -1.1890   -2.8870 ha        1 M08      0.130000
     23 H11         4.4790   -1.1040   -3.8230 ha        1 M08      0.141250
     24 H12         6.0540    0.4850   -3.0600 ha        1 M08      0.141250
     25 H13         5.4200    2.0370   -1.3340 ha        1 M08      0.141250
     26 H14         3.1910    1.9130   -0.4360 ha        1 M08      0.141250
     27 H71         0.4090   -1.3830   -1.2540 ha        1 M08      0.128500
     28 H72         1.2650   -1.2960    0.0160 ha        1 M08      0.128500
     29 H5         -3.7470   -0.6580   -0.1670 h1        1 M08      0.152000
     30 H61        -2.2710    1.6670    0.2400 h1        1 M08      0.081000
     31 H62        -3.6180    1.4990    1.1610 h1        1 M08      0.081000
     32 HO6        -4.6510    2.1160   -0.4810 ho        1 M08      0.207000
     33 H4         -3.7580   -0.4260    2.1790 h1        1 M08      0.154000
     34 HO4        -3.7730   -2.5650    2.1510 ho        1 M08      0.215000
     35 H3         -1.7580   -0.8700    3.3300 h1        1 M08      0.151000
     36 HO3        -1.8340    1.2660    3.4530 ho        1 M08      0.216000
     37 H2          0.2200   -0.3200    2.1240 h1        1 M08      0.114000
     38 HO2         0.4410   -2.4010    1.9510 ho        1 M08      0.209000
@<TRIPOS>BOND
     1    1    6 1   
     2    1   22 1   
     3    2    3 1   
     4    2   23 1   
     5    3   24 1   
     6    4    5 1   
     7    4   25 1   
     8    5   26 1   
     9    7    9 1   
    10    8   11 1   
    11    8   27 1   
    12    8   28 1   
    13   10   11 1   
    14   11   12 1   
    15   11   20 1   
    16   12   13 1   
    17   13   14 1   
    18   13   16 1   
    19   13   29 1   
    20   14   15 1   
    21   14   30 1   
    22   14   31 1   
    23   15   32 1   
    24   16   17 1   
    25   16   18 1   
    26   16   33 1   
    27   17   34 1   
    28   18   19 1   
    29   18   20 1   
    30   18   35 1   
    31   19   36 1   
    32   20   21 1   
    33   20   37 1   
    34   21   38 1   
@<TRIPOS>SUBSTRUCTURE
     1 M08         1 TEMP              0 ****  ****    0 ROOT
