@<TRIPOS>MOLECULE
M09
   42    40     1     0     0
SMALL
bcc


@<TRIPOS>ATOM
      1 C10         3.1700   -0.7080   -1.7330 c1        1 M09     -0.064500
      2 C11         4.5600   -0.7130   -1.7590 c1        1 M09     -0.011500
      3 C12         5.2560   -0.9540   -0.6260 c1        1 M09     -0.180300
      4 N2          6.6820   -0.9790   -0.6570 no        1 M09      0.321300
      5 O9          7.2740   -1.7230    0.0480 o         1 M09     -0.206000
      6 O8          7.3820   -0.1420   -1.5390 o         1 M09     -0.206000
      7 C13         4.5720   -1.2000    0.5840 c1        1 M09     -0.045500
      8 C14         3.1980   -1.1950    0.6100 c1        1 M09     -0.045500
      9 C9          2.4910   -0.9500   -0.5410 c1        1 M09     -0.053000
     10 C8          0.8960   -1.0430   -0.5360 c2        1 M09      0.205200
     11 C7          0.2640    0.3900   -0.2250 c3        1 M09     -0.170700
     12 N1          0.5170   -1.7970    0.3680 nh        1 M09     -0.162200
     13 O7         -0.8280   -1.1960    0.8560 os        1 M09     -0.318000
     14 C1         -0.9100    0.1720    0.2360 c3        1 M09      0.314600
     15 O5         -1.8900    0.1680   -0.8670 os        1 M09     -0.417600
     16 C5         -3.2670    0.0530   -0.4020 c3        1 M09      0.104100
     17 C6         -4.1940    0.2500   -1.5720 c3        1 M09      0.141400
     18 O6         -3.9670   -0.7520   -2.5150 oh        1 M09     -0.590800
     19 C4         -3.6140    1.0850    0.6780 c3        1 M09      0.094100
     20 O4         -4.9170    0.7860    1.2070 oh        1 M09     -0.584800
     21 C3         -2.6390    1.0890    1.7940 c3        1 M09      0.060100
     22 O3         -2.9400    2.2290    2.6740 oh        1 M09     -0.594800
     23 C2         -1.2410    1.2070    1.3160 c3        1 M09      0.097100
     24 O2         -0.3530    1.0220    2.4210 oh        1 M09     -0.604800
     25 H10         2.6750   -0.5350   -2.5430 ha        1 M09      0.095500
     26 H11         5.0210   -0.5470   -2.5750 ha        1 M09      0.116500
     27 H13         5.0590   -1.3690    1.3780 ha        1 M09      0.114000
     28 H14         2.7310   -1.3620    1.4340 ha        1 M09      0.114000
     29 H8          0.5770   -1.3630   -1.3940 h4        1 M09      0.004800
     30 H71         0.8050    0.8620    0.4450 hc        1 M09      0.085700
     31 H72         0.2110    0.9170   -1.0460 hc        1 M09      0.085700
     32 HN1         1.1230   -1.7830    1.0490 hn        1 M09      0.189700
     33 H5         -3.4060   -0.8600   -0.0330 h1        1 M09      0.098700
     34 H61        -5.1140    0.2070   -1.2670 h1        1 M09      0.063200
     35 H62        -4.0200    1.1590   -1.9960 h1        1 M09      0.063200
     36 HO6        -4.7120   -0.9320   -2.9350 ho        1 M09      0.411000
     37 H4         -3.6340    1.9350    0.2870 h1        1 M09      0.045700
     38 HO4        -5.4540    1.4960    1.0940 ho        1 M09      0.420000
     39 H3         -2.7330    0.2670    2.2990 h1        1 M09      0.120700
     40 HO3        -3.3170    2.8940    2.1850 ho        1 M09      0.406000
     41 H2         -1.1100    2.0730    0.9610 h1        1 M09      0.057700
     42 HO2        -0.2020    1.8410    2.8390 ho        1 M09      0.430000
@<TRIPOS>BOND
     1    1    9 3   
     2    1   25 1   
     3    2    3 3   
     4    2   26 1   
     5    3    4 1   
     6    4    5 1   
     7    4    6 1   
     8    7    8 3   
     9    7   27 1   
    10    8   28 1   
    11   10   11 1   
    12   10   12 2   
    13   10   29 1   
    14   11   14 1   
    15   11   30 1   
    16   11   31 1   
    17   12   13 1   
    18   12   32 1   
    19   13   14 1   
    20   14   15 1   
    21   14   23 1   
    22   15   16 1   
    23   16   17 1   
    24   16   19 1   
    25   16   33 1   
    26   17   18 1   
    27   17   34 1   
    28   17   35 1   
    29   18   36 1   
    30   19   20 1   
    31   19   21 1   
    32   19   37 1   
    33   20   38 1   
    34   21   22 1   
    35   21   23 1   
    36   21   39 1   
    37   22   40 1   
    38   23   24 1   
    39   23   41 1   
    40   24   42 1   
@<TRIPOS>SUBSTRUCTURE
     1 M09         1 TEMP              0 ****  ****    0 ROOT
