@<TRIPOS>MOLECULE
M09
   42    44     1     0     0
SMALL
bcc


@<TRIPOS>ATOM
      1 C10        -3.1300    1.5460   -0.0530 ca        1 M09     -0.130500
      2 C11        -4.4260    1.0430   -0.1340 ca        1 M09     -0.068000
      3 C12        -4.6250   -0.3450   -0.0760 ca        1 M09     -0.171200
      4 N2         -6.0050   -0.8920   -0.1610 no        1 M09      0.312200
      5 O9         -6.9270   -0.1300   -0.2830 o         1 M09     -0.206500
      6 O8         -6.1640   -2.0830   -0.1080 o         1 M09     -0.206500
      7 C13        -3.5390   -1.2240    0.0630 ca        1 M09     -0.068000
      8 C14        -2.2510   -0.7030    0.1390 ca        1 M09     -0.130500
      9 C9         -2.0390    0.6800    0.0800 ca        1 M09     -0.060300
     10 C8         -0.6500    1.2400    0.1580 c3        1 M09      0.150800
     11 C7          0.2460    0.7150   -0.9880 c3        1 M09     -0.095400
     12 N1          0.0620    0.9390    1.4360 n3        1 M09     -0.493700
     13 O7          1.3290    0.5730    1.1490 os        1 M09     -0.244100
     14 C1          1.5300    0.2860   -0.2600 c3        1 M09      0.314600
     15 O5          2.5770    1.1510   -0.6430 os        1 M09     -0.416600
     16 C5          3.8220    0.9280    0.0350 c3        1 M09      0.069100
     17 C6          4.7820    1.9510   -0.5820 c3        1 M09      0.137400
     18 O6          4.4450    3.2670   -0.2060 oh        1 M09     -0.589800
     19 C4          4.3050   -0.5120   -0.1830 c3        1 M09      0.084100
     20 O4          5.4400   -0.8100    0.6140 oh        1 M09     -0.597800
     21 C3          3.2170   -1.4960    0.2800 c3        1 M09      0.112100
     22 O3          3.5620   -2.8310   -0.0440 oh        1 M09     -0.609800
     23 C2          1.9070   -1.1920   -0.4610 c3        1 M09      0.129100
     24 O2          0.8380   -1.9730    0.0430 oh        1 M09     -0.608800
     25 H10        -2.9700    2.6350   -0.0910 ha        1 M09      0.162000
     26 H11        -5.2860    1.7260   -0.2390 ha        1 M09      0.173000
     27 H13        -3.7050   -2.3140    0.1100 ha        1 M09      0.173000
     28 H14        -1.3890   -1.3880    0.2380 ha        1 M09      0.162000
     29 H8         -0.6950    2.3670    0.1080 h1        1 M09      0.093700
     30 H71        -0.2140   -0.1600   -1.5070 hc        1 M09      0.085200
     31 H72         0.4610    1.5190   -1.7310 hc        1 M09      0.085200
     32 HN1        -0.3950    0.1320    1.8680 hn        1 M09      0.346800
     33 H5          3.6840    1.1290    1.1330 h1        1 M09      0.097700
     34 H61         5.8190    1.7930   -0.1820 h1        1 M09      0.051700
     35 H62         4.7790    1.8530   -1.7000 h1        1 M09      0.051700
     36 HO6         3.5150    3.4010   -0.4350 ho        1 M09      0.418000
     37 H4          4.5430   -0.6850   -1.2700 h1        1 M09      0.058700
     38 HO4         6.1550   -0.2320    0.3230 ho        1 M09      0.413000
     39 H3          3.0640   -1.3960    1.3910 h1        1 M09      0.082700
     40 HO3         4.4180   -3.0030    0.3720 ho        1 M09      0.431000
     41 H2          2.0330   -1.3950   -1.5610 h1        1 M09      0.067700
     42 HO2         1.1690   -2.8800    0.1090 ho        1 M09      0.435000
@<TRIPOS>BOND
     1    1    2 ar  
     2    1    9 ar  
     3    1   25 1   
     4    2    3 ar  
     5    2   26 1   
     6    3    4 1   
     7    3    7 ar  
     8    4    5 1   
     9    4    6 1   
    10    7    8 ar  
    11    7   27 1   
    12    8    9 ar  
    13    8   28 1   
    14    9   10 1   
    15   10   11 1   
    16   10   12 1   
    17   10   29 1   
    18   11   14 1   
    19   11   30 1   
    20   11   31 1   
    21   12   13 1   
    22   12   32 1   
    23   13   14 1   
    24   14   15 1   
    25   14   23 1   
    26   15   16 1   
    27   16   17 1   
    28   16   19 1   
    29   16   33 1   
    30   17   18 1   
    31   17   34 1   
    32   17   35 1   
    33   18   36 1   
    34   19   20 1   
    35   19   21 1   
    36   19   37 1   
    37   20   38 1   
    38   21   22 1   
    39   21   23 1   
    40   21   39 1   
    41   22   40 1   
    42   23   24 1   
    43   23   41 1   
    44   24   42 1   
@<TRIPOS>SUBSTRUCTURE
     1 M09         1 TEMP              0 ****  ****    0 ROOT
