@<TRIPOS>MOLECULE
M09
   42    44     1     0     0
SMALL
bcc


@<TRIPOS>ATOM
      1 C10         0.2270   -0.2250    0.0150 ca        1 M09     -0.121500
      2 C11         1.5660   -0.1460    0.3880 ca        1 M09     -0.073000
      3 C12         1.8890    0.2190    1.7040 ca        1 M09     -0.174200
      4 N2          3.3150    0.3070    2.1110 no        1 M09      0.312200
      5 O9          4.1690    0.0600    1.3000 o         1 M09     -0.211500
      6 O8          3.5820    0.6260    3.2390 o         1 M09     -0.211500
      7 C13         0.8810    0.5010    2.6420 ca        1 M09     -0.073000
      8 C14        -0.4520    0.4210    2.2500 ca        1 M09     -0.121500
      9 C9         -0.7850    0.0610    0.9390 ca        1 M09     -0.033300
     10 C8         -2.2240   -0.0200    0.5140 c3        1 M09      0.156800
     11 C7         -2.9280    1.3530    0.6540 c3        1 M09     -0.094400
     12 N1         -2.9930   -0.9800    1.3680 n3        1 M09     -0.499700
     13 O7         -3.8200   -0.2700    2.1630 os        1 M09     -0.235100
     14 C1         -4.0690    1.0620    1.6450 c3        1 M09      0.299600
     15 O5         -5.2730    0.9570    0.9070 os        1 M09     -0.427600
     16 C5         -6.4170    0.5620    1.6750 c3        1 M09      0.148100
     17 C6         -7.5930    0.5410    0.6970 c3        1 M09      0.135400
     18 O6         -7.5790   -0.7290    0.0660 oh        1 M09     -0.595800
     19 C4         -6.6550    1.5800    2.8030 c3        1 M09      0.086100
     20 O4         -7.7620    1.1290    3.5640 oh        1 M09     -0.587800
     21 C3         -5.3950    1.6450    3.6820 c3        1 M09      0.065100
     22 O3         -5.5370    2.6420    4.6820 oh        1 M09     -0.607800
     23 C2         -4.2030    2.0590    2.8050 c3        1 M09      0.148100
     24 O2         -2.9920    2.0670    3.5340 oh        1 M09     -0.590800
     25 H10        -0.0280   -0.5190   -1.0150 ha        1 M09      0.163000
     26 H11         2.3640   -0.3700   -0.3400 ha        1 M09      0.170000
     27 H13         1.1430    0.7800    3.6760 ha        1 M09      0.170000
     28 H14        -1.2580    0.6410    2.9750 ha        1 M09      0.163000
     29 H8         -2.2640   -0.3570   -0.5610 h1        1 M09      0.067700
     30 H71        -2.2450    2.1260    1.0820 hc        1 M09      0.087700
     31 H72        -3.3310    1.7030   -0.3260 hc        1 M09      0.087700
     32 HN1        -3.5720   -1.5360    0.7360 hn        1 M09      0.348800
     33 H5         -6.2440   -0.4630    2.1040 h1        1 M09      0.097700
     34 H61        -7.4830    1.3570   -0.0660 h1        1 M09      0.044200
     35 H62        -8.5470    0.6750    1.2750 h1        1 M09      0.044200
     36 HO6        -8.2970   -0.7220   -0.5770 ho        1 M09      0.404000
     37 H4         -6.8690    2.5970    2.3710 h1        1 M09      0.057700
     38 HO4        -7.9890    1.8500    4.1640 ho        1 M09      0.408000
     39 H3         -5.1930    0.6390    4.1460 h1        1 M09      0.087700
     40 HO3        -6.0120    2.2340    5.4160 ho        1 M09      0.414000
     41 H2         -4.3860    3.0850    2.3740 h1        1 M09      0.065700
     42 HO2        -3.1750    2.5350    4.3610 ho        1 M09      0.428000
@<TRIPOS>BOND
     1    1    2 ar  
     2    1    9 ar  
     3    1   25 1   
     4    2    3 ar  
     5    2   26 1   
     6    3    4 1   
     7    3    7 ar  
     8    4    5 1   
     9    4    6 1   
    10    7    8 ar  
    11    7   27 1   
    12    8    9 ar  
    13    8   28 1   
    14    9   10 1   
    15   10   11 1   
    16   10   12 1   
    17   10   29 1   
    18   11   14 1   
    19   11   30 1   
    20   11   31 1   
    21   12   13 1   
    22   12   32 1   
    23   13   14 1   
    24   14   15 1   
    25   14   23 1   
    26   15   16 1   
    27   16   17 1   
    28   16   19 1   
    29   16   33 1   
    30   17   18 1   
    31   17   34 1   
    32   17   35 1   
    33   18   36 1   
    34   19   20 1   
    35   19   21 1   
    36   19   37 1   
    37   20   38 1   
    38   21   22 1   
    39   21   23 1   
    40   21   39 1   
    41   22   40 1   
    42   23   24 1   
    43   23   41 1   
    44   24   42 1   
@<TRIPOS>SUBSTRUCTURE
     1 M09         1 TEMP              0 ****  ****    0 ROOT
