@<TRIPOS>MOLECULE
M09
   42    44     1     0     0
SMALL
bcc


@<TRIPOS>ATOM
      1 C10         0.2280   -0.2210    0.0160 ca        1 M09     -0.121500
      2 C11         1.5670   -0.1410    0.3890 ca        1 M09     -0.073000
      3 C12         1.8890    0.2230    1.7070 ca        1 M09     -0.174200
      4 N2          3.3150    0.3110    2.1140 no        1 M09      0.312200
      5 O9          4.1690    0.0660    1.3040 o         1 M09     -0.211500
      6 O8          3.5810    0.6290    3.2430 o         1 M09     -0.211500
      7 C13         0.8800    0.5020    2.6440 ca        1 M09     -0.073000
      8 C14        -0.4530    0.4210    2.2510 ca        1 M09     -0.121500
      9 C9         -0.7840    0.0630    0.9390 ca        1 M09     -0.033300
     10 C8         -2.2230   -0.0180    0.5130 c3        1 M09      0.156800
     11 C7         -2.9280    1.3540    0.6540 c3        1 M09     -0.094400
     12 N1         -2.9920   -0.9790    1.3660 n7        1 M09     -0.499700
     13 O7         -3.8200   -0.2710    2.1620 os        1 M09     -0.235100
     14 C1         -4.0690    1.0610    1.6440 c3        1 M09      0.299600
     15 O5         -5.2730    0.9570    0.9060 os        1 M09     -0.427600
     16 C5         -6.4160    0.5600    1.6730 c3        1 M09      0.148100
     17 C6         -7.5920    0.5390    0.6950 c3        1 M09      0.135400
     18 O6         -7.5780   -0.7300    0.0630 oh        1 M09     -0.595800
     19 C4         -6.6550    1.5770    2.8030 c3        1 M09      0.086100
     20 O4         -7.7620    1.1240    3.5630 oh        1 M09     -0.587800
     21 C3         -5.3960    1.6420    3.6820 c3        1 M09      0.065100
     22 O3         -5.5390    2.6380    4.6830 oh        1 M09     -0.607800
     23 C2         -4.2040    2.0580    2.8050 c3        1 M09      0.148100
     24 O2         -2.9930    2.0660    3.5350 oh        1 M09     -0.590800
     25 H10        -0.0250   -0.5130   -1.0150 ha        1 M09      0.163000
     26 H11         2.3660   -0.3630   -0.3390 ha        1 M09      0.170000
     27 H13         1.1420    0.7810    3.6790 ha        1 M09      0.170000
     28 H14        -1.2590    0.6400    2.9750 ha        1 M09      0.163000
     29 H8         -2.2620   -0.3550   -0.5620 h1        1 M09      0.067700
     30 H71        -3.3310    1.7040   -0.3260 hc        1 M09      0.087700
     31 H72        -2.2460    2.1270    1.0830 hc        1 M09      0.087700
     32 HN1        -3.5710   -1.5360    0.7330 hn        1 M09      0.348800
     33 H5         -6.2430   -0.4650    2.1020 h1        1 M09      0.097700
     34 H61        -8.5460    0.6720    1.2730 h1        1 M09      0.044200
     35 H62        -7.4830    1.3560   -0.0660 h1        1 M09      0.044200
     36 HO6        -8.2960   -0.7230   -0.5810 ho        1 M09      0.404000
     37 H4         -6.8700    2.5940    2.3720 h1        1 M09      0.057700
     38 HO4        -7.9900    1.8440    4.1640 ho        1 M09      0.408000
     39 H3         -5.1940    0.6360    4.1450 h1        1 M09      0.087700
     40 HO3        -6.0140    2.2280    5.4160 ho        1 M09      0.414000
     41 H2         -4.3880    3.0840    2.3760 h1        1 M09      0.065700
     42 HO2        -3.1770    2.5330    4.3620 ho        1 M09      0.428000
@<TRIPOS>BOND
     1    1    2 ar  
     2    1    9 ar  
     3    1   25 1   
     4    2    3 ar  
     5    2   26 1   
     6    3    4 1   
     7    3    7 ar  
     8    4    5 1   
     9    4    6 1   
    10    7    8 ar  
    11    7   27 1   
    12    8    9 ar  
    13    8   28 1   
    14    9   10 1   
    15   10   11 1   
    16   10   12 1   
    17   10   29 1   
    18   11   14 1   
    19   11   30 1   
    20   11   31 1   
    21   12   13 1   
    22   12   32 1   
    23   13   14 1   
    24   14   15 1   
    25   14   23 1   
    26   15   16 1   
    27   16   17 1   
    28   16   19 1   
    29   16   33 1   
    30   17   18 1   
    31   17   34 1   
    32   17   35 1   
    33   18   36 1   
    34   19   20 1   
    35   19   21 1   
    36   19   37 1   
    37   20   38 1   
    38   21   22 1   
    39   21   23 1   
    40   21   39 1   
    41   22   40 1   
    42   23   24 1   
    43   23   41 1   
    44   24   42 1   
@<TRIPOS>SUBSTRUCTURE
     1 M09         1 TEMP              0 ****  ****    0 ROOT
