@<TRIPOS>MOLECULE
M09
   42    44     1     0     0
SMALL
bcc


@<TRIPOS>ATOM
      1 C10         0.2260   -0.2410    0.0230 ca        1 M09     -0.121500
      2 C11         1.5660   -0.1510    0.3910 ca        1 M09     -0.073000
      3 C12         1.8900    0.2360    1.7010 ca        1 M09     -0.174200
      4 N2          3.3170    0.3360    2.1030 no        1 M09      0.312200
      5 O9          4.1700    0.0790    1.2950 o         1 M09     -0.211500
      6 O8          3.5860    0.6730    3.2260 o         1 M09     -0.211500
      7 C13         0.8840    0.5280    2.6360 ca        1 M09     -0.073000
      8 C14        -0.4500    0.4370    2.2480 ca        1 M09     -0.121500
      9 C9         -0.7840    0.0560    0.9440 ca        1 M09     -0.033300
     10 C8         -2.2240   -0.0360    0.5240 c3        1 M09      0.156800
     11 C7         -2.9330    1.3360    0.6440 c3        1 M09     -0.094400
     12 N1         -2.9880   -0.9860    1.3940 n3        1 M09     -0.499700
     13 O7         -3.8160   -0.2670    2.1800 os        1 M09     -0.235100
     14 C1         -4.0700    1.0560    1.6420 c3        1 M09      0.299600
     15 O5         -5.2760    0.9350    0.9080 os        1 M09     -0.427600
     16 C5         -6.4160    0.5480    1.6850 c3        1 M09      0.148100
     17 C6         -7.5940    0.5070    0.7110 c3        1 M09      0.135400
     18 O6         -7.5770   -0.7720    0.1000 oh        1 M09     -0.595800
     19 C4         -6.6550    1.5820    2.7980 c3        1 M09      0.086100
     20 O4         -7.7590    1.1380    3.5690 oh        1 M09     -0.587800
     21 C3         -5.3940    1.6660    3.6730 c3        1 M09      0.065100
     22 O3         -5.5370    2.6780    4.6580 oh        1 M09     -0.607800
     23 C2         -4.2060    2.0710    2.7870 c3        1 M09      0.148100
     24 O2         -2.9930    2.0950    3.5120 oh        1 M09     -0.590800
     25 H10        -0.0290   -0.5510   -1.0020 ha        1 M09      0.163000
     26 H11         2.3630   -0.3830   -0.3350 ha        1 M09      0.170000
     27 H13         1.1470    0.8250    3.6660 ha        1 M09      0.170000
     28 H14        -1.2550    0.6660    2.9720 ha        1 M09      0.163000
     29 H8         -2.2650   -0.3910   -0.5460 h1        1 M09      0.067700
     30 H71        -3.3390    1.6690   -0.3400 hc        1 M09      0.087700
     31 H72        -2.2520    2.1180    1.0580 hc        1 M09      0.087700
     32 HN1        -3.5660   -1.5540    0.7730 hn        1 M09      0.348800
     33 H5         -6.2390   -0.4700    2.1300 h1        1 M09      0.097700
     34 H61        -8.5480    0.6460    1.2890 h1        1 M09      0.044200
     35 H62        -7.4900    1.3120   -0.0640 h1        1 M09      0.044200
     36 HO6        -8.2970   -0.7780   -0.5420 ho        1 M09      0.404000
     37 H4         -6.8750    2.5920    2.3520 h1        1 M09      0.057700
     38 HO4        -7.9880    1.8680    4.1590 ho        1 M09      0.408000
     39 H3         -5.1870    0.6680    4.1520 h1        1 M09      0.087700
     40 HO3        -6.0090    2.2790    5.3990 ho        1 M09      0.414000
     41 H2         -4.3940    3.0890    2.3410 h1        1 M09      0.065700
     42 HO2        -3.1760    2.5750    4.3330 ho        1 M09      0.428000
@<TRIPOS>BOND
     1    1    2 ar  
     2    1    9 ar  
     3    1   25 1   
     4    2    3 ar  
     5    2   26 1   
     6    3    4 1   
     7    3    7 ar  
     8    4    5 1   
     9    4    6 1   
    10    7    8 ar  
    11    7   27 1   
    12    8    9 ar  
    13    8   28 1   
    14    9   10 1   
    15   10   11 1   
    16   10   12 1   
    17   10   29 1   
    18   11   14 1   
    19   11   30 1   
    20   11   31 1   
    21   12   13 1   
    22   12   32 1   
    23   13   14 1   
    24   14   15 1   
    25   14   23 1   
    26   15   16 1   
    27   16   17 1   
    28   16   19 1   
    29   16   33 1   
    30   17   18 1   
    31   17   34 1   
    32   17   35 1   
    33   18   36 1   
    34   19   20 1   
    35   19   21 1   
    36   19   37 1   
    37   20   38 1   
    38   21   22 1   
    39   21   23 1   
    40   21   39 1   
    41   22   40 1   
    42   23   24 1   
    43   23   41 1   
    44   24   42 1   
@<TRIPOS>SUBSTRUCTURE
     1 M09         1 TEMP              0 ****  ****    0 ROOT
