@<TRIPOS>MOLECULE
M0A
   53    56     1     0     0
SMALL
bcc


@<TRIPOS>ATOM
      1 CAQ        -0.0620    0.4350    0.0420 c3        1 M0A     -0.095100
      2 CAP         1.4310    0.6300    0.1150 c3        1 M0A     -0.079400
      3 CAO         1.9470    0.4160    1.5220 c3        1 M0A     -0.083400
      4 CAN         3.4510    0.6060    1.5800 c3        1 M0A     -0.090700
      5 CAL         3.9650    0.4160    2.9700 cc        1 M0A      0.390800
      6 NAK         4.1390    1.4000    3.8740 nd        1 M0A     -0.530100
      7 CAH         4.6190    0.7730    5.0280 ca        1 M0A     -0.095900
      8 CAG         4.9660    1.3400    6.3200 ca        1 M0A      0.747200
      9 NAR         4.9280    2.7080    6.4830 nv        1 M0A     -0.945500
     10 NAI         5.3660    0.5360    7.3250 nb        1 M0A     -0.767000
     11 CAA         5.4900   -0.8180    7.1120 ca        1 M0A      0.471600
     12 CAC         5.9310   -1.6230    8.2150 ca        1 M0A     -0.176300
     13 CAE         6.0930   -2.9790    8.0790 ca        1 M0A     -0.109000
     14 CAF         5.8390   -3.6150    6.8460 ca        1 M0A     -0.147000
     15 CAD         5.4120   -2.8770    5.7660 ca        1 M0A     -0.122000
     16 CAB         5.2130   -1.4830    5.8700 ca        1 M0A     -0.180300
     17 CAJ         4.7440   -0.6400    4.8210 ca        1 M0A     -0.025200
     18 NAM         4.3130   -0.8630    3.5070 na        1 M0A     -0.157300
     19 CAS         4.2210   -2.1000    2.7990 c3        1 M0A      0.084600
     20 CAT         5.4910   -2.5750    2.1380 ca        1 M0A     -0.099300
     21 CAU         5.4000   -3.2310    0.9050 ca        1 M0A     -0.090000
     22 CAV         6.7460   -2.3980    2.7330 ca        1 M0A     -0.056000
     23 CAX         7.9000   -2.8600    2.0960 ca        1 M0A     -0.112000
     24 CAY         7.8110   -3.5080    0.8670 ca        1 M0A     -0.104000
     25 CAW         6.5560   -3.7000    0.2730 ca        1 M0A     -0.202300
     26 CAZ         6.4650   -4.3570   -1.0570 c3        1 M0A      0.176100
     27 NBA         6.5410   -5.8530   -0.9220 nz        1 M0A     -0.845600
     28 H1         -0.5860    1.1570    0.7150 hc        1 M0A      0.039367
     29 H2         -0.4230    0.6010   -1.0010 hc        1 M0A      0.039367
     30 H3         -0.3420   -0.6000    0.3540 hc        1 M0A      0.039367
     31 H4          1.6920    1.6670   -0.2250 hc        1 M0A      0.037700
     32 H5          1.9400   -0.0840   -0.5860 hc        1 M0A      0.037700
     33 H6          1.4520    1.1420    2.2200 hc        1 M0A      0.052200
     34 H7          1.6750   -0.6150    1.8710 hc        1 M0A      0.052200
     35 H8          3.9610   -0.1080    0.8800 hc        1 M0A      0.064200
     36 H9          3.7090    1.6470    1.2400 hc        1 M0A      0.064200
     37 H10         5.0270    3.0880    7.3940 hn        1 M0A      0.442300
     38 H11         4.4310    3.2390    5.8090 hn        1 M0A      0.442300
     39 H12         6.1370   -1.1300    9.1800 ha        1 M0A      0.160000
     40 H13         6.4260   -3.5850    8.9360 ha        1 M0A      0.142000
     41 H14         5.9840   -4.7020    6.7600 ha        1 M0A      0.131000
     42 H15         5.2330   -3.3820    4.8070 ha        1 M0A      0.107000
     43 H16         3.4210   -1.9840    2.0070 h1        1 M0A      0.081700
     44 H17         3.8700   -2.9050    3.5130 h1        1 M0A      0.081700
     45 H18         4.4160   -3.3600    0.4260 ha        1 M0A      0.139000
     46 H19         6.8290   -1.8900    3.7120 ha        1 M0A      0.185000
     47 H20         8.8840   -2.7030    2.5670 ha        1 M0A      0.167000
     48 H21         8.7260   -3.8480    0.3590 ha        1 M0A      0.137000
     49 H22         5.4890   -4.1130   -1.5700 hx        1 M0A      0.113200
     50 H23         7.3190   -4.0370   -1.7230 hx        1 M0A      0.113200
     51 H24         5.7550   -6.1930   -0.3590 hn        1 M0A      0.457800
     52 H25         7.4120   -6.1110   -0.4460 hn        1 M0A      0.457800
     53 HBA3        6.5140   -6.2960   -1.8430 hn        1 M0A      0.457800
@<TRIPOS>BOND
     1    1    2 1   
     2    1   28 1   
     3    1   29 1   
     4    1   30 1   
     5    2    3 1   
     6    2   31 1   
     7    2   32 1   
     8    3    4 1   
     9    3   33 1   
    10    3   34 1   
    11    4    5 1   
    12    4   35 1   
    13    4   36 1   
    14    5    6 2   
    15    5   18 1   
    16    6    7 1   
    17    7    8 ar  
    18    7   17 ar  
    19    8    9 1   
    20    8   10 ar  
    21    9   37 1   
    22    9   38 1   
    23   10   11 ar  
    24   11   12 ar  
    25   11   16 ar  
    26   12   13 ar  
    27   12   39 1   
    28   13   14 ar  
    29   13   40 1   
    30   14   15 ar  
    31   14   41 1   
    32   15   16 ar  
    33   15   42 1   
    34   16   17 ar  
    35   17   18 1   
    36   18   19 1   
    37   19   20 1   
    38   19   43 1   
    39   19   44 1   
    40   20   21 ar  
    41   20   22 ar  
    42   21   25 ar  
    43   21   45 1   
    44   22   23 ar  
    45   22   46 1   
    46   23   24 ar  
    47   23   47 1   
    48   24   25 ar  
    49   24   48 1   
    50   25   26 1   
    51   26   27 1   
    52   26   49 1   
    53   26   50 1   
    54   27   51 1   
    55   27   52 1   
    56   27   53 1   
@<TRIPOS>SUBSTRUCTURE
     1 M0A         1 TEMP              0 ****  ****    0 ROOT
