@<TRIPOS>MOLECULE
M0H
   17    16     1     0     0
SMALL
bcc


@<TRIPOS>ATOM
      1 O           2.0320    1.6350    0.1140 o         1 M0H     -0.835300
      2 OXT         3.2300   -0.2180    0.4820 o         1 M0H     -0.835300
      3 C           2.1760    0.3840    0.1310 c         1 M0H      0.891600
      4 CA          0.9600   -0.4960   -0.3420 c3        1 M0H      0.022500
      5 N           1.1390   -1.9260   -0.1290 n3        1 M0H     -0.884800
      6 CB         -0.2890    0.0670    0.3150 c3        1 M0H      0.025700
      7 SG         -1.7470   -0.7060   -0.3540 ss        1 M0H     -0.293200
      8 CD         -3.0350    0.2140    0.4260 c3        1 M0H      0.184500
      9 OE         -3.3080    1.3830   -0.3230 oh        1 M0H     -0.584800
     10 HA          0.8780   -0.3450   -1.4580 h1        1 M0H      0.059700
     11 HN1         2.0850   -2.1470   -0.3970 hn        1 M0H      0.332800
     12 HN2         1.0750   -2.1160    0.8560 hn        1 M0H      0.332800
     13 HB1        -0.2660   -0.0920    1.4190 h1        1 M0H      0.070200
     14 HB2        -0.3100    1.1690    0.1180 h1        1 M0H      0.070200
     15 HD1        -3.9410   -0.4450    0.4370 h2        1 M0H      0.033700
     16 HD2        -2.7560    0.4820    1.4760 h2        1 M0H      0.033700
     17 HE         -3.9080    1.9270    0.2010 ho        1 M0H      0.376000
@<TRIPOS>BOND
     1    1    3 1   
     2    2    3 1   
     3    3    4 1   
     4    4    5 1   
     5    4    6 1   
     6    4   10 1   
     7    5   11 1   
     8    5   12 1   
     9    6    7 1   
    10    6   13 1   
    11    6   14 1   
    12    7    8 1   
    13    8    9 1   
    14    8   15 1   
    15    8   16 1   
    16    9   17 1   
@<TRIPOS>SUBSTRUCTURE
     1 M0H         1 TEMP              0 ****  ****    0 ROOT
