@<TRIPOS>MOLECULE
M0N
   28    29     1     0     0
SMALL
bcc


@<TRIPOS>ATOM
      1 O           3.0530   -1.7760    0.8800 oh        1 M0N     -0.651800
      2 C9          1.6740   -1.7070    0.5810 c3        1 M0N     -0.263600
      3 C8          1.2470   -0.4930   -0.2060 c3        1 M0N     -0.012200
      4 C2          2.0930    0.7430   -0.2010 cc        1 M0N     -0.041300
      5 C1          3.3990    0.9440    0.3040 cd        1 M0N     -0.075400
      6 N1          3.8710    2.2370    0.0870 nd        1 M0N     -0.705300
      7 C7          2.8570    2.8720   -0.5630 cc        1 M0N      0.346100
      8 C6          2.7820    4.2240   -1.0370 ce        1 M0N     -0.360600
      9 C5          1.6330    4.6400   -1.6680 cf        1 M0N     -0.106000
     10 C4          0.5550    3.7560   -1.8430 cf        1 M0N     -0.468100
     11 C3          0.5890    2.4210   -1.3930 c1        1 M0N     -0.088900
     12 N2          1.7210    1.9900   -0.7680 na        1 M0N     -0.060700
     13 P1          0.9150   -1.7470    2.0980 p5        1 M0N      1.421600
     14 O2          1.5450   -0.3740    2.8320 oh        1 M0N     -0.816400
     15 O3         -0.5520   -1.4550    2.0610 o         1 M0N     -0.922500
     16 O1          1.3130   -2.7930    3.0890 o         1 M0N     -0.922500
     17 P2          1.7230   -3.1070   -0.9780 p5        1 M0N      1.202700
     18 O5          3.0950   -2.8230   -1.5440 o         1 M0N     -0.922833
     19 O6          0.6030   -2.7720   -1.9230 o         1 M0N     -0.922833
     20 O4          1.6000   -4.4800   -0.3830 o         1 M0N     -0.922833
     21 HO          3.5460   -1.8800    0.0460 ho        1 M0N      0.410000
     22 H81         1.1180   -0.7670   -1.2980 hc        1 M0N      0.075700
     23 H82         0.2190   -0.2030    0.1680 hc        1 M0N      0.075700
     24 H1          4.0010    0.1930    0.8170 h4        1 M0N      0.175000
     25 H6          3.6410    4.8830   -0.8810 ha        1 M0N      0.068000
     26 H5          1.5640    5.6770   -2.0370 ha        1 M0N      0.024000
     27 H4         -0.3550    4.1000   -2.3450 ha        1 M0N      0.066000
     28 H3          2.1790    0.0610    2.2770 ho        1 M0N      0.398000
@<TRIPOS>BOND
     1    1    2 1   
     2    1   21 1   
     3    2    3 1   
     4    2   13 1   
     5    2   17 1   
     6    3    4 1   
     7    3   22 1   
     8    3   23 1   
     9    4    5 2   
    10    4   12 1   
    11    5    6 1   
    12    5   24 1   
    13    6    7 2   
    14    7    8 1   
    15    7   12 1   
    16    8    9 2   
    17    8   25 1   
    18    9   10 1   
    19    9   26 1   
    20   10   11 2   
    21   10   27 1   
    22   11   12 2   
    23   13   14 1   
    24   13   15 1   
    25   13   16 1   
    26   14   28 1   
    27   17   18 1   
    28   17   19 1   
    29   17   20 1   
@<TRIPOS>SUBSTRUCTURE
     1 M0N         1 TEMP              0 ****  ****    0 ROOT
