@<TRIPOS>MOLECULE
M0N
   28    29     1     0     0
SMALL
bcc


@<TRIPOS>ATOM
      1 O           0.6960   -0.6730   -0.9310 oh        1 M0N     -0.650800
      2 C9          1.7270   -0.0030   -0.2340 c3        1 M0N     -0.246600
      3 C8          1.7370   -0.2590    1.2620 c3        1 M0N     -0.029200
      4 C2          0.7570   -1.2150    1.8580 cc        1 M0N     -0.057300
      5 C1          0.3700   -2.4860    1.3730 cd        1 M0N     -0.052400
      6 N1         -0.5100   -3.1410    2.2310 nd        1 M0N     -0.705300
      7 C7         -0.6730   -2.2900    3.2820 cc        1 M0N      0.338100
      8 C6         -1.4530   -2.4500    4.4740 ce        1 M0N     -0.357600
      9 C5         -1.4150   -1.4600    5.4290 cf        1 M0N     -0.111000
     10 C4         -0.6220   -0.3160    5.2370 cf        1 M0N     -0.467100
     11 C3          0.1470   -0.1140    4.0740 c1        1 M0N     -0.096900
     12 N2          0.1030   -1.0750    3.1080 na        1 M0N     -0.057700
     13 P1          1.3230    1.6390   -0.5170 p5        1 M0N      1.415600
     14 O2         -0.2080    1.7170    0.1550 oh        1 M0N     -0.811400
     15 O3          2.1120    2.6160    0.2960 o         1 M0N     -0.920500
     16 O1          1.0450    2.0880   -1.9160 o         1 M0N     -0.920500
     17 P2          3.3060   -1.1570   -0.8140 p5        1 M0N      1.207700
     18 O5          2.6130   -2.4980   -0.9440 o         1 M0N     -0.931167
     19 O6          4.3420   -1.1210    0.2800 o         1 M0N     -0.931167
     20 O4          3.8290   -0.6370   -2.1240 o         1 M0N     -0.931167
     21 HO          0.9290   -1.6130   -1.0200 ho        1 M0N      0.408000
     22 H81         2.7570   -0.6620    1.5570 hc        1 M0N      0.071700
     23 H82         1.6320    0.7350    1.7900 hc        1 M0N      0.071700
     24 H1          0.7380   -2.9490    0.4490 h4        1 M0N      0.207000
     25 H6         -2.0540   -3.3570    4.5910 ha        1 M0N      0.067000
     26 H5         -2.0110   -1.5720    6.3500 ha        1 M0N      0.023000
     27 H4         -0.5920    0.4610    6.0070 ha        1 M0N      0.065000
     28 H3         -0.4750    0.8850    0.5250 ho        1 M0N      0.403000
@<TRIPOS>BOND
     1    1    2 1   
     2    1   21 1   
     3    2    3 1   
     4    2   13 1   
     5    2   17 1   
     6    3    4 1   
     7    3   22 1   
     8    3   23 1   
     9    4    5 2   
    10    4   12 1   
    11    5    6 1   
    12    5   24 1   
    13    6    7 2   
    14    7    8 1   
    15    7   12 1   
    16    8    9 2   
    17    8   25 1   
    18    9   10 1   
    19    9   26 1   
    20   10   11 2   
    21   10   27 1   
    22   11   12 2   
    23   13   14 1   
    24   13   15 1   
    25   13   16 1   
    26   14   28 1   
    27   17   18 1   
    28   17   19 1   
    29   17   20 1   
@<TRIPOS>SUBSTRUCTURE
     1 M0N         1 TEMP              0 ****  ****    0 ROOT
