@<TRIPOS>MOLECULE
M0T
   55    57     1     0     0
SMALL
bcc


@<TRIPOS>ATOM
      1 N1          0.0350    0.3280   -0.6380 ny        1 M0T     -0.683800
      2 N3         -4.9060   -3.1670    0.8290 nc        1 M0T     -0.539100
      3 C4         -0.6690   -1.0190   -0.6360 c         1 M0T      0.579700
      4 C5         -2.1140   -0.9880   -0.4430 ca        1 M0T     -0.240600
      5 C6         -2.9070    0.1210   -0.8230 ca        1 M0T     -0.098000
      6 C7         -4.2790    0.1230   -0.6570 ca        1 M0T     -0.111000
      7 C8         -4.8770   -1.0160   -0.0910 ca        1 M0T     -0.014200
      8 C20         2.2430    1.4140   -0.5300 c2        1 M0T     -0.223400
      9 C21         3.0380    0.9670   -1.7780 c3        1 M0T      0.075900
     10 C22         3.7370    2.1780   -2.1240 c1        1 M0T     -0.146100
     11 C24         3.1420    3.8280   -0.4360 c3        1 M0T      0.049900
     12 O1          0.0570   -1.9950   -0.7850 o         1 M0T     -0.444100
     13 C2          1.2570    0.3620    1.5190 c2        1 M0T     -0.263200
     14 N2         -6.1900   -1.3440    0.2250 na        1 M0T     -0.153300
     15 C3          1.4020    0.3020    0.0300 c3        1 M0T      0.226900
     16 C9         -7.3610   -0.5470   -0.0260 c3        1 M0T      0.085600
     17 C16        -6.1570   -2.6680    0.7690 cd        1 M0T      0.455800
     18 C18        -4.0690   -2.1670    0.2980 ca        1 M0T      0.053400
     19 C19        -2.6890   -2.1450    0.1060 ca        1 M0T      0.033000
     20 C23         3.7830    3.2770   -1.6060 c1        1 M0T     -0.123100
     21 C25         2.2990    2.6410    0.0410 c2        1 M0T     -0.084200
     22 C10        -7.7780   -0.4540   -1.4660 ca        1 M0T     -0.128300
     23 C13        -8.6470   -0.2450   -4.1200 ca        1 M0T      0.030400
     24 C15        -7.9860   -1.6070   -2.2240 ca        1 M0T     -0.102000
     25 Cl1        -9.1700   -0.0870   -5.7200 cl        1 M0T     -0.037400
     26 C11        -8.0080    0.8040   -2.0340 ca        1 M0T     -0.112000
     27 C12        -8.4440    0.9080   -3.3510 ca        1 M0T     -0.114000
     28 C14        -8.4160   -1.5090   -3.5520 ca        1 M0T      0.018400
     29 HN1         0.1600    0.6250   -1.6130 hn        1 M0T      0.452800
     30 H6         -2.4500    1.0000   -1.3020 ha        1 M0T      0.123000
     31 H7         -4.8900    0.9820   -0.9720 ha        1 M0T      0.163000
     32 H17        -8.1290   -3.4290    0.3860 hc        1 M0T      0.080367
     33 H17A       -7.1440   -4.4030    1.5660 hc        1 M0T      0.080367
     34 H17B       -7.8500   -2.8080    2.0790 hc        1 M0T      0.080367
     35 H21         3.7340    0.1280   -1.5090 hc        1 M0T      0.075700
     36 H22         2.3420    0.6120   -2.5810 hc        1 M0T      0.075700
     37 H24         3.8690    4.1260    0.3660 hc        1 M0T      0.098700
     38 H1          2.0090   -3.3530   -0.2470 ha        1 M0T      0.001500
     39 H1A         1.6710   -0.5140    3.4140 ha        1 M0T      0.145000
     40 H1B         2.2520   -1.4910    1.9440 ha        1 M0T      0.145000
     41 H2          0.7600    1.2570    1.9280 ha        1 M0T      0.140000
     42 H2A         2.1830   -2.8290    0.1470 ha        1 M0T      0.001500
     43 H3          1.8730   -0.6940   -0.2650 hx        1 M0T      0.131700
     44 H9         -7.1610    0.4910    0.3740 h1        1 M0T      0.081700
     45 H9A        -8.2130   -0.9940    0.5670 h1        1 M0T      0.081700
     46 H19        -2.0670   -3.0160    0.3770 ha        1 M0T      0.180000
     47 H23         2.4800    4.7050   -0.6600 hc        1 M0T      0.098700
     48 H25         1.7160    2.8780    0.9470 ha        1 M0T      0.143000
     49 H15        -7.8160   -2.6020   -1.7820 ha        1 M0T      0.152000
     50 H11        -7.8570    1.7180   -1.4400 ha        1 M0T      0.141000
     51 H12        -8.6340    1.9000   -3.7910 ha        1 M0T      0.162000
     52 C17        -7.3900   -3.3650    1.2240 c3        1 M0T     -0.131400
     53 C1          1.7440   -0.5880    2.3180 c2        1 M0T     -0.109000
     54 Cl2        -8.6510   -2.9270   -4.4450 cl        1 M0T     -0.041400
     55 H121       -0.5560    1.0140   -0.1600 hn        1 M0T      0.452800
@<TRIPOS>BOND
     1    1    3 1   
     2    1   15 1   
     3    1   29 1   
     4    1   55 1   
     5    2   17 2   
     6    2   18 1   
     7    3    4 1   
     8    3   12 2   
     9    4    5 ar  
    10    4   19 ar  
    11    5    6 ar  
    12    5   30 1   
    13    6    7 ar  
    14    6   31 1   
    15    7   14 1   
    16    7   18 ar  
    17    8    9 1   
    18    8   15 1   
    19    8   21 2   
    20    9   10 1   
    21    9   35 1   
    22    9   36 1   
    23   10   20 3   
    24   11   20 1   
    25   11   21 1   
    26   11   37 1   
    27   11   47 1   
    28   13   15 1   
    29   13   41 1   
    30   13   53 2   
    31   14   16 1   
    32   14   17 1   
    33   15   43 1   
    34   16   22 1   
    35   16   44 1   
    36   16   45 1   
    37   17   52 1   
    38   18   19 ar  
    39   19   46 1   
    40   21   48 1   
    41   22   24 ar  
    42   22   26 ar  
    43   23   25 1   
    44   23   27 ar  
    45   23   28 ar  
    46   24   28 ar  
    47   24   49 1   
    48   26   27 ar  
    49   26   50 1   
    50   27   51 1   
    51   28   54 1   
    52   32   52 1   
    53   33   52 1   
    54   34   52 1   
    55   38   42 1   
    56   39   53 1   
    57   40   53 1   
@<TRIPOS>SUBSTRUCTURE
     1 M0T         1 TEMP              0 ****  ****    0 ROOT
