@<TRIPOS>MOLECULE
M0T
   54    57     1     0     0
SMALL
bcc


@<TRIPOS>ATOM
      1 N1          4.2540   -0.7290    0.0470 n         1 M0T     -0.562900
      2 N3         -1.2410   -3.1590   -0.7480 nc        1 M0T     -0.554100
      3 C4          3.2490   -0.9130   -0.8840 c         1 M0T      0.677700
      4 C5          1.8620   -1.0700   -0.3550 ca        1 M0T     -0.165600
      5 C6          1.3710   -0.1940    0.6320 ca        1 M0T     -0.092000
      6 C7          0.0780   -0.3050    1.1250 ca        1 M0T     -0.148000
      7 C8         -0.7280   -1.3280    0.6110 ca        1 M0T     -0.056200
      8 C20         6.0180    0.9740    0.0100 ca        1 M0T     -0.107300
      9 C21         6.3610    1.8590   -1.0180 ca        1 M0T     -0.119500
     10 C22         6.7360    3.1680   -0.7180 ca        1 M0T     -0.131000
     11 C24         6.4180    2.7250    1.6330 ca        1 M0T     -0.131000
     12 O1          3.4960   -0.9880   -2.1050 o         1 M0T     -0.604100
     13 C2          6.6290   -1.4070    0.3380 c3        1 M0T     -0.085400
     14 N2         -2.0330   -1.7480    0.8970 na        1 M0T     -0.174300
     15 C3          5.6220   -0.4480   -0.3260 c3        1 M0T      0.143000
     16 C9         -2.9870   -1.0660    1.7180 c3        1 M0T      0.094600
     17 C16        -2.3000   -2.8430    0.0200 cd        1 M0T      0.432800
     18 C18        -0.2320   -2.2330   -0.4120 ca        1 M0T      0.061400
     19 C19         1.0740   -2.0860   -0.8930 ca        1 M0T     -0.012000
     20 C23         6.7650    3.6030    0.6060 ca        1 M0T     -0.127000
     21 C25         6.0450    1.4160    1.3370 ca        1 M0T     -0.119500
     22 C10        -3.8330   -0.0420    1.0120 ca        1 M0T     -0.115300
     23 C13        -5.4210    1.9000   -0.2310 ca        1 M0T      0.025400
     24 C15        -5.2240   -0.1570    1.0400 ca        1 M0T     -0.108000
     25 CL1        -6.3570    3.0920   -0.9900 cl        1 M0T     -0.060400
     26 C11        -3.2380    1.0400    0.3550 ca        1 M0T     -0.102000
     27 C12        -4.0250    2.0050   -0.2640 ca        1 M0T     -0.114000
     28 C14        -6.0210    0.8140    0.4240 ca        1 M0T      0.015400
     29 HN1         4.0150   -0.6230    1.0030 hn        1 M0T      0.307500
     30 H6          2.0150    0.6140    1.0120 ha        1 M0T      0.137000
     31 H7         -0.2970    0.3850    1.8920 ha        1 M0T      0.137000
     32 H17        -3.7210   -4.1280    0.9770 hc        1 M0T      0.065700
     33 H17A       -4.4470   -2.8030   -0.0410 hc        1 M0T      0.065700
     34 H17B       -3.6800   -4.2490   -0.8370 hc        1 M0T      0.065700
     35 H21         6.3300    1.5220   -2.0660 ha        1 M0T      0.133500
     36 H22         7.0070    3.8580   -1.5310 ha        1 M0T      0.132500
     37 H24         6.4400    3.0660    2.6790 ha        1 M0T      0.132500
     38 H1          5.4950   -3.2490    0.1290 hc        1 M0T      0.038367
     39 H1A         6.5700   -2.8580   -1.2730 hc        1 M0T      0.038367
     40 H1B         7.2860   -3.4630    0.2780 hc        1 M0T      0.038367
     41 H2          6.5110   -1.3790    1.4530 hc        1 M0T      0.045700
     42 H2A         7.6580   -1.0270    0.1010 hc        1 M0T      0.045700
     43 H3          5.7000   -0.5920   -1.4490 h1        1 M0T      0.096700
     44 H9         -3.6560   -1.8490    2.1840 h1        1 M0T      0.071200
     45 H9A        -2.4220   -0.5440    2.5460 h1        1 M0T      0.071200
     46 H19         1.4670   -2.7460   -1.6830 ha        1 M0T      0.170000
     47 H23         7.0610    4.6360    0.8410 ha        1 M0T      0.132000
     48 H25         5.7780    0.7250    2.1500 ha        1 M0T      0.133500
     49 H15        -5.7000   -1.0100    1.5480 ha        1 M0T      0.150000
     50 H11        -2.1390    1.1240    0.3240 ha        1 M0T      0.152000
     51 H12        -3.5510    2.8530   -0.7840 ha        1 M0T      0.158000
     52 C17        -3.6120   -3.5450    0.0280 c3        1 M0T     -0.119400
     53 C1          6.4850   -2.8200   -0.1600 c3        1 M0T     -0.093100
     54 CL2        -7.7080    0.6480    0.4840 cl        1 M0T     -0.064400
@<TRIPOS>BOND
     1    1    3 1   
     2    1   15 1   
     3    1   29 1   
     4    2   17 2   
     5    2   18 1   
     6    3    4 1   
     7    3   12 2   
     8    4    5 ar  
     9    4   19 ar  
    10    5    6 ar  
    11    5   30 1   
    12    6    7 ar  
    13    6   31 1   
    14    7   14 1   
    15    7   18 ar  
    16    8    9 ar  
    17    8   15 1   
    18    8   21 ar  
    19    9   10 ar  
    20    9   35 1   
    21   10   20 ar  
    22   10   36 1   
    23   11   20 ar  
    24   11   21 ar  
    25   11   37 1   
    26   13   15 1   
    27   13   41 1   
    28   13   42 1   
    29   13   53 1   
    30   14   16 1   
    31   14   17 1   
    32   15   43 1   
    33   16   22 1   
    34   16   44 1   
    35   16   45 1   
    36   17   52 1   
    37   18   19 ar  
    38   19   46 1   
    39   20   47 1   
    40   21   48 1   
    41   22   24 ar  
    42   22   26 ar  
    43   23   25 1   
    44   23   27 ar  
    45   23   28 ar  
    46   24   28 ar  
    47   24   49 1   
    48   26   27 ar  
    49   26   50 1   
    50   27   51 1   
    51   28   54 1   
    52   32   52 1   
    53   33   52 1   
    54   34   52 1   
    55   38   53 1   
    56   39   53 1   
    57   40   53 1   
@<TRIPOS>SUBSTRUCTURE
     1 M0T         1 TEMP              0 ****  ****    0 ROOT
