@<TRIPOS>MOLECULE
M0T
   55    57     1     0     0
SMALL
bcc


@<TRIPOS>ATOM
      1 N1          0.4540   -0.0240   -0.2450 n4        1 M0T     -0.675800
      2 N3         -4.7950   -3.3520    0.0440 nc        1 M0T     -0.541100
      3 C4         -0.3910   -1.1840   -0.7430 c         1 M0T      0.579700
      4 C5         -1.8190   -1.1040   -0.4520 ca        1 M0T     -0.242600
      5 C6         -2.4920    0.1300   -0.2880 ca        1 M0T     -0.097000
      6 C7         -3.8490    0.1870   -0.0310 ca        1 M0T     -0.121000
      7 C8         -4.5540   -1.0240    0.0710 ca        1 M0T     -0.019200
      8 C20         2.8290    0.7050   -0.0390 c2        1 M0T     -0.218300
      9 C21         2.5390    1.8980   -0.4670 c1        1 M0T     -0.092800
     10 C22         2.3480    3.1280   -0.8720 ce        1 M0T     -0.067100
     11 C24         2.6870    2.8460   -3.2830 c1        1 M0T      0.010200
     12 O1          0.2110   -2.0740   -1.3330 o         1 M0T     -0.438100
     13 C2          1.8870   -0.8400    1.6600 c3        1 M0T     -0.100400
     14 N2         -5.8810   -1.3340    0.3420 na        1 M0T     -0.152300
     15 C3          1.8480   -0.4080    0.1880 c3        1 M0T      0.171700
     16 C9         -6.9700   -0.4090    0.5160 c3        1 M0T      0.087600
     17 C16        -5.9810   -2.7620    0.2970 cd        1 M0T      0.463800
     18 C18        -3.8700   -2.3010   -0.1050 ca        1 M0T      0.056400
     19 C19        -2.5040   -2.3270   -0.3780 ca        1 M0T      0.031000
     20 C23         2.3570    3.5790   -2.2480 ce        1 M0T     -0.196100
     21 C25         3.0240    2.1660   -4.3320 c2        1 M0T     -0.221100
     22 C10        -7.7440   -0.1040   -0.7340 ca        1 M0T     -0.129300
     23 C13        -9.2160    0.5270   -3.0310 ca        1 M0T      0.033400
     24 C15        -9.0720   -0.5160   -0.8440 ca        1 M0T     -0.101000
     25 CL1       -10.0790    0.9240   -4.4290 cl        1 M0T     -0.036400
     26 C11        -7.1500    0.6200   -1.7730 ca        1 M0T     -0.107000
     27 C12        -7.8800    0.9340   -2.9150 ca        1 M0T     -0.113000
     28 C14        -9.8140   -0.2000   -1.9890 ca        1 M0T      0.017400
     29 HN1         0.5290    0.6640   -1.0060 hn        1 M0T      0.457800
     30 H6         -1.9530    1.0830   -0.4000 ha        1 M0T      0.123000
     31 H7         -4.3640    1.1530    0.0840 ha        1 M0T      0.159000
     32 H17        -8.0810   -3.0060   -0.0830 hc        1 M0T      0.080700
     33 H17A       -7.1780   -4.5460    0.2770 hc        1 M0T      0.080700
     34 H17B       -7.5460   -3.3760    1.6210 hc        1 M0T      0.080700
     35 H21         3.8730    0.4120    0.1880 ha        1 M0T      0.183000
     36 H22         2.1580    3.9200   -0.1170 ha        1 M0T      0.162000
     37 H24         4.0650    2.1220   -4.6920 ha        1 M0T      0.155000
     38 H1          0.0130   -1.9470    1.7570 hc        1 M0T      0.054700
     39 H1A         1.4510   -2.9280    1.2480 hc        1 M0T      0.054700
     40 H1B         1.5220   -0.0090    2.3200 hc        1 M0T      0.080700
     41 H2          1.2590   -2.4260    2.9780 hc        1 M0T      0.054700
     42 H2A         2.9700   -1.0100    1.9160 hc        1 M0T      0.080700
     43 H3          2.1580   -1.2880   -0.4640 hx        1 M0T      0.131700
     44 H9         -7.6620   -0.8480    1.2940 h1        1 M0T      0.080200
     45 H9A        -6.5430    0.5540    0.9240 h1        1 M0T      0.080200
     46 H19        -1.9770   -3.2840   -0.5320 ha        1 M0T      0.181000
     47 H23         2.0830    4.6410   -2.3970 ha        1 M0T      0.164000
     48 H25         2.2950    1.6020   -4.9350 ha        1 M0T      0.155000
     49 H15        -9.5490   -1.0840   -0.0290 ha        1 M0T      0.153000
     50 H11        -6.1010    0.9440   -1.6880 ha        1 M0T      0.133000
     51 H12        -7.4090    1.5050   -3.7310 ha        1 M0T      0.160000
     52 C17        -7.2700   -3.4620    0.5400 c3        1 M0T     -0.131400
     53 C1          1.1090   -2.1010    1.9180 c3        1 M0T     -0.117100
     54 CL2       -11.4240   -0.7100   -2.0880 cl        1 M0T     -0.039400
     55 H121       -0.0280    0.4170    0.5460 hn        1 M0T      0.457800
@<TRIPOS>BOND
     1    1    3 1   
     2    1   15 1   
     3    1   29 1   
     4    1   55 1   
     5    2   17 2   
     6    2   18 1   
     7    3    4 1   
     8    3   12 2   
     9    4    5 ar  
    10    4   19 ar  
    11    5    6 ar  
    12    5   30 1   
    13    6    7 ar  
    14    6   31 1   
    15    7   14 1   
    16    7   18 ar  
    17    8    9 2   
    18    8   15 1   
    19    8   35 1   
    20    9   10 2   
    21   10   20 1   
    22   10   36 1   
    23   11   20 2   
    24   11   21 2   
    25   13   15 1   
    26   13   40 1   
    27   13   42 1   
    28   13   53 1   
    29   14   16 1   
    30   14   17 1   
    31   15   43 1   
    32   16   22 1   
    33   16   44 1   
    34   16   45 1   
    35   17   52 1   
    36   18   19 ar  
    37   19   46 1   
    38   20   47 1   
    39   21   37 1   
    40   21   48 1   
    41   22   24 ar  
    42   22   26 ar  
    43   23   25 1   
    44   23   27 ar  
    45   23   28 ar  
    46   24   28 ar  
    47   24   49 1   
    48   26   27 ar  
    49   26   50 1   
    50   27   51 1   
    51   28   54 1   
    52   32   52 1   
    53   33   52 1   
    54   34   52 1   
    55   38   53 1   
    56   39   53 1   
    57   41   53 1   
@<TRIPOS>SUBSTRUCTURE
     1 M0T         1 TEMP              0 ****  ****    0 ROOT
