@<TRIPOS>MOLECULE
M0T
   55    57     1     0     0
SMALL
bcc


@<TRIPOS>ATOM
      1 N1          0.1140   -0.8240    0.9310 n4        1 M0T     -0.116000
      2 N3         -5.3450   -3.3430   -0.3830 n2        1 M0T     -0.075000
      3 C4         -0.7770   -2.0250    1.1430 c2        1 M0T      0.308000
      4 C5         -2.2240   -1.7770    1.0420 ca        1 M0T     -0.154000
      5 C6         -2.8060   -0.6220    1.5770 ca        1 M0T     -0.096000
      6 C7         -4.1850   -0.3940    1.4720 ca        1 M0T     -0.052000
      7 C8         -4.9410   -1.3510    0.8170 ca        1 M0T     -0.086000
      8 C20         0.8760   -0.8180   -1.4150 c2        1 M0T     -0.210000
      9 C21         1.0340    0.3390   -1.9970 c1        1 M0T     -0.124000
     10 C22         1.2290    1.4470   -2.6630 c2        1 M0T     -0.012000
     11 C24        -0.9050    2.6100   -2.3090 c1        1 M0T     -0.118000
     12 O1         -0.2210   -3.0910    1.3680 o         1 M0T     -0.170000
     13 C2          2.5200   -0.2950    0.4080 c3        1 M0T     -0.190000
     14 N2         -6.3930   -1.3490    0.5000 n4        1 M0T      0.184000
     15 C3          1.2860   -1.1010   -0.0040 c3        1 M0T     -0.011000
     16 C9         -6.9020   -0.2060   -0.1340 c2        1 M0T     -0.589000
     17 C16        -6.4830   -2.6940   -0.3020 c2        1 M0T      0.024000
     18 C18        -4.3550   -2.5450    0.2750 ca        1 M0T     -0.022000
     19 C19        -2.9900   -2.7710    0.3990 ca        1 M0T     -0.015000
     20 C23         0.3030    2.5480   -2.8100 c2        1 M0T     -0.123000
     21 C25        -2.1170    2.7270   -1.8650 c2        1 M0T     -0.167000
     22 C10        -6.3890    0.4080   -1.3040 ca        1 M0T      0.113000
     23 C13        -5.4450    1.7860   -3.5870 ca        1 M0T     -0.136000
     24 C15        -5.3030   -0.0850   -2.0470 ca        1 M0T     -0.241000
     25 CL1        -4.8930    2.6430   -4.9420 cl        1 M0T      0.002000
     26 C11        -7.0080    1.6060   -1.7460 ca        1 M0T     -0.175000
     27 C12        -6.5450    2.2760   -2.8620 ca        1 M0T     -0.074000
     28 C14        -4.8400    0.5970   -3.1750 ca        1 M0T     -0.022000
     29 HN1         0.4910   -0.5380    1.8420 hn        1 M0T      0.254500
     30 H6         -2.1990    0.1270    2.1100 ha        1 M0T      0.143000
     31 H7         -4.6400    0.5250    1.8770 ha        1 M0T      0.188000
     32 H17        -8.4730   -3.4310   -0.0490 hc        1 M0T      0.139000
     33 H17A       -7.7010   -3.8360   -1.6500 hc        1 M0T      0.139000
     34 H17B       -8.2740   -2.1330   -1.3210 hc        1 M0T      0.139000
     35 H21         0.4580   -1.6790   -1.9680 ha        1 M0T      0.168000
     36 H22         2.2020    1.5790   -3.1850 ha        1 M0T      0.174000
     37 H24        -2.9900    2.3750   -2.4450 ha        1 M0T      0.157000
     38 H1          2.4050   -0.2140    2.5900 hc        1 M0T      0.094333
     39 H1A         3.0870   -1.7570    1.9170 hc        1 M0T      0.094333
     40 H1B         2.3110    0.8060    0.3370 hc        1 M0T      0.126500
     41 H2          3.3100   -0.5280   -0.3590 hc        1 M0T      0.126500
     42 H2A         4.0690   -0.2380    1.9040 hc        1 M0T      0.094333
     43 H3          1.5250   -2.2050    0.1070 hx        1 M0T      0.162000
     44 H9         -6.9150   -1.4980    1.3720 hn        1 M0T      0.249000
     45 H9A        -7.7860    0.2200    0.3590 hx        1 M0T      0.168000
     46 H19        -2.5210   -3.6880    0.0040 ha        1 M0T      0.191000
     47 H23         0.6760    3.3920   -3.4240 ha        1 M0T      0.168000
     48 H25        -2.3520    3.2020   -0.9010 ha        1 M0T      0.157000
     49 H15        -4.8110   -1.0240   -1.7640 ha        1 M0T      0.116000
     50 H11        -7.8720    2.0000   -1.1910 ha        1 M0T      0.139000
     51 H12        -7.0400    3.2040   -3.1940 ha        1 M0T      0.152000
     52 C17        -7.8060   -3.0460   -0.8630 c3        1 M0T     -0.189000
     53 C1          3.0360   -0.6500    1.7770 c3        1 M0T     -0.238000
     54 CL2        -3.5240   -0.0620   -4.0340 cl        1 M0T     -0.021000
     55 H121       -0.4410   -0.0530    0.5400 hn        1 M0T      0.254500
@<TRIPOS>BOND
     1    1    3 1   
     2    1   15 1   
     3    1   29 1   
     4    1   55 1   
     5    2   17 1   
     6    2   18 1   
     7    3    4 1   
     8    3   12 1   
     9    4    5 1   
    10    4   19 1   
    11    5    6 1   
    12    5   30 1   
    13    6    7 1   
    14    6   31 1   
    15    7   14 1   
    16    7   18 1   
    17    8    9 1   
    18    8   15 1   
    19    8   35 1   
    20    9   10 1   
    21   10   20 1   
    22   10   36 1   
    23   11   20 1   
    24   11   21 1   
    25   13   15 1   
    26   13   40 1   
    27   13   41 1   
    28   13   53 1   
    29   14   16 1   
    30   14   17 1   
    31   14   44 1   
    32   15   43 1   
    33   16   22 1   
    34   16   45 1   
    35   17   52 1   
    36   18   19 1   
    37   19   46 1   
    38   20   47 1   
    39   21   37 1   
    40   21   48 1   
    41   22   24 1   
    42   22   26 1   
    43   23   25 1   
    44   23   27 1   
    45   23   28 1   
    46   24   28 1   
    47   24   49 1   
    48   26   27 1   
    49   26   50 1   
    50   27   51 1   
    51   28   54 1   
    52   32   52 1   
    53   33   52 1   
    54   34   52 1   
    55   38   53 1   
    56   39   53 1   
    57   42   53 1   
@<TRIPOS>SUBSTRUCTURE
     1 M0T         1 TEMP              0 ****  ****    0 ROOT
