@<TRIPOS>MOLECULE
M0T
   54    48     1     0     0
SMALL
bcc


@<TRIPOS>ATOM
      1 N1          2.8880    0.7900    1.0400 n         1 M0T     -0.370000
      2 N3         -2.2210   -2.8760    0.6240 n2        1 M0T     -0.126000
      3 C4          2.1680   -0.4390    0.9380 c2        1 M0T      0.349000
      4 C5          0.6010   -0.4270    0.9050 c2        1 M0T     -0.147000
      5 C6         -0.1910    0.7150    1.0010 c2        1 M0T     -0.088000
      6 C7         -1.5750    0.6060    0.9630 c1        1 M0T     -0.150000
      7 C8         -2.1840   -0.6700    0.8280 c1        1 M0T     -0.009000
      8 C17        -4.2270   -3.7550    0.6610 c3        1 M0T     -0.161000
      9 C20         4.8520    1.2830   -0.2720 c1        1 M0T     -0.098000
     10 C21         5.4920    0.4180   -1.1220 c1        1 M0T     -0.125000
     11 C22         5.9520    0.8620   -2.3540 c1        1 M0T     -0.125000
     12 C24         5.1200    3.0660   -1.8750 c1        1 M0T     -0.125000
     13 C1          5.9510    0.9950    2.8840 c3        1 M0T     -0.213000
     14 O1          2.7710   -1.4920    0.8480 o         1 M0T     -0.363000
     15 C2          4.8190    1.6690    2.1540 c3        1 M0T     -0.163000
     16 N2         -3.4890   -1.0610    0.7740 n1        1 M0T     -0.200000
     17 C3          4.3320    0.7830    1.0510 c3        1 M0T      0.056000
     18 C9         -4.6600   -0.1410    0.7900 c2        1 M0T      0.028000
     19 C16        -3.5180   -2.4220    0.6480 c2        1 M0T      0.029000
     20 C18        -1.3970   -1.8010    0.7340 c1        1 M0T     -0.079000
     21 C19         0.0060   -1.6850    0.7720 c1        1 M0T     -0.012000
     22 C23         5.7670    2.1850   -2.7320 c1        1 M0T     -0.125000
     23 C25         4.6610    2.6180   -0.6430 c1        1 M0T     -0.126000
     24 C10        -5.5000   -0.3240   -0.5440 c2        1 M0T     -0.106000
     25 C13        -6.8920   -0.7340   -2.9150 c1        1 M0T     -0.053000
     26 C15        -5.1670    0.3960   -1.6620 c2        1 M0T     -0.099000
     27 CL1        -7.7850   -0.9620   -4.3850 cl        1 M0T      0.018000
     28 CL2        -5.8490    1.2310   -4.2640 cl        1 M0T      0.017000
     29 C11        -6.5290   -1.2540   -0.5970 c1        1 M0T     -0.111000
     30 C12        -7.2260   -1.4570   -1.7870 c1        1 M0T     -0.117000
     31 C14        -5.8650    0.1950   -2.8620 c2        1 M0T     -0.060000
     32 HN1         2.4400    1.5680    1.1320 hn        1 M0T      0.219000
     33 H6          0.2130    1.5610    1.1690 ha        1 M0T      0.139000
     34 H7         -2.1530    1.4430    1.0340 ha        1 M0T      0.137000
     35 H17        -3.6980   -4.4070    1.1900 hc        1 M0T      0.104000
     36 H17A       -4.3250   -4.0890   -0.2730 hc        1 M0T      0.104000
     37 H17B       -5.1040   -3.6500    1.0600 hc        1 M0T      0.104000
     38 H21         5.6230   -0.5290   -0.8560 ha        1 M0T      0.134000
     39 H22         6.4250    0.2160   -2.9800 ha        1 M0T      0.134000
     40 H24         4.9840    4.0340   -2.1500 ha        1 M0T      0.134000
     41 H1          6.5180    1.6490    3.2600 hc        1 M0T      0.077667
     42 H1A         5.5840    0.4290    3.6010 hc        1 M0T      0.077667
     43 H1B         6.4790    0.4230    2.2410 hc        1 M0T      0.077667
     44 H2          5.1270    2.5120    1.7800 hc        1 M0T      0.084500
     45 H2A         4.0520    1.8470    2.8110 hc        1 M0T      0.084500
     46 H3          4.6550   -0.1340    1.2000 h1        1 M0T      0.136000
     47 H9         -4.3540    0.7490    0.8480 ha        1 M0T      0.110500
     48 H9A        -5.2270   -0.3430    1.5630 ha        1 M0T      0.110500
     49 H19         0.5650   -2.4770    0.6730 ha        1 M0T      0.171000
     50 H23         6.0950    2.4980   -3.6090 ha        1 M0T      0.134000
     51 H25         4.1990    3.2430   -0.0270 ha        1 M0T      0.126000
     52 H15        -4.4440    1.0480   -1.6210 ha        1 M0T      0.159000
     53 H11        -6.7610   -1.7510    0.1790 ha        1 M0T      0.140000
     54 H12        -7.9950   -2.1520   -1.8260 ha        1 M0T      0.155000
@<TRIPOS>BOND
     1    1    3 1   
     2    1   17 1   
     3    1   32 1   
     4    2   19 1   
     5    2   20 1   
     6    3    4 1   
     7    3   14 1   
     8    4    5 1   
     9    4   21 1   
    10    5    6 1   
    11    5   33 1   
    12    6   34 1   
    13    7   20 1   
    14    8   19 1   
    15    8   35 1   
    16    8   36 1   
    17    8   37 1   
    18    9   17 1   
    19    9   23 1   
    20   10   11 1   
    21   10   38 1   
    22   11   39 1   
    23   12   22 1   
    24   12   40 1   
    25   13   15 1   
    26   13   41 1   
    27   13   42 1   
    28   13   43 1   
    29   15   17 1   
    30   15   44 1   
    31   15   45 1   
    32   16   19 1   
    33   17   46 1   
    34   18   24 1   
    35   18   47 1   
    36   18   48 1   
    37   21   49 1   
    38   22   50 1   
    39   23   51 1   
    40   24   26 1   
    41   24   29 1   
    42   25   30 1   
    43   25   31 1   
    44   26   31 1   
    45   26   52 1   
    46   28   31 1   
    47   29   53 1   
    48   30   54 1   
@<TRIPOS>SUBSTRUCTURE
     1 M0T         1 TEMP              0 ****  ****    0 ROOT
