@<TRIPOS>MOLECULE
M0Y
   37    39     1     0     0
SMALL
bcc


@<TRIPOS>ATOM
      1 C1         -0.0910   -1.7380    0.5810 ca        1 M0Y     -0.113000
      2 C2          1.3170   -1.8610    0.6460 ca        1 M0Y     -0.071000
      3 C3          2.0430   -1.1240    1.5520 ca        1 M0Y     -0.170000
      4 C4          1.3980   -0.2220    2.4390 ca        1 M0Y     -0.007000
      5 C5         -0.0160   -0.0870    2.3640 ca        1 M0Y     -0.042000
      6 C6         -0.7420   -0.8680    1.4210 ca        1 M0Y     -0.086000
      7 C7         -0.6930    0.8270    3.2140 ca        1 M0Y     -0.040000
      8 C8          0.0030    1.5970    4.1160 ca        1 M0Y     -0.143000
      9 C9          1.4030    1.4850    4.2200 ca        1 M0Y     -0.055000
     10 C10         2.0830    0.5820    3.4100 ca        1 M0Y     -0.090200
     11 N1          3.5160    0.4570    3.5580 na        1 M0Y      0.296300
     12 C11         4.1560   -0.7560    3.8680 cc        1 M0Y     -0.115300
     13 C12         5.5370   -0.4600    3.9600 cd        1 M0Y     -0.070700
     14 C13         5.6260    0.9700    3.6840 cd        1 M0Y      0.140800
     15 N2          4.3510    1.4640    3.4490 nc        1 M0Y     -0.432800
     16 C14         6.8370    1.7430    3.6490 c         1 M0Y      0.512600
     17 O1          7.9800    1.3450    3.8630 o         1 M0Y     -0.467100
     18 N3          6.6960    3.2030    3.3070 nz        1 M0Y     -0.738400
     19 N4          6.6180   -1.2920    4.2480 ns        1 M0Y     -0.397100
     20 C15         6.4240   -2.6270    4.5190 c         1 M0Y      0.646100
     21 O2          5.3660   -3.2590    4.5210 o         1 M0Y     -0.447100
     22 N5          7.6520   -3.4690    4.8580 nz        1 M0Y     -0.741400
     23 H1         -0.6520   -2.3410   -0.1500 ha        1 M0Y      0.166000
     24 H2          1.8230   -2.5540   -0.0440 ha        1 M0Y      0.153000
     25 H3          3.1370   -1.2320    1.5710 ha        1 M0Y      0.117000
     26 H4         -1.8390   -0.7560    1.3790 ha        1 M0Y      0.163000
     27 H5         -1.7920    0.9110    3.1350 ha        1 M0Y      0.170000
     28 H6         -0.5220    2.3110    4.7720 ha        1 M0Y      0.171000
     29 H7          1.9290    2.1160    4.9550 ha        1 M0Y      0.151000
     30 H8          3.6040   -1.6950    3.9970 h4        1 M0Y      0.248000
     31 H9          7.6210    3.6550    3.3030 hn        1 M0Y      0.485133
     32 H10         6.2640    3.3040    2.3800 hn        1 M0Y      0.485133
     33 H11         7.5240   -0.8640    4.2700 hn        1 M0Y      0.376500
     34 H12         8.3240   -3.4800    4.0830 hn        1 M0Y      0.486800
     35 H13         7.3180   -4.4340    5.0240 hn        1 M0Y      0.486800
     36 H33         6.0940    3.6680    3.9990 hn        1 M0Y      0.485133
     37 H53         8.1150   -3.1280    5.7080 hn        1 M0Y      0.486800
@<TRIPOS>BOND
     1    1    2 ar  
     2    1    6 ar  
     3    1   23 1   
     4    2    3 ar  
     5    2   24 1   
     6    3    4 ar  
     7    3   25 1   
     8    4    5 ar  
     9    4   10 ar  
    10    5    6 ar  
    11    5    7 ar  
    12    6   26 1   
    13    7    8 ar  
    14    7   27 1   
    15    8    9 ar  
    16    8   28 1   
    17    9   10 ar  
    18    9   29 1   
    19   10   11 1   
    20   11   12 1   
    21   11   15 1   
    22   12   13 2   
    23   12   30 1   
    24   13   14 1   
    25   13   19 1   
    26   14   15 2   
    27   14   16 1   
    28   16   17 2   
    29   16   18 1   
    30   18   31 1   
    31   18   32 1   
    32   18   36 1   
    33   19   20 1   
    34   19   33 1   
    35   20   21 2   
    36   20   22 1   
    37   22   34 1   
    38   22   35 1   
    39   22   37 1   
@<TRIPOS>SUBSTRUCTURE
     1 M0Y         1 TEMP              0 ****  ****    0 ROOT
