@<TRIPOS>MOLECULE
M0Y
   38    40     1     0     0
SMALL
bcc


@<TRIPOS>ATOM
      1 C1         -0.1700   -1.5940    0.3690 ca        1 M0Y     -0.111000
      2 C2          1.2400   -1.6880    0.3800 ca        1 M0Y     -0.041000
      3 C3          1.9810   -1.0370    1.3440 ca        1 M0Y     -0.207000
      4 C4          1.3470   -0.2510    2.3390 ca        1 M0Y      0.003000
      5 C5         -0.0720   -0.1310    2.3100 ca        1 M0Y     -0.052000
      6 C6         -0.8120   -0.8280    1.3120 ca        1 M0Y     -0.061000
      7 C7         -0.7420    0.6920    3.2510 ca        1 M0Y      0.003000
      8 C8         -0.0350    1.3970    4.2040 ca        1 M0Y     -0.147000
      9 C9          1.3630    1.2990    4.2700 ca        1 M0Y     -0.027000
     10 C10         2.0380    0.4650    3.3740 ca        1 M0Y     -0.142200
     11 N1          3.4710    0.3400    3.4940 na        1 M0Y      0.322300
     12 C11         4.1380   -0.8800    3.5490 cc        1 M0Y     -0.009300
     13 C12         5.5270   -0.5710    3.6800 cd        1 M0Y     -0.265700
     14 C13         5.5750    0.8900    3.7060 cd        1 M0Y      0.219800
     15 N2          4.3000    1.3770    3.5810 nc        1 M0Y     -0.379800
     16 C14         6.7850    1.6920    3.7880 c         1 M0Y      0.507600
     17 O1          7.9130    1.2090    3.8840 o         1 M0Y     -0.467100
     18 N3          6.6550    3.1750    3.7370 n4        1 M0Y     -0.725400
     19 N4          6.6420   -1.4660    3.7320 n4        1 M0Y     -0.437200
     20 C15         6.8430   -2.0640    5.1120 c         1 M0Y      0.462100
     21 O2          6.3190   -1.5980    6.1050 o         1 M0Y     -0.241100
     22 N5          7.7340   -3.2590    5.2420 n4        1 M0Y     -0.731400
     23 H1         -0.7430   -2.1300   -0.4080 ha        1 M0Y      0.184000
     24 H2          1.7410   -2.2840   -0.4020 ha        1 M0Y      0.162000
     25 H3          3.0760   -1.1030    1.2980 ha        1 M0Y      0.095000
     26 H4         -1.9130   -0.7330    1.3080 ha        1 M0Y      0.180000
     27 H5         -1.8450    0.7680    3.2050 ha        1 M0Y      0.188000
     28 H6         -0.5600    2.0470    4.9260 ha        1 M0Y      0.189000
     29 H7          1.8950    1.8740    5.0460 ha        1 M0Y      0.155000
     30 H8          3.5960   -1.8370    3.4850 h4        1 M0Y      0.256000
     31 H9          7.5910    3.6170    3.7980 hn        1 M0Y      0.506800
     32 H10         6.2070    3.4650    2.8510 hn        1 M0Y      0.506800
     33 H11         6.4950   -2.2150    3.0310 hn        1 M0Y      0.513800
     34 H12         8.6970   -3.0640    4.9180 hn        1 M0Y      0.523800
     35 H13         7.3610   -4.0780    4.7310 hn        1 M0Y      0.523800
     36 H33         6.0730    3.5130    4.5200 hn        1 M0Y      0.506800
     37 H42         7.5020   -0.9210    3.4900 hn        1 M0Y      0.513800
     38 H53         7.7840   -3.5140    6.2580 hn        1 M0Y      0.523800
@<TRIPOS>BOND
     1    1    2 ar  
     2    1    6 ar  
     3    1   23 1   
     4    2    3 ar  
     5    2   24 1   
     6    3    4 ar  
     7    3   25 1   
     8    4    5 ar  
     9    4   10 ar  
    10    5    6 ar  
    11    5    7 ar  
    12    6   26 1   
    13    7    8 ar  
    14    7   27 1   
    15    8    9 ar  
    16    8   28 1   
    17    9   10 ar  
    18    9   29 1   
    19   10   11 1   
    20   11   12 1   
    21   11   15 1   
    22   12   13 2   
    23   12   30 1   
    24   13   14 1   
    25   13   19 1   
    26   14   15 2   
    27   14   16 1   
    28   16   17 2   
    29   16   18 1   
    30   18   31 1   
    31   18   32 1   
    32   18   36 1   
    33   19   20 1   
    34   19   33 1   
    35   19   37 1   
    36   20   21 2   
    37   20   22 1   
    38   22   34 1   
    39   22   35 1   
    40   22   38 1   
@<TRIPOS>SUBSTRUCTURE
     1 M0Y         1 TEMP              0 ****  ****    0 ROOT
