@<TRIPOS>MOLECULE
M0Y
   37    39     1     0     0
SMALL
bcc


@<TRIPOS>ATOM
      1 C1         -0.1020   -1.7590    0.6170 ca        1 M0Y     -0.113000
      2 C2          1.3070   -1.8780    0.6740 ca        1 M0Y     -0.071000
      3 C3          2.0360   -1.1340    1.5720 ca        1 M0Y     -0.170000
      4 C4          1.3940   -0.2290    2.4570 ca        1 M0Y     -0.007000
      5 C5         -0.0210   -0.0970    2.3890 ca        1 M0Y     -0.042000
      6 C6         -0.7500   -0.8860    1.4550 ca        1 M0Y     -0.086000
      7 C7         -0.6960    0.8200    3.2380 ca        1 M0Y     -0.040000
      8 C8          0.0030    1.5970    4.1310 ca        1 M0Y     -0.143000
      9 C9          1.4040    1.4890    4.2270 ca        1 M0Y     -0.055000
     10 C10         2.0820    0.5830    3.4200 ca        1 M0Y     -0.090200
     11 N1          3.5150    0.4630    3.5600 na        1 M0Y      0.296300
     12 C11         4.1610   -0.7460    3.8730 cc        1 M0Y     -0.115300
     13 C12         5.5420   -0.4470    3.9550 cd        1 M0Y     -0.070700
     14 C13         5.6250    0.9820    3.6710 cd        1 M0Y      0.140800
     15 N2          4.3480    1.4720    3.4400 nc        1 M0Y     -0.432800
     16 C14         6.8340    1.7580    3.6250 c         1 M0Y      0.512600
     17 O1          7.9790    1.3650    3.8340 o         1 M0Y     -0.467100
     18 N3          6.6860    3.2170    3.2760 n4        1 M0Y     -0.738400
     19 N4          6.6270   -1.2740    4.2420 n         1 M0Y     -0.397100
     20 C15         6.4380   -2.6070    4.5210 c         1 M0Y      0.646100
     21 O2          5.3820   -3.2430    4.5320 o         1 M0Y     -0.447100
     22 N5          7.6700   -3.4440    4.8580 n4        1 M0Y     -0.741400
     23 H1         -0.6650   -2.3690   -0.1090 ha        1 M0Y      0.166000
     24 H2          1.8120   -2.5750   -0.0150 ha        1 M0Y      0.153000
     25 H3          3.1310   -1.2390    1.5850 ha        1 M0Y      0.117000
     26 H4         -1.8470   -0.7780    1.4180 ha        1 M0Y      0.163000
     27 H5         -1.7950    0.9000    3.1640 ha        1 M0Y      0.170000
     28 H6         -0.5210    2.3130    4.7860 ha        1 M0Y      0.171000
     29 H7          1.9320    2.1260    4.9560 ha        1 M0Y      0.151000
     30 H8          3.6130   -1.6870    4.0100 h4        1 M0Y      0.248000
     31 H9          7.6100    3.6710    3.2640 hn        1 M0Y      0.485133
     32 H10         6.0870    3.6830    3.9680 hn        1 M0Y      0.485133
     33 H11         7.5320   -0.8430    4.2570 hn        1 M0Y      0.376500
     34 H12         7.3400   -4.4100    5.0310 hn        1 M0Y      0.486800
     35 H13         8.3380   -3.4570    4.0790 hn        1 M0Y      0.486800
     36 H33         6.2490    3.3120    2.3500 hn        1 M0Y      0.485133
     37 H53         8.1360   -3.0980    5.7030 hn        1 M0Y      0.486800
@<TRIPOS>BOND
     1    1    2 ar  
     2    1    6 ar  
     3    1   23 1   
     4    2    3 ar  
     5    2   24 1   
     6    3    4 ar  
     7    3   25 1   
     8    4    5 ar  
     9    4   10 ar  
    10    5    6 ar  
    11    5    7 ar  
    12    6   26 1   
    13    7    8 ar  
    14    7   27 1   
    15    8    9 ar  
    16    8   28 1   
    17    9   10 ar  
    18    9   29 1   
    19   10   11 1   
    20   11   12 1   
    21   11   15 1   
    22   12   13 2   
    23   12   30 1   
    24   13   14 1   
    25   13   19 1   
    26   14   15 2   
    27   14   16 1   
    28   16   17 2   
    29   16   18 1   
    30   18   31 1   
    31   18   32 1   
    32   18   36 1   
    33   19   20 1   
    34   19   33 1   
    35   20   21 2   
    36   20   22 1   
    37   22   34 1   
    38   22   35 1   
    39   22   37 1   
@<TRIPOS>SUBSTRUCTURE
     1 M0Y         1 TEMP              0 ****  ****    0 ROOT
