@<TRIPOS>MOLECULE
M0Z
   42    44     1     0     0
SMALL
bcc


@<TRIPOS>ATOM
      1 N1         -0.1150   -0.2160    0.0140 na        1 M0Z      0.327300
      2 N2          1.1950    0.0090    0.0530 nc        1 M0Z     -0.367800
      3 C1          1.5980   -0.0650    1.3610 cd        1 M0Z      0.216800
      4 C2          0.4390   -0.3690    2.1980 cd        1 M0Z     -0.255700
      5 C3         -0.6510   -0.4550    1.2790 cc        1 M0Z     -0.028300
      6 N3          0.4350   -0.5790    3.6120 n4        1 M0Z     -0.438200
      7 C4         -0.0350    0.6380    4.3920 c         1 M0Z      0.456100
      8 N4         -0.3390    0.4740    5.8500 n4        1 M0Z     -0.733400
      9 O1         -0.1630    1.7320    3.8770 o         1 M0Z     -0.251100
     10 C5          2.9650    0.0890    1.8310 c         1 M0Z      0.507600
     11 N5          4.0290    0.3600    0.8230 n4        1 M0Z     -0.726400
     12 O2          3.2920    0.0050    3.0150 o         1 M0Z     -0.466100
     13 C6         -0.9060   -0.2080   -1.1880 ca        1 M0Z     -0.155200
     14 C7         -2.0170    0.6500   -1.2290 ca        1 M0Z     -0.052000
     15 C8         -2.7950    0.7210   -2.3830 ca        1 M0Z     -0.152000
     16 C9         -2.4740   -0.0490   -3.4940 ca        1 M0Z      0.019000
     17 C10        -0.5540   -1.0400   -2.3020 ca        1 M0Z      0.069000
     18 C11        -1.3730   -0.9260   -3.4710 ca        1 M0Z     -0.094000
     19 C12        -1.0640   -1.7260   -4.6140 ca        1 M0Z     -0.024000
     20 C13        -0.0170   -2.6080   -4.6060 ca        1 M0Z     -0.181000
     21 C14         0.7770   -2.7350   -3.4310 ca        1 M0Z      0.227100
     22 C15         0.5070   -1.9650   -2.2970 ca        1 M0Z     -0.249000
     23 O3          1.8370   -3.5860   -3.3130 os        1 M0Z     -0.323900
     24 C16         2.1240   -4.4390   -4.4310 c3        1 M0Z      0.102700
     25 H1         -1.7180   -0.6750    1.4230 h4        1 M0Z      0.249000
     26 H2          1.4140   -0.7930    3.9070 hn        1 M0Z      0.510800
     27 H4         -1.1230   -0.1810    6.0090 hn        1 M0Z      0.519800
     28 H3         -0.6210    1.4080    6.2280 hn        1 M0Z      0.519800
     29 H5          3.8250    1.2360    0.3130 hn        1 M0Z      0.505800
     30 H6          4.9490    0.4490    1.2900 hn        1 M0Z      0.505800
     31 H7         -2.2790    1.2910   -0.3710 ha        1 M0Z      0.142000
     32 H8         -3.6620    1.4040   -2.4130 ha        1 M0Z      0.186000
     33 H9         -3.0880    0.0250   -4.4120 ha        1 M0Z      0.185000
     34 H10        -1.6980   -1.6200   -5.5130 ha        1 M0Z      0.179000
     35 H11         0.2080   -3.2190   -5.4960 ha        1 M0Z      0.184000
     36 H12         1.1360   -2.1320   -1.4150 ha        1 M0Z      0.124000
     37 H14         2.4070   -3.8270   -5.3210 h1        1 M0Z      0.074367
     38 H13         2.9960   -5.0410   -4.0650 h1        1 M0Z      0.074367
     39 H15         1.2500   -5.0980   -4.6510 h1        1 M0Z      0.074367
     40 H32        -0.1770   -1.3900    3.8190 hn        1 M0Z      0.510800
     41 H43         0.4870    0.1530    6.3830 hn        1 M0Z      0.519800
     42 H53         4.0750   -0.4100    0.1360 hn        1 M0Z      0.505800
@<TRIPOS>BOND
     1    1    2 1   
     2    1    5 1   
     3    1   13 1   
     4    2    3 2   
     5    3    4 1   
     6    3   10 1   
     7    4    5 2   
     8    4    6 1   
     9    5   25 1   
    10    6    7 1   
    11    6   26 1   
    12    6   40 1   
    13    7    8 1   
    14    7    9 2   
    15    8   27 1   
    16    8   28 1   
    17    8   41 1   
    18   10   11 1   
    19   10   12 2   
    20   11   29 1   
    21   11   30 1   
    22   11   42 1   
    23   13   14 ar  
    24   13   17 ar  
    25   14   15 ar  
    26   14   31 1   
    27   15   16 ar  
    28   15   32 1   
    29   16   18 ar  
    30   16   33 1   
    31   17   18 ar  
    32   17   22 ar  
    33   18   19 ar  
    34   19   20 ar  
    35   19   34 1   
    36   20   21 ar  
    37   20   35 1   
    38   21   22 ar  
    39   21   23 1   
    40   22   36 1   
    41   23   24 1   
    42   24   37 1   
    43   24   38 1   
    44   24   39 1   
@<TRIPOS>SUBSTRUCTURE
     1 M0Z         1 TEMP              0 ****  ****    0 ROOT
