@<TRIPOS>MOLECULE
M0Z
   41    43     1     0     0
SMALL
bcc


@<TRIPOS>ATOM
      1 N1          0.1210    0.2360   -0.1320 na        1 M0Z      0.294300
      2 N2          1.3960    0.5370   -0.0680 nc        1 M0Z     -0.419800
      3 C1          1.7870    0.4010    1.2560 cd        1 M0Z      0.138800
      4 C2          0.6350   -0.0160    2.0500 cd        1 M0Z     -0.073700
      5 C3         -0.4230   -0.1130    1.1170 cc        1 M0Z     -0.112300
      6 N3          0.6490   -0.2500    3.4240 ns        1 M0Z     -0.397100
      7 C4         -0.4940   -0.6430    4.0790 c         1 M0Z      0.646100
      8 N4         -0.4000   -0.8970    5.5830 nz        1 M0Z     -0.741400
      9 O1         -1.6200   -0.8230    3.6110 o         1 M0Z     -0.448100
     10 C5          3.1150    0.6280    1.7560 c         1 M0Z      0.513600
     11 N5          4.1540    1.0360    0.7430 nz        1 M0Z     -0.738400
     12 O2          3.5020    0.5240    2.9170 o         1 M0Z     -0.467100
     13 C6         -0.6520    0.2440   -1.3550 ca        1 M0Z     -0.109200
     14 C7         -1.5170    1.3070   -1.5890 ca        1 M0Z     -0.052000
     15 C8         -2.2880    1.3300   -2.7660 ca        1 M0Z     -0.156000
     16 C9         -2.1800    0.3140   -3.6900 ca        1 M0Z     -0.029000
     17 C10        -0.5050   -0.8320   -2.2920 ca        1 M0Z      0.040000
     18 C11        -1.2970   -0.7730   -3.4740 ca        1 M0Z     -0.079000
     19 C12        -1.1880   -1.8200   -4.4330 ca        1 M0Z     -0.051000
     20 C13        -0.3400   -2.8790   -4.2390 ca        1 M0Z     -0.177000
     21 C14         0.4460   -2.9330   -3.0540 ca        1 M0Z      0.185100
     22 C15         0.3630   -1.9290   -2.0950 ca        1 M0Z     -0.222000
     23 O3          1.3270   -3.9450   -2.7650 os        1 M0Z     -0.328900
     24 C16         1.4170   -5.0130   -3.7110 c3        1 M0Z      0.106700
     25 H1         -1.4750   -0.4000    1.2410 h4        1 M0Z      0.246000
     26 H2          1.5250   -0.1280    3.8950 hn        1 M0Z      0.376500
     27 H4          0.2580   -1.6550    5.7920 hn        1 M0Z      0.486467
     28 H3         -0.1190   -0.0500    6.0880 hn        1 M0Z      0.486467
     29 H5          4.2410    0.3090    0.0210 hn        1 M0Z      0.485133
     30 H6          3.8720    1.9140    0.2880 hn        1 M0Z      0.485133
     31 H7         -1.6190    2.1400   -0.8750 ha        1 M0Z      0.151000
     32 H8         -2.9740    2.1760   -2.9360 ha        1 M0Z      0.170000
     33 H9         -2.7810    0.3360   -4.6150 ha        1 M0Z      0.167000
     34 H10        -1.8070   -1.7620   -5.3450 ha        1 M0Z      0.163000
     35 H11        -0.2660   -3.6810   -4.9900 ha        1 M0Z      0.167000
     36 H12         0.9820   -2.0210   -1.1940 ha        1 M0Z      0.132000
     37 H14         1.7830   -4.6330   -4.6950 h1        1 M0Z      0.062367
     38 H13         2.1700   -5.6990   -3.2450 h1        1 M0Z      0.062367
     39 H15         0.4300   -5.5240   -3.8190 h1        1 M0Z      0.062367
     40 H43        -1.3450   -1.1780    5.9000 hn        1 M0Z      0.486467
     41 H53         5.0640    1.1680    1.2050 hn        1 M0Z      0.485133
@<TRIPOS>BOND
     1    1    2 1   
     2    1    5 1   
     3    1   13 1   
     4    2    3 2   
     5    3    4 1   
     6    3   10 1   
     7    4    5 2   
     8    4    6 1   
     9    5   25 1   
    10    6    7 1   
    11    6   26 1   
    12    7    8 1   
    13    7    9 2   
    14    8   27 1   
    15    8   28 1   
    16    8   40 1   
    17   10   11 1   
    18   10   12 2   
    19   11   29 1   
    20   11   30 1   
    21   11   41 1   
    22   13   14 ar  
    23   13   17 ar  
    24   14   15 ar  
    25   14   31 1   
    26   15   16 ar  
    27   15   32 1   
    28   16   18 ar  
    29   16   33 1   
    30   17   18 ar  
    31   17   22 ar  
    32   18   19 ar  
    33   19   20 ar  
    34   19   34 1   
    35   20   21 ar  
    36   20   35 1   
    37   21   22 ar  
    38   21   23 1   
    39   22   36 1   
    40   23   24 1   
    41   24   37 1   
    42   24   38 1   
    43   24   39 1   
@<TRIPOS>SUBSTRUCTURE
     1 M0Z         1 TEMP              0 ****  ****    0 ROOT
