@<TRIPOS>MOLECULE
M0Z
   41    43     1     0     0
SMALL
bcc


@<TRIPOS>ATOM
      1 N1          0.1240    0.2360   -0.1320 na        1 M0Z      0.294300
      2 N2          1.4000    0.5330   -0.0670 nc        1 M0Z     -0.419800
      3 C1          1.7890    0.3960    1.2570 cd        1 M0Z      0.138800
      4 C2          0.6350   -0.0160    2.0510 cd        1 M0Z     -0.073700
      5 C3         -0.4230   -0.1110    1.1160 cc        1 M0Z     -0.112300
      6 N3          0.6470   -0.2500    3.4250 n         1 M0Z     -0.397100
      7 C4         -0.4980   -0.6390    4.0790 c         1 M0Z      0.646100
      8 N4         -0.4060   -0.8920    5.5830 n4        1 M0Z     -0.741400
      9 O1         -1.6240   -0.8140    3.6100 o         1 M0Z     -0.448100
     10 C5          3.1180    0.6190    1.7580 c         1 M0Z      0.513600
     11 N5          4.1580    1.0230    0.7460 n4        1 M0Z     -0.738400
     12 O2          3.5030    0.5150    2.9200 o         1 M0Z     -0.467100
     13 C6         -0.6480    0.2460   -1.3560 ca        1 M0Z     -0.109200
     14 C7         -1.5120    1.3100   -1.5900 ca        1 M0Z     -0.052000
     15 C8         -2.2810    1.3350   -2.7680 ca        1 M0Z     -0.156000
     16 C9         -2.1740    0.3190   -3.6920 ca        1 M0Z     -0.029000
     17 C10        -0.5030   -0.8300   -2.2930 ca        1 M0Z      0.040000
     18 C11        -1.2940   -0.7690   -3.4750 ca        1 M0Z     -0.079000
     19 C12        -1.1860   -1.8170   -4.4350 ca        1 M0Z     -0.051000
     20 C13        -0.3400   -2.8770   -4.2400 ca        1 M0Z     -0.177000
     21 C14         0.4440   -2.9330   -3.0540 ca        1 M0Z      0.185100
     22 C15         0.3630   -1.9290   -2.0950 ca        1 M0Z     -0.222000
     23 O3          1.3230   -3.9470   -2.7640 os        1 M0Z     -0.328900
     24 C16         1.4110   -5.0160   -3.7100 c3        1 M0Z      0.106700
     25 H1         -1.4760   -0.3940    1.2400 h4        1 M0Z      0.246000
     26 H2          1.5240   -0.1300    3.8960 hn        1 M0Z      0.376500
     27 H4         -0.1220   -0.0460    6.0880 hn        1 M0Z      0.486467
     28 H3         -1.3510   -1.1690    5.8990 hn        1 M0Z      0.486467
     29 H5          5.0690    1.1530    1.2080 hn        1 M0Z      0.485133
     30 H6          3.8800    1.9020    0.2900 hn        1 M0Z      0.485133
     31 H7         -1.6120    2.1440   -0.8760 ha        1 M0Z      0.151000
     32 H8         -2.9650    2.1820   -2.9380 ha        1 M0Z      0.170000
     33 H9         -2.7750    0.3420   -4.6180 ha        1 M0Z      0.167000
     34 H10        -1.8040   -1.7570   -5.3470 ha        1 M0Z      0.163000
     35 H11        -0.2670   -3.6790   -4.9910 ha        1 M0Z      0.167000
     36 H12         0.9800   -2.0230   -1.1940 ha        1 M0Z      0.132000
     37 H14         1.7790   -4.6360   -4.6940 h1        1 M0Z      0.062367
     38 H13         0.4230   -5.5240   -3.8200 h1        1 M0Z      0.062367
     39 H15         2.1620   -5.7040   -3.2440 h1        1 M0Z      0.062367
     40 H43         0.2490   -1.6520    5.7930 hn        1 M0Z      0.486467
     41 H53         4.2430    0.2960    0.0240 hn        1 M0Z      0.485133
@<TRIPOS>BOND
     1    1    2 1   
     2    1    5 1   
     3    1   13 1   
     4    2    3 2   
     5    3    4 1   
     6    3   10 1   
     7    4    5 2   
     8    4    6 1   
     9    5   25 1   
    10    6    7 1   
    11    6   26 1   
    12    7    8 1   
    13    7    9 2   
    14    8   27 1   
    15    8   28 1   
    16    8   40 1   
    17   10   11 1   
    18   10   12 2   
    19   11   29 1   
    20   11   30 1   
    21   11   41 1   
    22   13   14 ar  
    23   13   17 ar  
    24   14   15 ar  
    25   14   31 1   
    26   15   16 ar  
    27   15   32 1   
    28   16   18 ar  
    29   16   33 1   
    30   17   18 ar  
    31   17   22 ar  
    32   18   19 ar  
    33   19   20 ar  
    34   19   34 1   
    35   20   21 ar  
    36   20   35 1   
    37   21   22 ar  
    38   21   23 1   
    39   22   36 1   
    40   23   24 1   
    41   24   37 1   
    42   24   38 1   
    43   24   39 1   
@<TRIPOS>SUBSTRUCTURE
     1 M0Z         1 TEMP              0 ****  ****    0 ROOT
