@<TRIPOS>MOLECULE
M11
   51    51     1     0     0
SMALL
bcc


@<TRIPOS>ATOM
      1 O43         0.6470   -1.3150    0.8510 os        1 M11     -0.532900
      2 C31         1.4670   -0.2720    0.5410 c         1 M11      0.716600
      3 O42         1.2360    0.3580   -0.4850 o         1 M11     -0.592500
      4 C30         2.5180   -0.1410    1.6330 c3        1 M11      0.072100
      5 O29         2.1140   -1.1100    2.6080 os        1 M11     -0.481600
      6 C13         1.1390   -2.0070    2.0610 c3        1 M11      0.697100
      7 O18         1.5580   -3.1730    1.7780 o         1 M11     -0.739500
      8 C12        -0.1450   -1.9670    3.0430 c3        1 M11      0.048500
      9 S17        -1.0580   -2.0160    5.6190 sh        1 M11     -0.468900
     10 C25         0.7740   -3.6850    4.6760 c3        1 M11     -0.114100
     11 N11        -1.0980   -2.9600    2.4390 n4        1 M11     -0.650800
     12 C10        -2.4630   -2.9820    3.0400 c         1 M11      0.559100
     13 O15        -3.2050   -2.0460    2.7630 o         1 M11     -0.458100
     14 C7         -2.8090   -4.1780    3.8830 c3        1 M11     -0.158400
     15 C4         -4.3040   -4.2440    4.1250 c3        1 M11     -0.086400
     16 C3         -4.6360   -5.3970    5.0460 c3        1 M11     -0.097400
     17 C2         -6.1270   -5.5750    5.2440 c3        1 M11     -0.084500
     18 N14        -6.7480   -4.5270    6.1090 n4        1 M11     -0.834600
     19 C1         -6.4080   -7.0290    5.8970 c         1 M11      0.941600
     20 O20        -5.8340   -7.9700    5.3300 o         1 M11     -0.747800
     21 O19        -7.1880   -7.0080    6.8830 o         1 M11     -0.747800
     22 C32         2.5630    1.2450    2.2750 c3        1 M11     -0.059700
     23 C37         3.4410    1.2190    3.5090 c3        1 M11     -0.095100
     24 C33         3.0730    2.2630    1.2770 c3        1 M11     -0.095100
     25 CAV         0.2860   -2.2770    4.4630 c3        1 M11      0.047400
     26 H30         3.5280   -0.4410    1.2430 h1        1 M11      0.092700
     27 H32         1.5170    1.5250    2.5830 hc        1 M11      0.045700
     28 H12        -0.6300   -0.9540    2.9840 hx        1 M11      0.100700
     29 H11        -0.6350   -3.8810    2.4920 hn        1 M11      0.480800
     30 HAV         1.1270   -1.5600    4.6860 h1        1 M11      0.134700
     31 H17        -1.0350   -0.6950    5.7200 hs        1 M11      0.234800
     32 H251        1.4840   -3.9610    3.8480 hc        1 M11      0.068700
     33 H252       -0.0710   -4.4160    4.6920 hc        1 M11      0.068700
     34 H253        1.3160   -3.7600    5.6500 hc        1 M11      0.068700
     35 H7C1       -2.2630   -4.0740    4.8670 hc        1 M11      0.107700
     36 H7C2       -2.4590   -5.1250    3.3910 hc        1 M11      0.107700
     37 H4C1       -4.8380   -4.3690    3.1460 hc        1 M11      0.052700
     38 H4C2       -4.6480   -3.2720    4.5680 hc        1 M11      0.052700
     39 H3C1       -4.2690   -6.3690    4.6030 hc        1 M11      0.091700
     40 H3C2       -4.1120   -5.2730    6.0300 hc        1 M11      0.091700
     41 H2         -6.6620   -5.5680    4.2560 hx        1 M11      0.092700
     42 H141       -6.0360   -4.0200    6.6300 hn        1 M11      0.445800
     43 H142       -7.3610   -5.0460    6.7860 hn        1 M11      0.445800
     44 H371        3.0670    0.4530    4.2310 hc        1 M11      0.042200
     45 H372        3.4360    2.2190    4.0040 hc        1 M11      0.042200
     46 H373        4.4920    0.9610    3.2360 hc        1 M11      0.042200
     47 H331        2.4460    2.2490    0.3510 hc        1 M11      0.042200
     48 H332        3.0350    3.2850    1.7240 hc        1 M11      0.042200
     49 H333        4.1300    2.0400    0.9930 hc        1 M11      0.042200
     50 H112       -1.1620   -2.6980    1.4380 hn        1 M11      0.480800
     51 H143       -7.3050   -3.8750    5.5660 hn        1 M11      0.445800
@<TRIPOS>BOND
     1    1    2 1   
     2    1    6 1   
     3    2    3 2   
     4    2    4 1   
     5    4    5 1   
     6    4   22 1   
     7    4   26 1   
     8    5    6 1   
     9    6    7 1   
    10    6    8 1   
    11    8   11 1   
    12    8   25 1   
    13    8   28 1   
    14    9   25 1   
    15    9   31 1   
    16   10   25 1   
    17   10   32 1   
    18   10   33 1   
    19   10   34 1   
    20   11   12 1   
    21   11   29 1   
    22   11   50 1   
    23   12   13 2   
    24   12   14 1   
    25   14   15 1   
    26   14   35 1   
    27   14   36 1   
    28   15   16 1   
    29   15   37 1   
    30   15   38 1   
    31   16   17 1   
    32   16   39 1   
    33   16   40 1   
    34   17   18 1   
    35   17   19 1   
    36   17   41 1   
    37   18   42 1   
    38   18   43 1   
    39   18   51 1   
    40   19   20 1   
    41   19   21 1   
    42   22   23 1   
    43   22   24 1   
    44   22   27 1   
    45   23   44 1   
    46   23   45 1   
    47   23   46 1   
    48   24   47 1   
    49   24   48 1   
    50   24   49 1   
    51   25   30 1   
@<TRIPOS>SUBSTRUCTURE
     1 M11         1 TEMP              0 ****  ****    0 ROOT
