@<TRIPOS>MOLECULE
M11
   49    48     1     0     0
SMALL
bcc


@<TRIPOS>ATOM
      1 O43        -6.2390    1.2910   -1.4890 o         1 M11     -0.821300
      2 C31        -5.5160    1.8040   -0.5950 c         1 M11      0.924600
      3 O42        -5.5020    3.0210   -0.2730 o         1 M11     -0.821300
      4 C30        -4.5910    0.8600    0.2490 c3        1 M11      0.017100
      5 O29        -3.4720    0.5330   -0.6050 os        1 M11     -0.387900
      6 C13        -2.2550    0.3720   -0.0440 c         1 M11      0.612100
      7 O18        -2.0700    0.5130    1.1710 o         1 M11     -0.576000
      8 C12        -1.1890   -0.0130   -1.0830 c3        1 M11      0.053700
      9 S17        -0.7100   -1.9780   -2.9970 sh        1 M11     -0.446900
     10 C25        -0.9980   -2.4350   -0.3470 c3        1 M11     -0.095100
     11 N11         0.1360    0.2670   -0.5930 n         1 M11     -0.567900
     12 C10         1.1040    0.9100   -1.3400 c         1 M11      0.664100
     13 O15         0.9290    1.1350   -2.5570 o         1 M11     -0.637100
     14 C7          2.3860    1.3100   -0.6360 c3        1 M11     -0.151400
     15 C4          3.1920    0.1130   -0.1730 c3        1 M11     -0.074400
     16 C3          4.5110    0.5580    0.4260 c3        1 M11     -0.064400
     17 C2          5.4000   -0.6200    0.8270 c3        1 M11      0.021500
     18 N14         4.8330   -1.4340    1.8960 n3        1 M11     -0.891800
     19 C1          6.8370   -0.0770    1.1240 c         1 M11      0.886600
     20 O20         7.3790    0.6590    0.2540 o         1 M11     -0.848300
     21 O19         7.3940   -0.4230    2.2070 o         1 M11     -0.848300
     22 C32        -5.3340   -0.4210    0.6330 c3        1 M11     -0.082700
     23 C37        -4.4320   -1.4260    1.3140 c3        1 M11     -0.086100
     24 C33        -6.5040   -0.0680    1.5280 c3        1 M11     -0.086100
     25 CAV        -1.4350   -1.4930   -1.4370 c3        1 M11      0.032400
     26 H30        -4.2250    1.4020    1.1600 h1        1 M11      0.064700
     27 H32        -5.7340   -0.8650   -0.3230 hc        1 M11      0.076700
     28 H12        -1.3760    0.6070   -2.0160 h1        1 M11      0.123700
     29 H11         0.2860    0.1270    0.3810 hn        1 M11      0.330500
     30 HAV        -2.5430   -1.6030   -1.6110 h1        1 M11      0.107700
     31 H17         0.2590   -1.0710   -3.1080 hs        1 M11      0.252800
     32 H251       -1.3950   -2.0860    0.6410 hc        1 M11      0.046033
     33 H252       -1.3890   -3.4620   -0.5470 hc        1 M11      0.046033
     34 H253        0.1160   -2.4920   -0.2810 hc        1 M11      0.046033
     35 H7C1        2.9900    1.9160   -1.3620 hc        1 M11      0.068200
     36 H7C2        2.1400    1.9680    0.2380 hc        1 M11      0.068200
     37 H4C1        2.6100   -0.4730    0.5840 hc        1 M11      0.045700
     38 H4C2        3.3880   -0.5670   -1.0430 hc        1 M11      0.045700
     39 H3C1        5.0890    1.1650   -0.3220 hc        1 M11      0.047700
     40 H3C2        4.3190    1.2140    1.3140 hc        1 M11      0.047700
     41 H2          5.5020   -1.3020   -0.0680 h1        1 M11      0.042700
     42 H141        5.5810   -1.9980    2.2680 hn        1 M11      0.329800
     43 H142        4.5420   -0.8260    2.6410 hn        1 M11      0.329800
     44 H371       -3.9370   -0.9680    2.2050 hc        1 M11      0.025867
     45 H372       -5.0160   -2.3190    1.6420 hc        1 M11      0.025867
     46 H373       -3.6300   -1.7630    0.6100 hc        1 M11      0.025867
     47 H331       -7.1520    0.6850    1.0140 hc        1 M11      0.025867
     48 H332       -7.1100   -0.9790    1.7500 hc        1 M11      0.025867
     49 H333       -6.1460    0.3650    2.4930 hc        1 M11      0.025867
@<TRIPOS>BOND
     1    1    2 1   
     2    2    3 1   
     3    2    4 1   
     4    4    5 1   
     5    4   22 1   
     6    4   26 1   
     7    5    6 1   
     8    6    7 2   
     9    6    8 1   
    10    8   11 1   
    11    8   25 1   
    12    8   28 1   
    13    9   25 1   
    14    9   31 1   
    15   10   25 1   
    16   10   32 1   
    17   10   33 1   
    18   10   34 1   
    19   11   12 1   
    20   11   29 1   
    21   12   13 2   
    22   12   14 1   
    23   14   15 1   
    24   14   35 1   
    25   14   36 1   
    26   15   16 1   
    27   15   37 1   
    28   15   38 1   
    29   16   17 1   
    30   16   39 1   
    31   16   40 1   
    32   17   18 1   
    33   17   19 1   
    34   17   41 1   
    35   18   42 1   
    36   18   43 1   
    37   19   20 1   
    38   19   21 1   
    39   22   23 1   
    40   22   24 1   
    41   22   27 1   
    42   23   44 1   
    43   23   45 1   
    44   23   46 1   
    45   24   47 1   
    46   24   48 1   
    47   24   49 1   
    48   25   30 1   
@<TRIPOS>SUBSTRUCTURE
     1 M11         1 TEMP              0 ****  ****    0 ROOT
