@<TRIPOS>MOLECULE
M11
   49    47     1     0     0
SMALL
bcc


@<TRIPOS>ATOM
      1 O43        -2.0310    2.6180   -3.1620 o         1 M11     -0.574000
      2 C31        -1.4060    3.3330   -2.3360 c1        1 M11      0.340000
      3 O42        -0.5390    4.1520   -2.7400 os        1 M11     -0.567000
      4 C30        -1.6970    3.2100   -0.8570 c3        1 M11     -0.042000
      5 O29        -2.2350    1.9380   -0.5890 os        1 M11     -0.258000
      6 C13        -1.4360    1.1480    0.2540 c2        1 M11      0.293000
      7 O18        -0.6510    1.6760    1.0160 o         1 M11     -0.369000
      8 C12        -1.5320   -0.3600    0.1920 c3        1 M11      0.039000
      9 S17        -3.8680    0.6200    1.0880 sh        1 M11     -0.175000
     10 C25        -3.5670   -1.6830   -0.2660 c3        1 M11     -0.201000
     11 N11        -0.4850   -0.9330    0.9610 n         1 M11     -0.376000
     12 C10         0.5420   -1.6740    0.3210 c2        1 M11      0.309000
     13 O15         0.5540   -1.7740   -0.8900 o         1 M11     -0.390000
     14 C7          1.6050   -2.3630    1.1480 c3        1 M11     -0.181000
     15 C4          2.8540   -2.5460    0.3130 c3        1 M11     -0.153000
     16 C3          3.8520   -3.3880    1.0760 c3        1 M11     -0.144000
     17 C2          5.0940   -3.5820    0.2370 c3        1 M11     -0.125000
     18 N14         5.2170   -4.9540   -0.1190 n3        1 M11     -0.324000
     19 C1          6.3090   -3.1550    1.0280 c2        1 M11      0.306000
     20 O20         7.0340   -2.2150    0.6100 o         1 M11     -0.583500
     21 O19         6.5850   -3.7280    2.1150 o         1 M11     -0.583500
     22 C32        -2.6910    4.2740   -0.4480 c3        1 M11     -0.085000
     23 C37        -1.9600    5.5720   -0.1850 c3        1 M11     -0.210000
     24 C33        -3.6970    4.4770   -1.5590 c3        1 M11     -0.210000
     25 CAV        -2.8660   -0.8040    0.7470 c3        1 M11     -0.179000
     26 H30        -0.8690    3.3260   -0.3510 h1        1 M11      0.107000
     27 H32        -3.1550    3.9910    0.3630 hc        1 M11      0.063000
     28 H12        -1.4520   -0.6530   -0.7370 h1        1 M11      0.160000
     29 H11        -0.4840   -0.8430    1.8690 hn        1 M11      0.233000
     30 HAV        -2.7250   -1.3070    1.5720 h1        1 M11      0.137000
     31 H17        -4.6280    0.3670    1.9520 hs        1 M11      0.175000
     32 H251       -2.9720   -2.4160   -0.5290 hc        1 M11      0.082667
     33 H252       -3.7990   -1.1500   -1.0550 hc        1 M11      0.082667
     34 H253       -4.3840   -2.0510    0.1310 hc        1 M11      0.082667
     35 H7C1        1.8140   -1.8160    1.9310 hc        1 M11      0.103000
     36 H7C2        1.2760   -3.2370    1.4380 hc        1 M11      0.103000
     37 H4C1        2.6230   -2.9940   -0.5260 hc        1 M11      0.084500
     38 H4C2        3.2460   -1.6710    0.1180 hc        1 M11      0.084500
     39 H3C1        3.4560   -4.2590    1.2790 hc        1 M11      0.086000
     40 H3C2        4.0900   -2.9360    1.9100 hc        1 M11      0.086000
     41 H2          5.0270   -3.0400   -0.5740 h1        1 M11      0.082000
     42 H141        5.0250   -5.0570   -1.0080 hn        1 M11      0.125500
     43 H142        6.0730   -5.2360    0.0440 hn        1 M11      0.125500
     44 H371       -2.5860    6.2310    0.1830 hc        1 M11      0.073333
     45 H372       -1.2360    5.4160    0.4570 hc        1 M11      0.073333
     46 H373       -1.5850    5.9120   -1.0250 hc        1 M11      0.073333
     47 H331       -4.4090    5.0750   -1.2490 hc        1 M11      0.073333
     48 H332       -4.0830    3.6130   -1.8130 hc        1 M11      0.073333
     49 H333       -3.2500    4.8760   -2.3350 hc        1 M11      0.073333
@<TRIPOS>BOND
     1    1    2 1   
     2    2    4 1   
     3    4    5 1   
     4    4   22 1   
     5    4   26 1   
     6    5    6 1   
     7    6    7 1   
     8    6    8 1   
     9    8   11 1   
    10    8   25 1   
    11    8   28 1   
    12    9   25 1   
    13    9   31 1   
    14   10   25 1   
    15   10   32 1   
    16   10   33 1   
    17   10   34 1   
    18   11   12 1   
    19   11   29 1   
    20   12   13 1   
    21   12   14 1   
    22   14   15 1   
    23   14   35 1   
    24   14   36 1   
    25   15   16 1   
    26   15   37 1   
    27   15   38 1   
    28   16   17 1   
    29   16   39 1   
    30   16   40 1   
    31   17   18 1   
    32   17   19 1   
    33   17   41 1   
    34   18   42 1   
    35   18   43 1   
    36   19   20 1   
    37   19   21 1   
    38   22   23 1   
    39   22   24 1   
    40   22   27 1   
    41   23   44 1   
    42   23   45 1   
    43   23   46 1   
    44   24   47 1   
    45   24   48 1   
    46   24   49 1   
    47   25   30 1   
@<TRIPOS>SUBSTRUCTURE
     1 M11         1 TEMP              0 ****  ****    0 ROOT
