@<TRIPOS>MOLECULE
M11
   51    51     1     0     0
SMALL
bcc


@<TRIPOS>ATOM
      1 O43         0.8290   -1.5310    0.8300 os        1 M11     -0.529900
      2 C31         1.5640   -0.4250    0.5230 c         1 M11      0.716600
      3 O42         1.3500    0.1290   -0.5500 o         1 M11     -0.591500
      4 C30         2.5140   -0.1390    1.6750 c3        1 M11      0.072100
      5 O29         2.1580   -1.1170    2.6600 os        1 M11     -0.477600
      6 C13         1.2820   -2.1080    2.1100 c3        1 M11      0.699100
      7 O18         1.7940   -3.2580    1.9380 o         1 M11     -0.738500
      8 C12        -0.0730   -2.1030    3.0070 c3        1 M11      0.053500
      9 S17        -1.0970   -1.8290    5.4740 sh        1 M11     -0.480900
     10 C25         0.7930   -3.6940    4.7920 c3        1 M11     -0.129100
     11 N11        -0.9120   -3.1880    2.3870 ny        1 M11     -0.651800
     12 C10        -2.3420   -3.2180    2.8070 c         1 M11      0.549100
     13 O15        -3.1000   -2.4420    2.2320 o         1 M11     -0.453100
     14 C7         -2.7150   -4.1960    3.8830 c3        1 M11     -0.175400
     15 C4         -4.2190   -4.3560    3.9660 c3        1 M11     -0.085400
     16 C3         -4.5900   -5.1930    5.1700 c3        1 M11     -0.096400
     17 C2         -6.0720   -5.4990    5.2370 c3        1 M11     -0.083500
     18 N14        -6.9150   -4.3160    5.5810 nz        1 M11     -0.834600
     19 C1         -6.3220   -6.6620    6.3340 c         1 M11      0.941600
     20 O20        -5.5900   -7.6540    6.2120 o         1 M11     -0.748800
     21 O19        -7.2380   -6.4060    7.1560 o         1 M11     -0.748800
     22 C32         2.3570    1.2640    2.2610 c3        1 M11     -0.061700
     23 C37         3.1430    1.3800    3.5500 c3        1 M11     -0.094600
     24 C33         2.8170    2.3000    1.2570 c3        1 M11     -0.094600
     25 CAV         0.3060   -2.3110    4.4590 c3        1 M11      0.047400
     26 H30         3.5760   -0.3330    1.3660 h1        1 M11      0.092700
     27 H32         1.2670    1.4300    2.4880 hc        1 M11      0.049700
     28 H12        -0.6150   -1.1270    2.8690 hx        1 M11      0.114700
     29 H11        -0.8570   -3.0150    1.3660 hn        1 M11      0.480300
     30 HAV         1.1410   -1.5750    4.6540 h1        1 M11      0.137700
     31 H17        -0.5290   -1.8680    6.6720 hs        1 M11      0.247800
     32 H251        1.5530   -4.0140    4.0260 hc        1 M11      0.065367
     33 H252        1.2840   -3.7000    5.7960 hc        1 M11      0.065367
     34 H253       -0.0440   -4.4340    4.8130 hc        1 M11      0.065367
     35 H7C1       -2.3080   -3.7810    4.8600 hc        1 M11      0.116700
     36 H7C2       -2.2300   -5.1930    3.7040 hc        1 M11      0.116700
     37 H4C1       -4.5970   -4.8430    3.0280 hc        1 M11      0.051700
     38 H4C2       -4.6950   -3.3410    4.0280 hc        1 M11      0.051700
     39 H3C1       -4.0730   -6.1960    5.1240 hc        1 M11      0.090700
     40 H3C2       -4.2420   -4.6930    6.1120 hc        1 M11      0.090700
     41 H2         -6.4370   -5.9090    4.2550 hx        1 M11      0.092700
     42 H141       -7.5690   -4.6440    6.3350 hn        1 M11      0.445800
     43 H142       -6.3440   -3.5570    5.9460 hn        1 M11      0.445800
     44 H371        4.2340    1.2350    3.3580 hc        1 M11      0.042033
     45 H372        2.8070    0.6010    4.2760 hc        1 M11      0.042033
     46 H373        2.9910    2.3890    4.0020 hc        1 M11      0.042033
     47 H331        2.6310    3.3250    1.6580 hc        1 M11      0.042033
     48 H332        3.9100    2.1920    1.0540 hc        1 M11      0.042033
     49 H333        2.2640    2.1820    0.2930 hc        1 M11      0.042033
     50 H112       -0.4350   -4.0810    2.5790 hn        1 M11      0.480300
     51 H143       -7.4470   -3.9890    4.7800 hn        1 M11      0.445800
@<TRIPOS>BOND
     1    1    2 1   
     2    1    6 1   
     3    2    3 2   
     4    2    4 1   
     5    4    5 1   
     6    4   22 1   
     7    4   26 1   
     8    5    6 1   
     9    6    7 1   
    10    6    8 1   
    11    8   11 1   
    12    8   25 1   
    13    8   28 1   
    14    9   25 1   
    15    9   31 1   
    16   10   25 1   
    17   10   32 1   
    18   10   33 1   
    19   10   34 1   
    20   11   12 1   
    21   11   29 1   
    22   11   50 1   
    23   12   13 2   
    24   12   14 1   
    25   14   15 1   
    26   14   35 1   
    27   14   36 1   
    28   15   16 1   
    29   15   37 1   
    30   15   38 1   
    31   16   17 1   
    32   16   39 1   
    33   16   40 1   
    34   17   18 1   
    35   17   19 1   
    36   17   41 1   
    37   18   42 1   
    38   18   43 1   
    39   18   51 1   
    40   19   20 1   
    41   19   21 1   
    42   22   23 1   
    43   22   24 1   
    44   22   27 1   
    45   23   44 1   
    46   23   45 1   
    47   23   46 1   
    48   24   47 1   
    49   24   48 1   
    50   24   49 1   
    51   25   30 1   
@<TRIPOS>SUBSTRUCTURE
     1 M11         1 TEMP              0 ****  ****    0 ROOT
