@<TRIPOS>MOLECULE
M11
   51    51     1     0     0
SMALL
bcc


@<TRIPOS>ATOM
      1 O43         0.7630   -1.4550    0.8110 os        1 M11     -0.529900
      2 C31         1.4970   -0.3440    0.5210 c         1 M11      0.716600
      3 O42         1.2600    0.2460   -0.5270 o         1 M11     -0.591500
      4 C30         2.4790   -0.1010    1.6560 c3        1 M11      0.072100
      5 O29         2.1430   -1.1090    2.6180 os        1 M11     -0.477600
      6 C13         1.2460   -2.0760    2.0600 c3        1 M11      0.699100
      7 O18         1.7440   -3.2230    1.8370 o         1 M11     -0.738500
      8 C12        -0.0860   -2.0920    2.9920 c3        1 M11      0.053500
      9 S17        -1.0430   -1.8910    5.4930 sh        1 M11     -0.480900
     10 C25         0.8140   -3.7450    4.7010 c3        1 M11     -0.129100
     11 N11        -0.9490   -3.1510    2.3590 n4        1 M11     -0.651800
     12 C10        -2.3680   -3.1840    2.8140 c         1 M11      0.549100
     13 O15        -3.1340   -2.3850    2.2840 o         1 M11     -0.453100
     14 C7         -2.7200   -4.1940    3.8680 c3        1 M11     -0.175400
     15 C4         -4.2230   -4.3460    3.9850 c3        1 M11     -0.085400
     16 C3         -4.5700   -5.2180    5.1710 c3        1 M11     -0.096400
     17 C2         -6.0510   -5.5150    5.2670 c3        1 M11     -0.083500
     18 N14        -6.8760   -4.3370    5.6700 n4        1 M11     -0.834600
     19 C1         -6.2820   -6.7090    6.3340 c         1 M11      0.941600
     20 O20        -5.5620   -7.7040    6.1600 o         1 M11     -0.748800
     21 O19        -7.1740   -6.4720    7.1880 o         1 M11     -0.748800
     22 C32         2.3470    1.2830    2.2910 c3        1 M11     -0.061700
     23 C37         3.1670    1.3520    3.5620 c3        1 M11     -0.094600
     24 C33         2.7880    2.3480    1.3100 c3        1 M11     -0.094600
     25 CAV         0.3300   -2.3490    4.4260 c3        1 M11      0.047400
     26 H30         3.5310   -0.2910    1.3130 h1        1 M11      0.092700
     27 H32         1.2650    1.4480    2.5530 hc        1 M11      0.049700
     28 H12        -0.6240   -1.1090    2.9000 hx        1 M11      0.114700
     29 H11        -0.4740   -4.0520    2.5100 hn        1 M11      0.480300
     30 HAV         1.1750   -1.6250    4.6220 h1        1 M11      0.137700
     31 H17        -0.4440   -1.9740    6.6730 hs        1 M11      0.247800
     32 H251        1.5520   -4.0450    3.9050 hc        1 M11      0.065367
     33 H252        1.3320   -3.7880    5.6900 hc        1 M11      0.065367
     34 H253       -0.0270   -4.4810    4.7190 hc        1 M11      0.065367
     35 H7C1       -2.2480   -5.1880    3.6440 hc        1 M11      0.116700
     36 H7C2       -2.2850   -3.8140    4.8470 hc        1 M11      0.116700
     37 H4C1       -4.6290   -4.8000    3.0420 hc        1 M11      0.051700
     38 H4C2       -4.6890   -3.3300    4.0910 hc        1 M11      0.051700
     39 H3C1       -4.1930   -4.7500    6.1190 hc        1 M11      0.090700
     40 H3C2       -4.0620   -6.2220    5.0800 hc        1 M11      0.090700
     41 H2         -6.4450   -5.8910    4.2830 hx        1 M11      0.092700
     42 H141       -7.5130   -4.6830    6.4310 hn        1 M11      0.445800
     43 H142       -6.2890   -3.5940    6.0430 hn        1 M11      0.445800
     44 H371        2.8440    0.5520    4.2720 hc        1 M11      0.042033
     45 H372        3.0340    2.3470    4.0510 hc        1 M11      0.042033
     46 H373        4.2510    1.2070    3.3370 hc        1 M11      0.042033
     47 H331        2.6190    3.3610    1.7480 hc        1 M11      0.042033
     48 H332        2.2080    2.2650    0.3570 hc        1 M11      0.042033
     49 H333        3.8740    2.2410    1.0750 hc        1 M11      0.042033
     50 H112       -0.9180   -2.9450    1.3420 hn        1 M11      0.480300
     51 H143       -7.4260   -3.9810    4.8940 hn        1 M11      0.445800
@<TRIPOS>BOND
     1    1    2 1   
     2    1    6 1   
     3    2    3 2   
     4    2    4 1   
     5    4    5 1   
     6    4   22 1   
     7    4   26 1   
     8    5    6 1   
     9    6    7 1   
    10    6    8 1   
    11    8   11 1   
    12    8   25 1   
    13    8   28 1   
    14    9   25 1   
    15    9   31 1   
    16   10   25 1   
    17   10   32 1   
    18   10   33 1   
    19   10   34 1   
    20   11   12 1   
    21   11   29 1   
    22   11   50 1   
    23   12   13 2   
    24   12   14 1   
    25   14   15 1   
    26   14   35 1   
    27   14   36 1   
    28   15   16 1   
    29   15   37 1   
    30   15   38 1   
    31   16   17 1   
    32   16   39 1   
    33   16   40 1   
    34   17   18 1   
    35   17   19 1   
    36   17   41 1   
    37   18   42 1   
    38   18   43 1   
    39   18   51 1   
    40   19   20 1   
    41   19   21 1   
    42   22   23 1   
    43   22   24 1   
    44   22   27 1   
    45   23   44 1   
    46   23   45 1   
    47   23   46 1   
    48   24   47 1   
    49   24   48 1   
    50   24   49 1   
    51   25   30 1   
@<TRIPOS>SUBSTRUCTURE
     1 M11         1 TEMP              0 ****  ****    0 ROOT
