@<TRIPOS>MOLECULE
M12
   37    36     1     0     0
SMALL
bcc


@<TRIPOS>ATOM
      1 C1         -5.6300   -0.1580    0.0810 c         1 M12      0.907600
      2 O1         -5.6850   -1.3110    0.6000 o         1 M12     -0.853800
      3 C2         -4.3310    0.6540    0.2310 c3        1 M12     -0.193400
      4 C3         -3.1190   -0.1870   -0.0810 c3        1 M12     -0.065400
      5 C4         -1.8290    0.5390    0.2380 c3        1 M12     -0.078400
      6 C5         -0.6180   -0.3060   -0.0970 c3        1 M12     -0.078400
      7 C6          0.6710    0.4160    0.2300 c3        1 M12     -0.078400
      8 C7          1.8800   -0.4300   -0.1070 c3        1 M12     -0.079400
      9 C8          3.1700    0.2920    0.2220 c3        1 M12     -0.079400
     10 C9          4.3750   -0.5570   -0.1190 c3        1 M12     -0.075400
     11 C10         5.6880    0.1320    0.2290 c3        1 M12     -0.068700
     12 C11         6.8120   -0.8830    0.2830 c3        1 M12     -0.088600
     13 C12         6.0200    1.2230   -0.7670 c3        1 M12     -0.088600
     14 OXT        -6.5910    0.3800   -0.5410 o         1 M12     -0.853800
     15 H21C       -4.3710    1.5460   -0.4440 hc        1 M12      0.018700
     16 H22C       -4.2790    1.0240    1.2860 hc        1 M12      0.018700
     17 H31C       -3.1810   -1.1410    0.5090 hc        1 M12      0.043700
     18 H32C       -3.1300   -0.4700   -1.1660 hc        1 M12      0.043700
     19 H41C       -1.7850    1.5010   -0.3390 hc        1 M12      0.025700
     20 H42C       -1.8090    0.8080    1.3270 hc        1 M12      0.025700
     21 H51C       -0.6660   -1.2690    0.4760 hc        1 M12      0.036700
     22 H52C       -0.6350   -0.5700   -1.1870 hc        1 M12      0.036700
     23 H61C        0.7170    1.3810   -0.3410 hc        1 M12      0.034200
     24 H62C        0.6890    0.6790    1.3210 hc        1 M12      0.034200
     25 H71C        1.8330   -1.3950    0.4650 hc        1 M12      0.037200
     26 H72C        1.8630   -0.6920   -1.1970 hc        1 M12      0.037200
     27 H81C        3.2110    1.2580   -0.3470 hc        1 M12      0.037200
     28 H82C        3.1860    0.5510    1.3130 hc        1 M12      0.037200
     29 H91C        4.3100   -1.5260    0.4440 hc        1 M12      0.039200
     30 H92C        4.3640   -0.8080   -1.2120 hc        1 M12      0.039200
     31 H10         5.5840    0.6010    1.2480 hc        1 M12      0.045700
     32 H111        6.9180   -1.4010   -0.7000 hc        1 M12      0.030700
     33 H112        7.7790   -0.3790    0.5240 hc        1 M12      0.030700
     34 H113        6.6070   -1.6510    1.0670 hc        1 M12      0.030700
     35 H121        6.1320    0.7970   -1.7930 hc        1 M12      0.030700
     36 H122        5.2100    1.9920   -0.7900 hc        1 M12      0.030700
     37 H123        6.9770    1.7250   -0.4870 hc        1 M12      0.030700
@<TRIPOS>BOND
     1    1    2 1   
     2    1    3 1   
     3    1   14 1   
     4    3    4 1   
     5    3   15 1   
     6    3   16 1   
     7    4    5 1   
     8    4   17 1   
     9    4   18 1   
    10    5    6 1   
    11    5   19 1   
    12    5   20 1   
    13    6    7 1   
    14    6   21 1   
    15    6   22 1   
    16    7    8 1   
    17    7   23 1   
    18    7   24 1   
    19    8    9 1   
    20    8   25 1   
    21    8   26 1   
    22    9   10 1   
    23    9   27 1   
    24    9   28 1   
    25   10   11 1   
    26   10   29 1   
    27   10   30 1   
    28   11   12 1   
    29   11   13 1   
    30   11   31 1   
    31   12   32 1   
    32   12   33 1   
    33   12   34 1   
    34   13   35 1   
    35   13   36 1   
    36   13   37 1   
@<TRIPOS>SUBSTRUCTURE
     1 M12         1 TEMP              0 ****  ****    0 ROOT
