@<TRIPOS>MOLECULE
M12
   37    36     1     0     0
SMALL
bcc


@<TRIPOS>ATOM
      1 C1          0.0320    0.0680   -0.0600 c         1 M12      0.907600
      2 O1          0.9130    0.9710   -0.1530 o         1 M12     -0.853800
      3 C2         -0.7270   -0.0840    1.2710 c3        1 M12     -0.193400
      4 C3          0.2180   -0.0620    2.4470 c3        1 M12     -0.065400
      5 C4         -0.5240   -0.0250    3.7670 c3        1 M12     -0.078400
      6 C5          0.4320   -0.0230    4.9410 c3        1 M12     -0.078400
      7 C6         -0.3080    0.0230    6.2600 c3        1 M12     -0.078400
      8 C7          0.6500    0.0250    7.4320 c3        1 M12     -0.079400
      9 C8         -0.0910    0.0700    8.7520 c3        1 M12     -0.079400
     10 C9          0.8710    0.0750    9.9210 c3        1 M12     -0.075400
     11 C10         0.1540    0.0890   11.2630 c3        1 M12     -0.068700
     12 C11         1.1020   -0.3360   12.3660 c3        1 M12     -0.088600
     13 C12        -0.4200    1.4570   11.5690 c3        1 M12     -0.088600
     14 OXT        -0.2800   -0.7110   -1.0060 o         1 M12     -0.853800
     15 H21C       -1.3120   -1.0370    1.2580 hc        1 M12      0.018700
     16 H22C       -1.4540    0.7650    1.3490 hc        1 M12      0.018700
     17 H31C        0.8760   -0.9700    2.4130 hc        1 M12      0.043700
     18 H32C        0.8870    0.8350    2.3540 hc        1 M12      0.043700
     19 H41C       -1.2070   -0.9120    3.8410 hc        1 M12      0.025700
     20 H42C       -1.1700    0.8910    3.8090 hc        1 M12      0.025700
     21 H51C        1.1180    0.8620    4.8620 hc        1 M12      0.036700
     22 H52C        1.0750   -0.9420    4.9020 hc        1 M12      0.036700
     23 H61C       -0.9500    0.9430    6.2980 hc        1 M12      0.034200
     24 H62C       -0.9940   -0.8610    6.3370 hc        1 M12      0.034200
     25 H71C        1.3350    0.9100    7.3550 hc        1 M12      0.037200
     26 H72C        1.2930   -0.8940    7.3930 hc        1 M12      0.037200
     27 H81C       -0.7730   -0.8170    8.8280 hc        1 M12      0.037200
     28 H82C       -0.7360    0.9870    8.7860 hc        1 M12      0.037200
     29 H91C        1.5210   -0.8380    9.8620 hc        1 M12      0.038700
     30 H92C        1.5470    0.9680    9.8490 hc        1 M12      0.038700
     31 H10        -0.6950   -0.6510   11.2200 hc        1 M12      0.045700
     32 H111        1.4730   -1.3730   12.1840 hc        1 M12      0.030867
     33 H112        1.9810    0.3510   12.4120 hc        1 M12      0.030867
     34 H113        0.5830   -0.3130   13.3540 hc        1 M12      0.030867
     35 H121       -1.1440    1.7640   10.7760 hc        1 M12      0.030867
     36 H122       -0.9540    1.4420   12.5500 hc        1 M12      0.030867
     37 H123        0.3920    2.2210   11.6200 hc        1 M12      0.030867
@<TRIPOS>BOND
     1    1    2 1   
     2    1    3 1   
     3    1   14 1   
     4    3    4 1   
     5    3   15 1   
     6    3   16 1   
     7    4    5 1   
     8    4   17 1   
     9    4   18 1   
    10    5    6 1   
    11    5   19 1   
    12    5   20 1   
    13    6    7 1   
    14    6   21 1   
    15    6   22 1   
    16    7    8 1   
    17    7   23 1   
    18    7   24 1   
    19    8    9 1   
    20    8   25 1   
    21    8   26 1   
    22    9   10 1   
    23    9   27 1   
    24    9   28 1   
    25   10   11 1   
    26   10   29 1   
    27   10   30 1   
    28   11   12 1   
    29   11   13 1   
    30   11   31 1   
    31   12   32 1   
    32   12   33 1   
    33   12   34 1   
    34   13   35 1   
    35   13   36 1   
    36   13   37 1   
@<TRIPOS>SUBSTRUCTURE
     1 M12         1 TEMP              0 ****  ****    0 ROOT
