@<TRIPOS>MOLECULE
M12
   37    36     1     0     0
SMALL
bcc


@<TRIPOS>ATOM
      1 C1          0.0390   -0.1750   -0.0580 c         1 M12      0.907600
      2 O1          0.9930   -1.0040   -0.1300 o         1 M12     -0.853800
      3 C2         -0.7280   -0.0530    1.2710 c3        1 M12     -0.193400
      4 C3          0.2160    0.0360    2.4440 c3        1 M12     -0.065400
      5 C4         -0.5180   -0.0290    3.7670 c3        1 M12     -0.078400
      6 C5          0.4360    0.0800    4.9370 c3        1 M12     -0.078400
      7 C6         -0.2960    0.0070    6.2600 c3        1 M12     -0.078400
      8 C7          0.6600    0.1180    7.4280 c3        1 M12     -0.079400
      9 C8         -0.0740    0.0440    8.7510 c3        1 M12     -0.079400
     10 C9          0.8860    0.1570    9.9160 c3        1 M12     -0.075400
     11 C10         0.1810    0.0550   11.2610 c3        1 M12     -0.068700
     12 C11         1.1820   -0.2590   12.3540 c3        1 M12     -0.088600
     13 C12        -0.5670    1.3310   11.5920 c3        1 M12     -0.088600
     14 OXT        -0.3380    0.5490   -1.0240 o         1 M12     -0.853800
     15 H21C       -1.3810   -0.9570    1.3730 hc        1 M12      0.018700
     16 H22C       -1.3910    0.8470    1.2340 hc        1 M12      0.018700
     17 H31C        0.9580   -0.8040    2.3730 hc        1 M12      0.043700
     18 H32C        0.7960    0.9940    2.3850 hc        1 M12      0.043700
     19 H41C       -1.0850   -0.9950    3.8350 hc        1 M12      0.025700
     20 H42C       -1.2730    0.8000    3.8200 hc        1 M12      0.025700
     21 H51C        0.9990    1.0480    4.8720 hc        1 M12      0.036700
     22 H52C        1.1930   -0.7460    4.8800 hc        1 M12      0.036700
     23 H61C       -1.0550    0.8320    6.3150 hc        1 M12      0.034200
     24 H62C       -0.8580   -0.9620    6.3250 hc        1 M12      0.034200
     25 H71C        1.2210    1.0870    7.3630 hc        1 M12      0.037200
     26 H72C        1.4180   -0.7070    7.3710 hc        1 M12      0.037200
     27 H81C       -0.6320   -0.9270    8.8150 hc        1 M12      0.037200
     28 H82C       -0.8350    0.8660    8.8030 hc        1 M12      0.037200
     29 H91C        1.6510   -0.6610    9.8400 hc        1 M12      0.039200
     30 H92C        1.4380    1.1320    9.8570 hc        1 M12      0.039200
     31 H10        -0.5640   -0.7890   11.2100 hc        1 M12      0.045700
     32 H111        1.6850   -1.2360   12.1530 hc        1 M12      0.030700
     33 H112        1.9640    0.5360   12.4080 hc        1 M12      0.030700
     34 H113        0.6710   -0.3210   13.3440 hc        1 M12      0.030700
     35 H121       -1.3290    1.5520   10.8070 hc        1 M12      0.030700
     36 H122       -1.0880    1.2300   12.5740 hc        1 M12      0.030700
     37 H123        0.1390    2.1940   11.6530 hc        1 M12      0.030700
@<TRIPOS>BOND
     1    1    2 1   
     2    1    3 1   
     3    1   14 1   
     4    3    4 1   
     5    3   15 1   
     6    3   16 1   
     7    4    5 1   
     8    4   17 1   
     9    4   18 1   
    10    5    6 1   
    11    5   19 1   
    12    5   20 1   
    13    6    7 1   
    14    6   21 1   
    15    6   22 1   
    16    7    8 1   
    17    7   23 1   
    18    7   24 1   
    19    8    9 1   
    20    8   25 1   
    21    8   26 1   
    22    9   10 1   
    23    9   27 1   
    24    9   28 1   
    25   10   11 1   
    26   10   29 1   
    27   10   30 1   
    28   11   12 1   
    29   11   13 1   
    30   11   31 1   
    31   12   32 1   
    32   12   33 1   
    33   12   34 1   
    34   13   35 1   
    35   13   36 1   
    36   13   37 1   
@<TRIPOS>SUBSTRUCTURE
     1 M12         1 TEMP              0 ****  ****    0 ROOT
