@<TRIPOS>MOLECULE
M13
   48    49     1     0     0
SMALL
bcc


@<TRIPOS>ATOM
      1 O10         0.2980    0.8210    0.2220 oh        1 M13     -0.598800
      2 C12         1.5860    0.2270    0.1950 c3        1 M13      0.134400
      3 C11         2.0400    0.0870    1.6480 c3        1 M13      0.150100
      4 O11         1.5270   -1.1650    2.1140 os        1 M13     -0.446600
      5 C7          1.8050   -1.3860    3.4930 c3        1 M13      0.301900
      6 O7          1.2560   -2.6670    3.7080 os        1 M13     -0.411600
      7 CM         -0.1660   -2.6980    3.6540 c3        1 M13      0.119700
      8 C10         3.5750    0.0580    1.7520 c3        1 M13      0.117100
      9 O9          4.0530    1.2960    1.2660 oh        1 M13     -0.594800
     10 C9          4.0120   -0.2150    3.2010 c3        1 M13      0.076100
     11 C8          3.3210   -1.4800    3.7510 c3        1 M13      0.113100
     12 O8          3.9110   -2.6210    3.1660 oh        1 M13     -0.584800
     13 O1          3.6220    0.9050    4.0030 os        1 M13     -0.434600
     14 C1          4.5610    1.2460    5.0040 c3        1 M13      0.295900
     15 O6          5.6700    1.8220    4.3460 os        1 M13     -0.440600
     16 C2          3.8760    2.2030    5.9990 c3        1 M13      0.094100
     17 O2          4.6430    2.2890    7.1860 oh        1 M13     -0.591800
     18 C3          3.6660    3.5970    5.3930 c3        1 M13      0.075100
     19 O3          3.2390    4.5330    6.3610 oh        1 M13     -0.593800
     20 C4          4.9580    4.0970    4.7210 c3        1 M13      0.088100
     21 O4          4.7520    5.3290    4.0560 oh        1 M13     -0.592800
     22 C5          5.3910    3.0580    3.6760 c3        1 M13      0.127100
     23 C6          6.6830    3.4640    2.9690 c3        1 M13      0.137400
     24 O5          6.7590    2.6850    1.7840 oh        1 M13     -0.612800
     25 HO10       -0.0060    0.8540   -0.6930 ho        1 M13      0.402000
     26 H121        2.3060    0.8950   -0.3500 h1        1 M13      0.046700
     27 H122        1.5420   -0.7800   -0.2990 h1        1 M13      0.046700
     28 H11         1.6290    0.9290    2.2700 h1        1 M13      0.085700
     29 H7          1.3300   -0.5910    4.1290 h2        1 M13      0.061700
     30 HM1        -0.5970   -2.0480    4.4550 h1        1 M13      0.043033
     31 HM2        -0.5280   -2.3680    2.6510 h1        1 M13      0.043033
     32 HM3        -0.4170   -3.7720    3.8370 h1        1 M13      0.043033
     33 H10         3.9810   -0.7830    1.1190 h1        1 M13      0.053700
     34 HO9         4.9890    1.3610    1.5090 ho        1 M13      0.433000
     35 H9          5.1280   -0.3560    3.2310 h1        1 M13      0.084700
     36 H8          3.5100   -1.5690    4.8560 h1        1 M13      0.080700
     37 HO8         3.3470   -2.8960    2.4300 ho        1 M13      0.425000
     38 H1          4.9800    0.3430    5.5350 h2        1 M13      0.094700
     39 H2          2.8880    1.7760    6.3280 h1        1 M13      0.109700
     40 HO2         5.5540    2.4880    6.9290 ho        1 M13      0.412000
     41 H3          2.8350    3.5600    4.6320 h1        1 M13      0.110700
     42 HO3         3.7520    4.3770    7.1670 ho        1 M13      0.418000
     43 H4          5.7640    4.2340    5.4970 h1        1 M13      0.039700
     44 HO4         4.1560    5.8500    4.6140 ho        1 M13      0.425000
     45 H5          4.5660    2.9050    2.9240 h1        1 M13      0.103700
     46 H61         7.5740    3.2510    3.6170 h1        1 M13      0.050200
     47 H62         6.6310    4.5580    2.7240 h1        1 M13      0.050200
     48 HO5         7.4690    3.0600    1.2510 ho        1 M13      0.409000
@<TRIPOS>BOND
     1    1    2 1   
     2    1   25 1   
     3    2    3 1   
     4    2   26 1   
     5    2   27 1   
     6    3    4 1   
     7    3    8 1   
     8    3   28 1   
     9    4    5 1   
    10    5    6 1   
    11    5   11 1   
    12    5   29 1   
    13    6    7 1   
    14    7   30 1   
    15    7   31 1   
    16    7   32 1   
    17    8    9 1   
    18    8   10 1   
    19    8   33 1   
    20    9   34 1   
    21   10   11 1   
    22   10   13 1   
    23   10   35 1   
    24   11   12 1   
    25   11   36 1   
    26   12   37 1   
    27   13   14 1   
    28   14   15 1   
    29   14   16 1   
    30   14   38 1   
    31   15   22 1   
    32   16   17 1   
    33   16   18 1   
    34   16   39 1   
    35   17   40 1   
    36   18   19 1   
    37   18   20 1   
    38   18   41 1   
    39   19   42 1   
    40   20   21 1   
    41   20   22 1   
    42   20   43 1   
    43   21   44 1   
    44   22   23 1   
    45   22   45 1   
    46   23   24 1   
    47   23   46 1   
    48   23   47 1   
    49   24   48 1   
@<TRIPOS>SUBSTRUCTURE
     1 M13         1 TEMP              0 ****  ****    0 ROOT
