@<TRIPOS>MOLECULE
M13
   48    49     1     0     0
SMALL
bcc


@<TRIPOS>ATOM
      1 O10        -2.1830   -1.5260   -2.8630 oh        1 M13     -0.591800
      2 C12        -1.7630   -0.6760   -1.8200 c3        1 M13      0.134400
      3 C11        -1.4900   -1.4620   -0.5340 c3        1 M13      0.078100
      4 O11        -0.4770   -2.4110   -0.8830 os        1 M13     -0.453600
      5 C7         -0.1020   -3.2470    0.2070 c3        1 M13      0.306900
      6 O7          0.9740   -3.9840   -0.3310 os        1 M13     -0.427600
      7 CM          0.5980   -4.8870   -1.3650 c3        1 M13      0.126700
      8 C10        -0.9860   -0.5540    0.5970 c3        1 M13      0.111100
      9 O9         -1.9810    0.3640    1.0120 oh        1 M13     -0.591800
     10 C9         -0.6030   -1.3930    1.8290 c3        1 M13      0.148100
     11 C8          0.4390   -2.4500    1.4110 c3        1 M13      0.114100
     12 O8          1.6350   -1.7490    1.1270 oh        1 M13     -0.596800
     13 O1         -1.7580   -2.0850    2.3040 os        1 M13     -0.449600
     14 C1         -1.9470   -2.0120    3.7100 c3        1 M13      0.334900
     15 O6         -2.3240   -0.6870    3.9930 os        1 M13     -0.427600
     16 C2         -2.9860   -3.0930    4.0750 c3        1 M13      0.135100
     17 O2         -2.8300   -3.3150    5.4660 oh        1 M13     -0.597800
     18 C3         -4.4100   -2.6590    3.7050 c3        1 M13      0.117100
     19 O3         -5.2890   -3.5660    4.3510 oh        1 M13     -0.613800
     20 C4         -4.6790   -1.2140    4.1610 c3        1 M13      0.081100
     21 O4         -5.9910   -0.9190    3.7080 oh        1 M13     -0.604800
     22 C5         -3.6240   -0.2990    3.5300 c3        1 M13      0.069100
     23 C6         -3.7640    1.1670    3.9460 c3        1 M13      0.142400
     24 O5         -3.1480    2.0260    3.0100 oh        1 M13     -0.602800
     25 HO10       -1.4900   -2.1900   -2.9840 ho        1 M13      0.415000
     26 H121       -0.8430   -0.1090   -2.1250 h1        1 M13      0.053200
     27 H122       -2.6200    0.0310   -1.6570 h1        1 M13      0.053200
     28 H11        -2.4150   -2.0080   -0.2010 h1        1 M13      0.076700
     29 H7         -0.9660   -3.8990    0.5130 h2        1 M13      0.062700
     30 HM1        -0.1350   -5.6360   -0.9760 h1        1 M13      0.042700
     31 HM2         1.5590   -5.3830   -1.6510 h1        1 M13      0.042700
     32 HM3         0.1630   -4.3320   -2.2300 h1        1 M13      0.042700
     33 H10        -0.0590   -0.0090    0.2590 h1        1 M13      0.071700
     34 HO9        -2.1330    0.9700    0.2760 ho        1 M13      0.410000
     35 H9         -0.1780   -0.7160    2.6180 h1        1 M13      0.092700
     36 H8          0.6240   -3.1670    2.2590 h1        1 M13      0.061700
     37 HO8         2.1530   -2.2950    0.5200 ho        1 M13      0.433000
     38 H1         -0.9900   -2.1660    4.2860 h2        1 M13      0.100700
     39 H2         -2.7400   -4.0410    3.5190 h1        1 M13      0.065700
     40 HO2        -3.5960   -3.8310    5.7550 ho        1 M13      0.432000
     41 H3         -4.5460   -2.7270    2.5890 h1        1 M13      0.070700
     42 HO3        -6.1840   -3.2240    4.2190 ho        1 M13      0.432000
     43 H4         -4.6300   -1.1520    5.2830 h1        1 M13      0.066700
     44 HO4        -6.2130   -0.0360    4.0250 ho        1 M13      0.413000
     45 H5         -3.6540   -0.3860    2.4050 h1        1 M13      0.096700
     46 H61        -3.3130    1.3220    4.9630 h1        1 M13      0.049700
     47 H62        -4.8430    1.4740    3.9540 h1        1 M13      0.049700
     48 HO5        -2.2770    1.6540    2.8090 ho        1 M13      0.424000
@<TRIPOS>BOND
     1    1    2 1   
     2    1   25 1   
     3    2    3 1   
     4    2   26 1   
     5    2   27 1   
     6    3    4 1   
     7    3    8 1   
     8    3   28 1   
     9    4    5 1   
    10    5    6 1   
    11    5   11 1   
    12    5   29 1   
    13    6    7 1   
    14    7   30 1   
    15    7   31 1   
    16    7   32 1   
    17    8    9 1   
    18    8   10 1   
    19    8   33 1   
    20    9   34 1   
    21   10   11 1   
    22   10   13 1   
    23   10   35 1   
    24   11   12 1   
    25   11   36 1   
    26   12   37 1   
    27   13   14 1   
    28   14   15 1   
    29   14   16 1   
    30   14   38 1   
    31   15   22 1   
    32   16   17 1   
    33   16   18 1   
    34   16   39 1   
    35   17   40 1   
    36   18   19 1   
    37   18   20 1   
    38   18   41 1   
    39   19   42 1   
    40   20   21 1   
    41   20   22 1   
    42   20   43 1   
    43   21   44 1   
    44   22   23 1   
    45   22   45 1   
    46   23   24 1   
    47   23   46 1   
    48   23   47 1   
    49   24   48 1   
@<TRIPOS>SUBSTRUCTURE
     1 M13         1 TEMP              0 ****  ****    0 ROOT
