@<TRIPOS>MOLECULE
M13
   48    49     1     0     0
SMALL
bcc


@<TRIPOS>ATOM
      1 O10         1.2750    0.5490   -0.4290 oh        1 M13     -0.592800
      2 C12         2.5070   -0.0020   -0.0180 c3        1 M13      0.138400
      3 C11         2.6330    0.0050    1.5070 c3        1 M13      0.075100
      4 O11         1.6330   -0.8980    1.9860 os        1 M13     -0.457600
      5 C7          1.5910   -0.9690    3.4100 c3        1 M13      0.302900
      6 O7          0.6070   -1.9540    3.6270 os        1 M13     -0.406600
      7 CM         -0.7130   -1.5280    3.3100 c3        1 M13      0.120700
      8 C10         4.0250   -0.4670    1.9530 c3        1 M13      0.105100
      9 O9          5.0370    0.3920    1.4790 oh        1 M13     -0.585800
     10 C9          4.0780   -0.6130    3.4840 c3        1 M13      0.082100
     11 C8          2.9170   -1.4960    3.9870 c3        1 M13      0.125100
     12 O8          3.1770   -2.8390    3.6430 oh        1 M13     -0.580800
     13 O1          3.9150    0.6740    4.0900 os        1 M13     -0.451600
     14 C1          5.0450    1.1750    4.7750 c3        1 M13      0.304900
     15 O6          5.6670    2.0720    3.8780 os        1 M13     -0.448600
     16 C2          4.5740    1.8560    6.0760 c3        1 M13      0.087100
     17 O2          5.6850    2.1210    6.9110 oh        1 M13     -0.588800
     18 C3          3.7960    3.1440    5.7850 c3        1 M13      0.075100
     19 O3          3.5170    3.8690    6.9650 oh        1 M13     -0.592800
     20 C4          4.5740    4.0360    4.8000 c3        1 M13      0.090100
     21 O4          3.8000    5.1540    4.4050 oh        1 M13     -0.589800
     22 C5          4.8920    3.2290    3.5360 c3        1 M13      0.097100
     23 C6          5.7540    4.0260    2.5530 c3        1 M13      0.139400
     24 O5          5.9840    3.2840    1.3770 oh        1 M13     -0.594800
     25 HO10        0.5790    0.0020   -0.0420 ho        1 M13      0.408000
     26 H121        3.2990    0.6620   -0.4570 h1        1 M13      0.064700
     27 H122        2.6180   -1.0490   -0.4060 h1        1 M13      0.064700
     28 H11         2.4310    1.0350    1.9130 h1        1 M13      0.064700
     29 H7          1.3230    0.0310    3.8480 h2        1 M13      0.062700
     30 HM1        -0.7880   -1.2560    2.2300 h1        1 M13      0.042367
     31 HM2        -1.3450   -2.4220    3.5420 h1        1 M13      0.042367
     32 HM3        -1.0050   -0.6590    3.9500 h1        1 M13      0.042367
     33 H10         4.2570   -1.4710    1.4940 h1        1 M13      0.096700
     34 HO9         4.8860    1.2640    1.8740 ho        1 M13      0.421000
     35 H9          5.0560   -1.0860    3.7720 h1        1 M13      0.082700
     36 H8          2.8750   -1.4710    5.1110 h1        1 M13      0.088700
     37 HO8         2.7070   -3.0250    2.8170 ho        1 M13      0.425000
     38 H1          5.8320    0.3970    4.9940 h2        1 M13      0.102700
     39 H2          3.9330    1.1470    6.6710 h1        1 M13      0.108700
     40 HO2         6.3410    2.5940    6.3800 ho        1 M13      0.412000
     41 H3          2.7880    2.8920    5.3500 h1        1 M13      0.104700
     42 HO3         4.3100    3.8430    7.5200 ho        1 M13      0.419000
     43 H4          5.5250    4.3980    5.2830 h1        1 M13      0.042700
     44 HO4         3.3770    5.4930    5.2070 ho        1 M13      0.425000
     45 H5          3.9360    2.9030    3.0410 h1        1 M13      0.078700
     46 H61         6.7220    4.3200    3.0380 h1        1 M13      0.066200
     47 H62         5.1850    4.9390    2.2310 h1        1 M13      0.066200
     48 HO5         6.5640    2.5450    1.6090 ho        1 M13      0.414000
@<TRIPOS>BOND
     1    1    2 1   
     2    1   25 1   
     3    2    3 1   
     4    2   26 1   
     5    2   27 1   
     6    3    4 1   
     7    3    8 1   
     8    3   28 1   
     9    4    5 1   
    10    5    6 1   
    11    5   11 1   
    12    5   29 1   
    13    6    7 1   
    14    7   30 1   
    15    7   31 1   
    16    7   32 1   
    17    8    9 1   
    18    8   10 1   
    19    8   33 1   
    20    9   34 1   
    21   10   11 1   
    22   10   13 1   
    23   10   35 1   
    24   11   12 1   
    25   11   36 1   
    26   12   37 1   
    27   13   14 1   
    28   14   15 1   
    29   14   16 1   
    30   14   38 1   
    31   15   22 1   
    32   16   17 1   
    33   16   18 1   
    34   16   39 1   
    35   17   40 1   
    36   18   19 1   
    37   18   20 1   
    38   18   41 1   
    39   19   42 1   
    40   20   21 1   
    41   20   22 1   
    42   20   43 1   
    43   21   44 1   
    44   22   23 1   
    45   22   45 1   
    46   23   24 1   
    47   23   46 1   
    48   23   47 1   
    49   24   48 1   
@<TRIPOS>SUBSTRUCTURE
     1 M13         1 TEMP              0 ****  ****    0 ROOT
