@<TRIPOS>MOLECULE
M14
   49    50     1     0     0
SMALL
bcc


@<TRIPOS>ATOM
      1 C          82.2820  363.3720  643.2060 ca        1 M14      0.326600
      2 C1         82.5040  363.2870  644.6240 ca        1 M14     -0.237000
      3 C2         83.2590  364.2220  645.2750 ca        1 M14      0.062000
      4 C3         83.8690  365.3170  644.6000 ca        1 M14     -0.661500
      5 C4         83.6500  365.4030  643.1980 ca        1 M14      0.064000
      6 C5         82.9010  364.4780  642.5140 ca        1 M14     -0.109600
      7 C6        -57.0450 -252.3950 -450.8560 ca        1 M14      0.170100
      8 C7        -57.0690 -251.8200 -452.1450 ca        1 M14     -0.101000
      9 C8        -56.4630 -252.4890 -453.2100 ca        1 M14      0.064400
     10 C9        -55.8250 -253.7260 -453.0150 ca        1 M14     -0.170000
     11 C10       -55.8210 -254.2420 -451.7220 ca        1 M14      0.030100
     12 C11       -56.4150 -253.6250 -450.6180 ca        1 M14     -0.159000
     13 C12       -58.9890 -253.0610 -446.7650 ca        1 M14      0.020400
     14 C13       -58.9140 -252.6740 -448.1080 ca        1 M14     -0.096000
     15 C14       -57.6960 -252.1810 -448.5880 ca        1 M14      0.050100
     16 C15       -56.5650 -252.0630 -447.7750 ca        1 M14     -0.112000
     17 C16       -56.6630 -252.4680 -446.4370 ca        1 M14      0.017000
     18 C17       -57.8710 -252.9630 -445.9280 ca        1 M14     -0.074000
     19 O19       -55.2610 -255.5260 -451.4390 os        1 M14     -0.057200
     20 C20       -54.2020 -255.9290 -452.0530 c2        1 M14      0.205100
     21 C21       -53.6640 -257.2930 -451.6620 c2        1 M14      0.538100
     22 N          81.5330  362.4590  642.5620 nh        1 M14     -0.789200
     23 O22       -54.1140 -258.3060 -452.1600 o         1 M14     -0.382300
     24 S          84.6560  366.4270  645.3790 sy        1 M14      1.517200
     25 N23        86.4480  365.6440  645.2320 n4        1 M14     -0.780500
     26 O24        84.8910  367.6010  644.6960 o         1 M14     -0.578800
     27 O25        84.5350  366.4040  646.7530 o         1 M14     -0.578800
     28 CL2        82.6900  364.6450  640.8400 cl        1 M14     -0.032400
     29 C27       -55.5220 -252.3740 -445.5940 cg        1 M14      0.207800
     30 N28       -54.5860 -252.3000 -444.9070 n1        1 M14     -0.308800
     31 H1         82.0440  362.4600  645.1920 ha        1 M14      0.172000
     32 H2         83.3900  364.1420  646.3730 ha        1 M14      0.168000
     33 H4         84.0880  366.2610  642.6490 ha        1 M14      0.177000
     34 H7        -57.5740 -250.8480 -452.2910 ha        1 M14      0.203000
     35 H9        -55.3830 -254.2640 -453.8670 ha        1 M14      0.169000
     36 H11       -56.3990 -254.0820 -449.6170 ha        1 M14      0.190000
     37 H13       -59.7930 -252.7310 -448.7700 ha        1 M14      0.178000
     38 H15       -55.6300 -251.6420 -448.1720 ha        1 M14      0.162000
     39 H17       -57.9400 -253.2680 -444.8690 ha        1 M14      0.179000
     40 H20       -52.8260 -257.2230 -450.9330 h4        1 M14      0.106200
     41 H20A      -53.6760 -255.3190 -452.8210 h4        1 M14      0.213000
     42 HN         81.1050  361.7140  643.0630 hn        1 M14      0.468800
     43 HN23       86.4400  364.7690  644.7220 hn        1 M14      0.447133
     44 HN2A       87.0700  366.2880  644.7510 hn        1 M14      0.447133
     45 O         -57.6790 -251.6500 -449.8860 os        1 M14     -0.213200
     46 HN3        81.3690  362.5270  641.5820 hn        1 M14      0.468800
     47 H233       86.8300  365.4710  646.1570 hn        1 M14      0.447133
     48 CL1       -56.4970 -251.8180 -454.7560 cl        1 M14      0.001600
     49 CL        -60.4480 -253.6540 -446.1490 cl        1 M14     -0.032400
@<TRIPOS>BOND
     1    1    2 ar  
     2    1    6 ar  
     3    1   22 1   
     4    2    3 ar  
     5    2   31 1   
     6    3    4 ar  
     7    3   32 1   
     8    4    5 ar  
     9    4   24 1   
    10    5    6 ar  
    11    5   33 1   
    12    6   28 1   
    13    7    8 ar  
    14    7   12 ar  
    15    7   45 1   
    16    8    9 ar  
    17    8   34 1   
    18    9   10 ar  
    19    9   48 1   
    20   10   11 ar  
    21   10   35 1   
    22   11   12 ar  
    23   11   19 1   
    24   12   36 1   
    25   13   14 ar  
    26   13   18 ar  
    27   13   49 1   
    28   14   15 ar  
    29   14   37 1   
    30   15   16 ar  
    31   15   45 1   
    32   16   17 ar  
    33   16   38 1   
    34   17   18 ar  
    35   17   29 1   
    36   18   39 1   
    37   19   20 1   
    38   20   21 2   
    39   20   41 1   
    40   21   23 1   
    41   21   40 1   
    42   22   42 1   
    43   22   46 1   
    44   24   25 1   
    45   24   26 2   
    46   24   27 2   
    47   25   43 1   
    48   25   44 1   
    49   25   47 1   
    50   29   30 3   
@<TRIPOS>SUBSTRUCTURE
     1 M14         1 TEMP              0 ****  ****    0 ROOT
