@<TRIPOS>MOLECULE
M14
   47    49     1     0     0
SMALL
bcc


@<TRIPOS>ATOM
      1 C           2.3200    0.5790   -0.2470 ca        1 M14      0.145600
      2 C1          3.3770    0.7840   -1.1650 ca        1 M14     -0.186000
      3 C2          4.2680   -0.2390   -1.4530 ca        1 M14      0.012000
      4 C3          4.1640   -1.5000   -0.8540 ca        1 M14     -0.411500
      5 C4          3.1160   -1.7190    0.0450 ca        1 M14      0.018000
      6 C5          2.2100   -0.7100    0.3510 ca        1 M14     -0.073600
      7 C6         -3.2040    0.7710   -0.9420 ca        1 M14      0.133100
      8 C7         -3.9140    1.6310   -1.7950 ca        1 M14     -0.145000
      9 C8         -3.5580    2.9810   -1.8250 ca        1 M14      0.058400
     10 C9         -2.5280    3.4800   -1.0210 ca        1 M14     -0.175000
     11 C10        -1.8390    2.5920   -0.1870 ca        1 M14      0.120100
     12 C11        -2.1590    1.2290   -0.1350 ca        1 M14     -0.191000
     13 C12        -2.8500   -3.5360    0.9560 ca        1 M14      0.028400
     14 C13        -2.9360   -2.6620   -0.1300 ca        1 M14     -0.110000
     15 C14        -3.3800   -1.3520    0.1020 ca        1 M14      0.101100
     16 C15        -3.7240   -0.9070    1.3810 ca        1 M14     -0.135000
     17 C16        -3.6200   -1.8020    2.4540 ca        1 M14      0.016000
     18 C17        -3.1860   -3.1180    2.2480 ca        1 M14     -0.104000
     19 CL1        -4.4020    4.0410   -2.8470 cl        1 M14     -0.067400
     20 O19        -0.8760    3.0390    0.7120 os        1 M14     -0.333900
     21 C20         0.2080    3.7610    0.1390 c3        1 M14      0.055400
     22 C21         1.3410    2.8730   -0.3840 c         1 M14      0.640100
     23 N           1.3970    1.5690    0.0880 n         1 M14     -0.460100
     24 O22         2.1700    3.3630   -1.1700 o         1 M14     -0.571100
     25 S           5.2500   -2.7360   -1.2360 sy        1 M14      1.532200
     26 N23         6.4260   -2.5350   -0.1690 n3        1 M14     -1.026700
     27 O24         4.6120   -3.9710   -0.9960 o         1 M14     -0.657800
     28 O25         5.7550   -2.4950   -2.5310 o         1 M14     -0.657800
     29 CL2         0.9600   -1.0540    1.4600 cl        1 M14     -0.094400
     30 C27        -3.9620   -1.3700    3.7650 cg        1 M14      0.226800
     31 N28        -4.2420   -1.0170    4.8380 n1        1 M14     -0.342800
     32 H1          3.5000    1.7600   -1.6650 ha        1 M14      0.185000
     33 H2          5.0710   -0.0590   -2.1910 ha        1 M14      0.160000
     34 H4          2.9980   -2.7190    0.5040 ha        1 M14      0.169000
     35 H7         -4.7240    1.2330   -2.4250 ha        1 M14      0.174000
     36 H9         -2.2710    4.5490   -1.0360 ha        1 M14      0.161000
     37 H11        -1.6110    0.5480    0.5310 ha        1 M14      0.163000
     38 H13        -2.6750   -2.9820   -1.1510 ha        1 M14      0.175000
     39 H15        -4.0690    0.1270    1.5380 ha        1 M14      0.165000
     40 H17        -3.1110   -3.8150    3.0970 ha        1 M14      0.165000
     41 H20        -0.1240    4.4290   -0.6970 h1        1 M14      0.098200
     42 H20A        0.6080    4.3720    0.9960 h1        1 M14      0.098200
     43 HN          0.6680    1.3000    0.7210 hn        1 M14      0.342500
     44 HN23        6.4440   -2.9760    0.7160 hn        1 M14      0.447800
     45 HN2A        7.2250   -1.9770   -0.3330 hn        1 M14      0.447800
     46 O          -3.5590   -0.5710   -1.0370 os        1 M14     -0.237200
     47 CL         -2.3240   -5.1290    0.7040 cl        1 M14     -0.061400
@<TRIPOS>BOND
     1    1    2 ar  
     2    1    6 ar  
     3    1   23 1   
     4    2    3 ar  
     5    2   32 1   
     6    3    4 ar  
     7    3   33 1   
     8    4    5 ar  
     9    4   25 1   
    10    5    6 ar  
    11    5   34 1   
    12    6   29 1   
    13    7    8 ar  
    14    7   12 ar  
    15    7   46 1   
    16    8    9 ar  
    17    8   35 1   
    18    9   10 ar  
    19    9   19 1   
    20   10   11 ar  
    21   10   36 1   
    22   11   12 ar  
    23   11   20 1   
    24   12   37 1   
    25   13   14 ar  
    26   13   18 ar  
    27   13   47 1   
    28   14   15 ar  
    29   14   38 1   
    30   15   16 ar  
    31   15   46 1   
    32   16   17 ar  
    33   16   39 1   
    34   17   18 ar  
    35   17   30 1   
    36   18   40 1   
    37   20   21 1   
    38   21   22 1   
    39   21   41 1   
    40   21   42 1   
    41   22   23 1   
    42   22   24 2   
    43   23   43 1   
    44   25   26 1   
    45   25   27 2   
    46   25   28 2   
    47   26   44 1   
    48   26   45 1   
    49   30   31 3   
@<TRIPOS>SUBSTRUCTURE
     1 M14         1 TEMP              0 ****  ****    0 ROOT
