@<TRIPOS>MOLECULE
M14
   48    50     1     0     0
SMALL
bcc


@<TRIPOS>ATOM
      1 C          -0.2770   -0.2780   -1.3020 ca        1 M14      0.224600
      2 C1         -0.5170   -1.2440   -0.2800 ca        1 M14     -0.199000
      3 C2          0.4300   -1.5090    0.6790 ca        1 M14      0.042000
      4 C3          1.6840   -0.8510    0.7080 ca        1 M14     -0.603500
      5 C4          1.8990    0.1570   -0.2620 ca        1 M14      0.061000
      6 C5          0.9640    0.4450   -1.2330 ca        1 M14     -0.097600
      7 C6         -0.0500   -1.9070   -7.0450 ca        1 M14      0.134100
      8 C7         -0.9560   -2.7880   -7.6590 ca        1 M14     -0.140000
      9 C8         -2.3080   -2.6930   -7.3250 ca        1 M14      0.063400
     10 C9         -2.7600   -1.7520   -6.3910 ca        1 M14     -0.177000
     11 C10        -1.8270   -0.9100   -5.7820 ca        1 M14      0.116100
     12 C11        -0.4610   -0.9690   -6.0950 ca        1 M14     -0.201000
     13 C12         4.4400   -0.4950   -6.6170 ca        1 M14      0.028400
     14 C13         3.3060   -0.8510   -7.3510 ca        1 M14     -0.092000
     15 C14         2.2800   -1.5580   -6.7040 ca        1 M14      0.110100
     16 C15         2.3650   -1.9000   -5.3510 ca        1 M14     -0.131000
     17 C16         3.5090   -1.5200   -4.6350 ca        1 M14     -0.023000
     18 C17         4.5510   -0.8220   -5.2610 ca        1 M14     -0.093000
     19 O19        -2.2070    0.1160   -4.9180 os        1 M14     -0.329900
     20 C20        -3.1010   -0.2470   -3.8770 c3        1 M14      0.060400
     21 C21        -2.3640   -0.6930   -2.6110 c         1 M14      0.639100
     22 N          -1.1550   -0.0260   -2.3260 ns        1 M14     -0.447100
     23 O22        -2.8300   -1.5690   -1.8740 o         1 M14     -0.527100
     24 S           2.7800   -1.1830    1.8050 sy        1 M14      1.504200
     25 N23         3.6700   -2.5940    0.8840 nz        1 M14     -0.782500
     26 O24         3.8110   -0.2690    1.9090 o         1 M14     -0.579300
     27 O25         2.3260   -1.8780    2.9090 o         1 M14     -0.579300
     28 Cl2         1.3070    1.6750   -2.3530 cl        1 M14     -0.038400
     29 C27         3.6150   -1.8450   -3.2550 cg        1 M14      0.327800
     30 N28         3.6990   -2.0990   -2.1230 n1        1 M14     -0.488800
     31 H1         -1.4800   -1.7890   -0.2500 ha        1 M14      0.207000
     32 H2          0.2030   -2.2560    1.4660 ha        1 M14      0.170000
     33 H4          2.8480    0.7320   -0.2310 ha        1 M14      0.180000
     34 H7         -0.5950   -3.5170   -8.4020 ha        1 M14      0.181000
     35 H9         -3.8340   -1.6700   -6.1630 ha        1 M14      0.165000
     36 H11         0.2510   -0.2720   -5.6330 ha        1 M14      0.157000
     37 H13         3.2110   -0.6050   -8.4220 ha        1 M14      0.186000
     38 H15         1.5500   -2.4610   -4.8700 ha        1 M14      0.159000
     39 H17         5.4500   -0.5350   -4.6920 ha        1 M14      0.166000
     40 H20        -3.8070   -1.0680   -4.1690 h1        1 M14      0.111200
     41 H20A       -3.6700    0.6990   -3.6510 h1        1 M14      0.111200
     42 HN         -0.8910    0.6810   -2.9920 hn        1 M14      0.358500
     43 HN23        3.0880   -2.9980    0.1540 hn        1 M14      0.458467
     44 HN2A        3.9250   -3.3410    1.5250 hn        1 M14      0.458467
     45 O           1.2520   -2.0000   -7.5270 os        1 M14     -0.230200
     46 H233        4.5250   -2.2560    0.4440 hn        1 M14      0.458467
     47 Cl1        -3.4240   -3.7290   -8.0650 cl        1 M14     -0.043400
     48 Cl          5.6960    0.3490   -7.3750 cl        1 M14     -0.036400
@<TRIPOS>BOND
     1    1    2 ar  
     2    1    6 ar  
     3    1   22 1   
     4    2    3 ar  
     5    2   31 1   
     6    3    4 ar  
     7    3   32 1   
     8    4    5 ar  
     9    4   24 1   
    10    5    6 ar  
    11    5   33 1   
    12    6   28 1   
    13    7    8 ar  
    14    7   12 ar  
    15    7   45 1   
    16    8    9 ar  
    17    8   34 1   
    18    9   10 ar  
    19    9   47 1   
    20   10   11 ar  
    21   10   35 1   
    22   11   12 ar  
    23   11   19 1   
    24   12   36 1   
    25   13   14 ar  
    26   13   18 ar  
    27   13   48 1   
    28   14   15 ar  
    29   14   37 1   
    30   15   16 ar  
    31   15   45 1   
    32   16   17 ar  
    33   16   38 1   
    34   17   18 ar  
    35   17   29 1   
    36   18   39 1   
    37   19   20 1   
    38   20   21 1   
    39   20   40 1   
    40   20   41 1   
    41   21   22 1   
    42   21   23 2   
    43   22   42 1   
    44   24   25 1   
    45   24   26 2   
    46   24   27 2   
    47   25   43 1   
    48   25   44 1   
    49   25   46 1   
    50   29   30 3   
@<TRIPOS>SUBSTRUCTURE
     1 M14         1 TEMP              0 ****  ****    0 ROOT
