@<TRIPOS>MOLECULE
M15
   36    37     1     0     0
SMALL
bcc


@<TRIPOS>ATOM
      1 F24        -0.2850    0.3650   -1.3420 f         1 M15     -0.141900
      2 C2          0.9800    0.2330   -0.8710 ca        1 M15      0.122900
      3 C4          1.2240    0.4160    0.5020 ca        1 M15     -0.132000
      4 C6          2.5200    0.2800    0.9920 ca        1 M15      0.047900
      5 I23         2.8770    0.5410    2.9640 i         1 M15     -0.125900
      6 C5          3.5680   -0.0360    0.1280 ca        1 M15     -0.110000
      7 C3          3.3240   -0.2170   -1.2330 ca        1 M15     -0.093000
      8 C1          2.0360   -0.0810   -1.7530 ca        1 M15     -0.133300
      9 C7          1.7910   -0.2340   -3.2280 c3        1 M15      0.131300
     10 N8          0.8500   -1.2630   -3.5750 n         1 M15     -0.557900
     11 C9          1.2550   -2.4950   -4.0530 c         1 M15      0.677700
     12 O16         2.4430   -2.7090   -4.3720 o         1 M15     -0.600100
     13 C10         0.2290   -3.5720   -4.1870 ca        1 M15     -0.161600
     14 C12         0.6400   -4.8750   -3.8740 ca        1 M15     -0.046000
     15 C14        -0.2370   -5.9510   -3.9750 ca        1 M15     -0.153000
     16 C15        -1.5510   -5.7310   -4.3990 ca        1 M15      0.065400
     17 CL2        -2.6300   -7.0340   -4.5200 cl        1 M15     -0.069400
     18 C13        -1.9890   -4.4460   -4.7270 ca        1 M15     -0.197000
     19 C11        -1.0940   -3.3720   -4.6210 ca        1 M15      0.155100
     20 O17        -1.4870   -2.0710   -4.8890 os        1 M15     -0.355900
     21 C18        -2.5350   -1.9250   -5.8530 c3        1 M15      0.031400
     22 C19        -2.4030   -0.5480   -6.4580 c         1 M15      0.629100
     23 O20        -3.2500   -0.0300   -7.1840 o         1 M15     -0.484000
     24 O21        -1.3010    0.2120   -6.2350 oh        1 M15     -0.567100
     25 H1          0.3810    0.6650    1.1660 ha        1 M15      0.162000
     26 H2          4.5950   -0.1470    0.5110 ha        1 M15      0.152000
     27 H3          4.1570   -0.4730   -1.9070 ha        1 M15      0.152000
     28 H4          1.3790    0.7470   -3.6120 h1        1 M15      0.079700
     29 H5          2.7680   -0.4420   -3.7550 h1        1 M15      0.079700
     30 H6         -0.0750   -1.1690   -3.2190 hn        1 M15      0.324500
     31 H7          1.6850   -5.0390   -3.5590 ha        1 M15      0.168000
     32 H8          0.1060   -6.9670   -3.7260 ha        1 M15      0.160000
     33 H9         -3.0260   -4.2800   -5.0550 ha        1 M15      0.159000
     34 H10        -2.4560   -2.6950   -6.6650 h1        1 M15      0.089700
     35 H11        -3.5240   -2.0120   -5.3280 h1        1 M15      0.089700
     36 H82        -0.6700   -0.2530   -5.6630 ho        1 M15      0.450000
@<TRIPOS>BOND
     1    1    2 1   
     2    2    3 ar  
     3    2    8 ar  
     4    3    4 ar  
     5    3   25 1   
     6    4    5 1   
     7    4    6 ar  
     8    6    7 ar  
     9    6   26 1   
    10    7    8 ar  
    11    7   27 1   
    12    8    9 1   
    13    9   10 1   
    14    9   28 1   
    15    9   29 1   
    16   10   11 1   
    17   10   30 1   
    18   11   12 2   
    19   11   13 1   
    20   13   14 ar  
    21   13   19 ar  
    22   14   15 ar  
    23   14   31 1   
    24   15   16 ar  
    25   15   32 1   
    26   16   17 1   
    27   16   18 ar  
    28   18   19 ar  
    29   18   33 1   
    30   19   20 1   
    31   20   21 1   
    32   21   22 1   
    33   21   34 1   
    34   21   35 1   
    35   22   23 2   
    36   22   24 1   
    37   24   36 1   
@<TRIPOS>SUBSTRUCTURE
     1 M15         1 TEMP              0 ****  ****    0 ROOT
