@<TRIPOS>MOLECULE
M15
   36    37     1     0     0
SMALL
bcc


@<TRIPOS>ATOM
      1 F24        -0.3080    0.3570   -1.3370 f         1 M15     -0.141900
      2 C2          0.9550    0.2310   -0.8610 ca        1 M15      0.122900
      3 C4          1.1920    0.4110    0.5140 ca        1 M15     -0.132000
      4 C6          2.4860    0.2810    1.0100 ca        1 M15      0.047900
      5 I23         2.8330    0.5380    2.9840 i         1 M15     -0.125900
      6 C5          3.5410   -0.0260    0.1500 ca        1 M15     -0.110000
      7 C3          3.3040   -0.2050   -1.2130 ca        1 M15     -0.093000
      8 C1          2.0180   -0.0750   -1.7380 ca        1 M15     -0.133300
      9 C7          1.7800   -0.2260   -3.2160 c3        1 M15      0.131300
     10 N8          0.8470   -1.2590   -3.5700 n         1 M15     -0.557900
     11 C9          1.2610   -2.4880   -4.0470 c         1 M15      0.676700
     12 O16         2.4520   -2.6950   -4.3590 o         1 M15     -0.600100
     13 C10         0.2420   -3.5700   -4.1890 ca        1 M15     -0.161600
     14 C12         0.6560   -4.8710   -3.8750 ca        1 M15     -0.046000
     15 C14        -0.2140   -5.9510   -3.9820 ca        1 M15     -0.153000
     16 C15        -1.5270   -5.7360   -4.4150 ca        1 M15      0.065400
     17 CL2        -2.5990   -7.0440   -4.5450 cl        1 M15     -0.069400
     18 C13        -1.9690   -4.4530   -4.7450 ca        1 M15     -0.197000
     19 C11        -1.0800   -3.3760   -4.6320 ca        1 M15      0.155100
     20 O17        -1.4770   -2.0760   -4.9010 os        1 M15     -0.355900
     21 C18        -2.5180   -1.9340   -5.8740 c3        1 M15      0.031400
     22 C19        -2.3860   -0.5560   -6.4770 c         1 M15      0.629100
     23 O20        -3.2300   -0.0420   -7.2100 o         1 M15     -0.484000
     24 O21        -1.2900    0.2090   -6.2450 oh        1 M15     -0.567100
     25 H1          0.3440    0.6520    1.1740 ha        1 M15      0.162000
     26 H2          4.5660   -0.1330    0.5370 ha        1 M15      0.152000
     27 H3          4.1420   -0.4550   -1.8840 ha        1 M15      0.152000
     28 H4          2.7610   -0.4270   -3.7380 h1        1 M15      0.079700
     29 H5          1.3660    0.7540   -3.5980 h1        1 M15      0.079700
     30 H6         -0.0810   -1.1700   -3.2190 hn        1 M15      0.324500
     31 H7          1.7000   -5.0300   -3.5520 ha        1 M15      0.168000
     32 H8          0.1320   -6.9660   -3.7320 ha        1 M15      0.160000
     33 H9         -3.0040   -4.2920   -5.0800 ha        1 M15      0.159000
     34 H10        -3.5100   -2.0260   -5.3570 h1        1 M15      0.089700
     35 H11        -2.4290   -2.7040   -6.6860 h1        1 M15      0.089700
     36 H82        -0.6620   -0.2540   -5.6680 ho        1 M15      0.450000
@<TRIPOS>BOND
     1    1    2 1   
     2    2    3 ar  
     3    2    8 ar  
     4    3    4 ar  
     5    3   25 1   
     6    4    5 1   
     7    4    6 ar  
     8    6    7 ar  
     9    6   26 1   
    10    7    8 ar  
    11    7   27 1   
    12    8    9 1   
    13    9   10 1   
    14    9   28 1   
    15    9   29 1   
    16   10   11 1   
    17   10   30 1   
    18   11   12 2   
    19   11   13 1   
    20   13   14 ar  
    21   13   19 ar  
    22   14   15 ar  
    23   14   31 1   
    24   15   16 ar  
    25   15   32 1   
    26   16   17 1   
    27   16   18 ar  
    28   18   19 ar  
    29   18   33 1   
    30   19   20 1   
    31   20   21 1   
    32   21   22 1   
    33   21   34 1   
    34   21   35 1   
    35   22   23 2   
    36   22   24 1   
    37   24   36 1   
@<TRIPOS>SUBSTRUCTURE
     1 M15         1 TEMP              0 ****  ****    0 ROOT
