@<TRIPOS>MOLECULE
M15
   36    37     1     0     0
SMALL
bcc


@<TRIPOS>ATOM
      1 F24        -0.2420    0.4550   -1.4380 f         1 M15     -0.141900
      2 C2          1.0070    0.2950   -0.9350 ca        1 M15      0.122900
      3 C4          1.2290    0.5200    0.4360 ca        1 M15     -0.132000
      4 C6          2.5090    0.3550    0.9600 ca        1 M15      0.047900
      5 I23         2.8330    0.6770    2.9280 i         1 M15     -0.125900
      6 C5          3.5620   -0.0320    0.1320 ca        1 M15     -0.110000
      7 C3          3.3400   -0.2550   -1.2270 ca        1 M15     -0.093000
      8 C1          2.0700   -0.0920   -1.7800 ca        1 M15     -0.133300
      9 C7          1.8500   -0.2910   -3.2540 c3        1 M15      0.131300
     10 N8          0.8790   -1.2970   -3.5840 ns        1 M15     -0.557900
     11 C9          1.2470   -2.5600   -4.0080 c         1 M15      0.677700
     12 O16         2.4320   -2.8290   -4.2930 o         1 M15     -0.600100
     13 C10         0.1850   -3.6020   -4.1250 ca        1 M15     -0.161600
     14 C12         0.5400   -4.9070   -3.7580 ca        1 M15     -0.046000
     15 C14        -0.3740   -5.9540   -3.8390 ca        1 M15     -0.153000
     16 C15        -1.6700   -5.7010   -4.2990 ca        1 M15      0.065400
     17 Cl2        -2.7950   -6.9670   -4.3970 cl        1 M15     -0.069400
     18 C13        -2.0540   -4.4130   -4.6820 ca        1 M15     -0.197000
     19 C11        -1.1210   -3.3700   -4.5960 ca        1 M15      0.155100
     20 O17        -1.4600   -2.0660   -4.9180 os        1 M15     -0.355900
     21 C18        -2.4830   -1.9170   -5.9080 c3        1 M15      0.031400
     22 C19        -2.2880   -0.5690   -6.5580 c         1 M15      0.629100
     23 O20        -3.1010   -0.0470   -7.3200 o         1 M15     -0.484000
     24 O21        -1.1630    0.1590   -6.3400 oh        1 M15     -0.567100
     25 H1          0.3820    0.8240    1.0710 ha        1 M15      0.162000
     26 H2          4.5760   -0.1660    0.5410 ha        1 M15      0.152000
     27 H3          4.1770   -0.5670   -1.8720 ha        1 M15      0.152000
     28 H4          1.4840    0.6900   -3.6830 h1        1 M15      0.079700
     29 H5          2.8300   -0.5550   -3.7510 h1        1 M15      0.079700
     30 H6         -0.0490   -1.1560   -3.2520 hn        1 M15      0.324500
     31 H7          1.5720   -5.0980   -3.4150 ha        1 M15      0.168000
     32 H8         -0.0740   -6.9720   -3.5470 ha        1 M15      0.160000
     33 H9         -3.0770   -4.2220   -5.0380 ha        1 M15      0.159000
     34 H10        -2.4170   -2.7190   -6.6910 h1        1 M15      0.089700
     35 H11        -3.4840   -1.9490   -5.4010 h1        1 M15      0.089700
     36 H82        -0.5610   -0.3090   -5.7390 ho        1 M15      0.450000
@<TRIPOS>BOND
     1    1    2 1   
     2    2    3 ar  
     3    2    8 ar  
     4    3    4 ar  
     5    3   25 1   
     6    4    5 1   
     7    4    6 ar  
     8    6    7 ar  
     9    6   26 1   
    10    7    8 ar  
    11    7   27 1   
    12    8    9 1   
    13    9   10 1   
    14    9   28 1   
    15    9   29 1   
    16   10   11 1   
    17   10   30 1   
    18   11   12 2   
    19   11   13 1   
    20   13   14 ar  
    21   13   19 ar  
    22   14   15 ar  
    23   14   31 1   
    24   15   16 ar  
    25   15   32 1   
    26   16   17 1   
    27   16   18 ar  
    28   18   19 ar  
    29   18   33 1   
    30   19   20 1   
    31   20   21 1   
    32   21   22 1   
    33   21   34 1   
    34   21   35 1   
    35   22   23 2   
    36   22   24 1   
    37   24   36 1   
@<TRIPOS>SUBSTRUCTURE
     1 M15         1 TEMP              0 ****  ****    0 ROOT
