@<TRIPOS>MOLECULE
M18
   55    54     1     0     0
SMALL
bcc


@<TRIPOS>ATOM
      1 C1         -3.9630   -0.9160    1.9510 c3        1 M18     -0.118000
      2 C2         -2.6320   -1.1190    2.6440 c2        1 M18      0.311000
      3 O1         -2.5210   -0.8660    3.8100 o         1 M18     -0.349000
      4 O2         -1.5290   -1.7310    1.9270 os        1 M18     -0.280000
      5 C3         -0.2700   -1.0260    2.0650 c3        1 M18     -0.024000
      6 C4          0.8810   -1.9420    1.6150 c3        1 M18      0.030000
      7 C5          1.7340   -2.4500    2.9130 c3        1 M18     -0.165000
      8 C6          2.8970   -2.7720    2.4730 c3        1 M18     -0.169000
      9 C7          3.0940   -1.9130    1.2170 c3        1 M18     -0.024000
     10 N1          1.6820   -1.3080    0.8980 n         1 M18     -0.330000
     11 C8          1.3700   -0.2270   -0.0440 c2        1 M18      0.276000
     12 C9          2.4600    0.3890   -0.8690 c3        1 M18     -0.058000
     13 N2          1.9300    0.7470   -2.1890 n         1 M18     -0.304000
     14 C10         2.6420    1.7190   -3.0230 c2        1 M18      0.384000
     15 O3          2.7320    1.5190   -4.4430 os        1 M18     -0.278000
     16 C11         3.0130    2.7070   -5.1800 c3        1 M18      0.114000
     17 C12         1.8950    3.7250   -4.9570 c3        1 M18     -0.232333
     18 C13         3.1020    2.3740   -6.6780 c3        1 M18     -0.232333
     19 C14         4.3830    3.3130   -4.6950 c3        1 M18     -0.232333
     20 O4          3.1600    2.6670   -2.5220 o         1 M18     -0.401000
     21 O5          0.2410    0.1330   -0.1860 o         1 M18     -0.374000
     22 C15        -5.1310   -1.0420    3.0070 c2        1 M18     -0.076000
     23 C16        -5.9340   -2.1700    3.0200 c2        1 M18     -0.115000
     24 C17        -7.0150   -2.2410    3.8810 c1        1 M18     -0.064000
     25 CL1        -7.9840   -3.7130    3.9590 cl        1 M18     -0.015000
     26 C18        -7.2950   -1.1780    4.7350 c2        1 M18     -0.118000
     27 C19        -6.5020   -0.0640    4.7220 c1        1 M18     -0.120000
     28 C20        -5.4080    0.0070    3.8500 c1        1 M18     -0.116000
     29 H1         -4.0760   -1.5980    1.2530 hc        1 M18      0.127500
     30 H1A        -3.9870   -0.0330    1.5470 hc        1 M18      0.127500
     31 H3         -0.1350   -0.7710    3.0110 h1        1 M18      0.109000
     32 H3A        -0.2850   -0.2180    1.5070 h1        1 M18      0.109000
     33 H4          0.5260   -2.7140    1.1220 h1        1 M18      0.118000
     34 H5          1.2920   -3.2420    3.3260 hc        1 M18      0.101000
     35 H5A         1.8110   -1.7330    3.5640 hc        1 M18      0.101000
     36 H6          3.5790   -2.5650    3.1360 hc        1 M18      0.095500
     37 H6A         2.9240   -3.7470    2.2360 hc        1 M18      0.095500
     38 H7          3.4030   -2.4750    0.4640 h1        1 M18      0.086000
     39 H7A         3.7410   -1.1940    1.3950 h1        1 M18      0.086000
     40 H9          3.1870   -0.2480   -0.9740 h1        1 M18      0.130000
     41 H9A         2.7890    1.1860   -0.4240 h1        1 M18      0.130000
     42 HN2         1.1780    0.3040   -2.5260 hn        1 M18      0.240000
     43 H12         1.0490    3.2560   -4.8230 hc        1 M18      0.091889
     44 H12A        2.0980    4.2650   -4.1660 hc        1 M18      0.091889
     45 H12B        1.8220    4.3120   -5.7470 hc        1 M18      0.091889
     46 H13         3.7260    1.6390   -6.8120 hc        1 M18      0.091889
     47 H13A        3.4160    3.1640   -7.1690 hc        1 M18      0.091889
     48 H13B        2.2130    2.1140   -7.0100 hc        1 M18      0.091889
     49 H14         5.0050    2.5870   -4.4790 hc        1 M18      0.091889
     50 H14A        4.2310    3.8700   -3.8860 hc        1 M18      0.091889
     51 H14B        4.7700    3.8790   -5.4210 hc        1 M18      0.091889
     52 H16        -5.7060   -2.9420    2.4520 ha        1 M18      0.148000
     53 H18        -8.0710   -1.2270    5.3530 ha        1 M18      0.149000
     54 H19        -6.7000    0.6930    5.3290 ha        1 M18      0.142000
     55 H20        -4.8330    0.8150    3.8390 ha        1 M18      0.161000
@<TRIPOS>BOND
     1    1    2 1   
     2    1   22 1   
     3    1   29 1   
     4    1   30 1   
     5    2    3 1   
     6    2    4 1   
     7    4    5 1   
     8    5    6 1   
     9    5   31 1   
    10    5   32 1   
    11    6    7 1   
    12    6   10 1   
    13    6   33 1   
    14    7    8 1   
    15    7   34 1   
    16    7   35 1   
    17    8    9 1   
    18    8   36 1   
    19    8   37 1   
    20    9   10 1   
    21    9   38 1   
    22    9   39 1   
    23   10   11 1   
    24   11   12 1   
    25   11   21 1   
    26   12   13 1   
    27   12   40 1   
    28   12   41 1   
    29   13   14 1   
    30   13   42 1   
    31   14   15 1   
    32   14   20 1   
    33   15   16 1   
    34   16   17 1   
    35   16   18 1   
    36   16   19 1   
    37   17   43 1   
    38   17   44 1   
    39   17   45 1   
    40   18   46 1   
    41   18   47 1   
    42   18   48 1   
    43   19   49 1   
    44   19   50 1   
    45   19   51 1   
    46   22   23 1   
    47   22   28 1   
    48   23   24 1   
    49   23   52 1   
    50   24   26 1   
    51   26   27 1   
    52   26   53 1   
    53   27   54 1   
    54   28   55 1   
@<TRIPOS>SUBSTRUCTURE
     1 M18         1 TEMP              0 ****  ****    0 ROOT
