@<TRIPOS>MOLECULE
M18
   56    57     1     0     0
SMALL
bcc


@<TRIPOS>ATOM
      1 C1         -0.0680    0.1130    0.0920 c3        1 M18     -0.073100
      2 C2          1.3200    0.5680   -0.2520 c         1 M18      0.639100
      3 O1          1.7770    1.7100   -0.2790 o         1 M18     -0.529000
      4 O2          2.1430   -0.4720   -0.6110 os        1 M18     -0.449900
      5 C3          3.5300   -0.2040   -0.8140 c3        1 M18      0.113400
      6 C4          3.9150   -0.2190   -2.3010 c3        1 M18      0.087700
      7 C5          3.2790    0.9420   -3.0920 c3        1 M18     -0.096400
      8 C6          2.5200    0.3290   -4.2650 c3        1 M18     -0.083400
      9 C7          2.6680   -1.1950   -4.1390 c3        1 M18      0.083000
     10 N1          3.5480   -1.4500   -3.0120 n         1 M18     -0.420800
     11 C8          4.0300   -2.6670   -2.6660 c         1 M18      0.652100
     12 C9          3.5680   -3.8810   -3.5060 c3        1 M18      0.018800
     13 N2          4.0340   -5.1500   -2.8790 n4        1 M18     -0.638800
     14 C10         4.2460   -6.2540   -3.8790 c         1 M18      0.635100
     15 O3          4.0290   -7.4280   -3.2860 os        1 M18     -0.422900
     16 C11         4.2520   -8.6940   -4.0570 c3        1 M18      0.202800
     17 C12         5.7010   -8.7600   -4.4870 c3        1 M18     -0.130433
     18 C13         3.9190   -9.7380   -3.0020 c3        1 M18     -0.130433
     19 C14         3.2900   -8.7350   -5.2230 c3        1 M18     -0.130433
     20 O4          4.5680   -6.0190   -5.0350 o         1 M18     -0.435000
     21 O5          4.8340   -2.8710   -1.7280 o         1 M18     -0.627100
     22 C15        -0.3700    0.3040    1.5380 ca        1 M18     -0.096300
     23 C16        -0.1800    1.5540    2.1370 ca        1 M18     -0.113000
     24 C17        -0.5080    1.7310    3.4840 ca        1 M18      0.020400
     25 CL1        -0.2760    3.2460    4.2110 cl        1 M18     -0.071400
     26 C18        -1.0250    0.6700    4.2370 ca        1 M18     -0.110000
     27 C19        -1.2090   -0.5710    3.6320 ca        1 M18     -0.119000
     28 C20        -0.8830   -0.7590    2.2890 ca        1 M18     -0.120000
     29 H1         -0.1900   -0.9650   -0.1980 hc        1 M18      0.084700
     30 H1A        -0.7830    0.7280   -0.5230 hc        1 M18      0.084700
     31 H3          3.8250    0.7890   -0.3810 h1        1 M18      0.093200
     32 H3A         4.0540   -1.0410   -0.2720 h1        1 M18      0.093200
     33 H4          5.0440   -0.1360   -2.3280 h1        1 M18      0.083700
     34 H5          4.0790    1.6350   -3.4530 hc        1 M18      0.083700
     35 H5A         2.5910    1.5280   -2.4290 hc        1 M18      0.083700
     36 H6          1.4390    0.6140   -4.2360 hc        1 M18      0.071200
     37 H6A         2.9420    0.6770   -5.2400 hc        1 M18      0.071200
     38 H7          1.6670   -1.6780   -3.9570 h1        1 M18      0.048700
     39 H7A         3.1100   -1.6340   -5.0760 h1        1 M18      0.048700
     40 H9          2.4450   -3.9090   -3.5860 hx        1 M18      0.133200
     41 H9A         4.0130   -3.7990   -4.5430 hx        1 M18      0.133200
     42 HN2         3.3650   -5.4600   -2.1630 hn        1 M18      0.486800
     43 H12         5.9280   -7.9760   -5.2490 hc        1 M18      0.073367
     44 H12A        5.8980   -9.7630   -4.9410 hc        1 M18      0.073367
     45 H12B        6.3790   -8.6280   -3.6090 hc        1 M18      0.073367
     46 H13         2.8640   -9.6260   -2.6560 hc        1 M18      0.073367
     47 H13A        4.6010   -9.6410   -2.1230 hc        1 M18      0.073367
     48 H13B        4.0500  -10.7500   -3.4570 hc        1 M18      0.073367
     49 H14         3.3590   -9.7380   -5.7140 hc        1 M18      0.073367
     50 H14A        3.5440   -7.9530   -5.9790 hc        1 M18      0.073367
     51 H14B        2.2400   -8.5820   -4.8740 hc        1 M18      0.073367
     52 H16         0.2340    2.3880    1.5450 ha        1 M18      0.168000
     53 H18        -1.2840    0.8150    5.2970 ha        1 M18      0.157000
     54 H19        -1.6170   -1.4090    4.2190 ha        1 M18      0.144000
     55 H20        -1.0350   -1.7430    1.8220 ha        1 M18      0.131000
     56 H22         4.9370   -4.9620   -2.3950 hn        1 M18      0.486800
@<TRIPOS>BOND
     1    1    2 1   
     2    1   22 1   
     3    1   29 1   
     4    1   30 1   
     5    2    3 2   
     6    2    4 1   
     7    4    5 1   
     8    5    6 1   
     9    5   31 1   
    10    5   32 1   
    11    6    7 1   
    12    6   10 1   
    13    6   33 1   
    14    7    8 1   
    15    7   34 1   
    16    7   35 1   
    17    8    9 1   
    18    8   36 1   
    19    8   37 1   
    20    9   10 1   
    21    9   38 1   
    22    9   39 1   
    23   10   11 1   
    24   11   12 1   
    25   11   21 2   
    26   12   13 1   
    27   12   40 1   
    28   12   41 1   
    29   13   14 1   
    30   13   42 1   
    31   13   56 1   
    32   14   15 1   
    33   14   20 2   
    34   15   16 1   
    35   16   17 1   
    36   16   18 1   
    37   16   19 1   
    38   17   43 1   
    39   17   44 1   
    40   17   45 1   
    41   18   46 1   
    42   18   47 1   
    43   18   48 1   
    44   19   49 1   
    45   19   50 1   
    46   19   51 1   
    47   22   23 ar  
    48   22   28 ar  
    49   23   24 ar  
    50   23   52 1   
    51   24   25 1   
    52   24   26 ar  
    53   26   27 ar  
    54   26   53 1   
    55   27   28 ar  
    56   27   54 1   
    57   28   55 1   
@<TRIPOS>SUBSTRUCTURE
     1 M18         1 TEMP              0 ****  ****    0 ROOT
