@<TRIPOS>MOLECULE
M18
   55    56     1     0     0
SMALL
bcc


@<TRIPOS>ATOM
      1 C1         -3.7370   -1.0480    0.9130 c3        1 M18     -0.080100
      2 C2         -2.9040   -1.6390   -0.1900 c         1 M18      0.636100
      3 O1         -3.1850   -2.5840   -0.9290 o         1 M18     -0.540000
      4 O2         -1.6900   -1.0240   -0.3210 os        1 M18     -0.434900
      5 C3         -0.8180   -1.4330   -1.3780 c3        1 M18      0.112400
      6 C4          0.3590   -2.2800   -0.8660 c3        1 M18      0.094700
      7 C5         -0.1020   -3.6410   -0.3030 c3        1 M18     -0.095400
      8 C6          0.4280   -3.7330    1.1240 c3        1 M18     -0.086400
      9 C7          1.2290   -2.4460    1.3770 c3        1 M18      0.095000
     10 N1          1.1610   -1.6460    0.1730 n         1 M18     -0.466800
     11 C8          1.8390   -0.4660   -0.0180 c         1 M18      0.638100
     12 C9          2.6240    0.1080    1.1730 c3        1 M18      0.006000
     13 N2          3.5010    1.1960    0.8330 n         1 M18     -0.491900
     14 C10         4.8700    0.9260    0.7400 c         1 M18      0.730100
     15 O3          5.5290    1.8810    0.0090 os        1 M18     -0.440900
     16 C11         6.9820    1.8990    0.0030 c3        1 M18      0.184800
     17 C12         7.5280    0.6480   -0.6640 c3        1 M18     -0.114100
     18 C13         7.2960    3.1330   -0.8420 c3        1 M18     -0.114100
     19 C14         7.5260    2.0670    1.4110 c3        1 M18     -0.114100
     20 O4          5.4790   -0.0070    1.2880 o         1 M18     -0.591000
     21 O5          1.7870    0.1360   -1.1120 o         1 M18     -0.625100
     22 C15        -4.4860    0.1560    0.4610 ca        1 M18     -0.082300
     23 C16        -5.8830    0.1710    0.5130 ca        1 M18     -0.111000
     24 C17        -6.5740    1.3210    0.1220 ca        1 M18      0.016400
     25 CL1        -8.2730    1.3400    0.1900 cl        1 M18     -0.091400
     26 C18        -5.8860    2.4530   -0.3240 ca        1 M18     -0.117000
     27 C19        -4.4920    2.4280   -0.3770 ca        1 M18     -0.120000
     28 C20        -3.7930    1.2880    0.0120 ca        1 M18     -0.118000
     29 H1         -4.4430   -1.8480    1.2680 hc        1 M18      0.085200
     30 H1A        -3.0600   -0.7660    1.7650 hc        1 M18      0.085200
     31 H3         -1.3720   -2.0160   -2.1590 h1        1 M18      0.087200
     32 H3A        -0.4350   -0.4620   -1.8000 h1        1 M18      0.087200
     33 H4          1.0220   -2.4390   -1.7700 h1        1 M18      0.070700
     34 H5         -1.2180   -3.7120   -0.3250 hc        1 M18      0.066200
     35 H5A         0.3070   -4.4680   -0.9340 hc        1 M18      0.066200
     36 H6         -0.4100   -3.8160    1.8570 hc        1 M18      0.054700
     37 H6A         1.0850   -4.6280    1.2510 hc        1 M18      0.054700
     38 H7          0.8000   -1.8690    2.2440 h1        1 M18      0.044700
     39 H7A         2.3010   -2.6910    1.6200 h1        1 M18      0.044700
     40 H9          1.8630    0.5080    1.9050 h1        1 M18      0.090700
     41 H9A         3.2180   -0.7080    1.6780 h1        1 M18      0.090700
     42 HN2         3.1450    1.8240    0.1380 hn        1 M18      0.325500
     43 H12         7.0330    0.4940   -1.6530 hc        1 M18      0.052478
     44 H12A        8.6270    0.7610   -0.8210 hc        1 M18      0.052478
     45 H12B        7.3420   -0.2490   -0.0250 hc        1 M18      0.052478
     46 H13         6.8690    4.0460   -0.3640 hc        1 M18      0.052478
     47 H13A        8.4020    3.2430   -0.9270 hc        1 M18      0.052478
     48 H13B        6.8550    3.0240   -1.8610 hc        1 M18      0.052478
     49 H14         7.3380    1.1470    2.0150 hc        1 M18      0.052478
     50 H14A        8.6250    2.2520    1.3640 hc        1 M18      0.052478
     51 H14B        7.0320    2.9340    1.9110 hc        1 M18      0.052478
     52 H16        -6.4350   -0.7180    0.8570 ha        1 M18      0.150000
     53 H18        -6.4360    3.3550   -0.6310 ha        1 M18      0.149000
     54 H19        -3.9440    3.3140   -0.7310 ha        1 M18      0.142000
     55 H20        -2.6920    1.2620   -0.0370 ha        1 M18      0.153000
@<TRIPOS>BOND
     1    1    2 1   
     2    1   22 1   
     3    1   29 1   
     4    1   30 1   
     5    2    3 2   
     6    2    4 1   
     7    4    5 1   
     8    5    6 1   
     9    5   31 1   
    10    5   32 1   
    11    6    7 1   
    12    6   10 1   
    13    6   33 1   
    14    7    8 1   
    15    7   34 1   
    16    7   35 1   
    17    8    9 1   
    18    8   36 1   
    19    8   37 1   
    20    9   10 1   
    21    9   38 1   
    22    9   39 1   
    23   10   11 1   
    24   11   12 1   
    25   11   21 2   
    26   12   13 1   
    27   12   40 1   
    28   12   41 1   
    29   13   14 1   
    30   13   42 1   
    31   14   15 1   
    32   14   20 2   
    33   15   16 1   
    34   16   17 1   
    35   16   18 1   
    36   16   19 1   
    37   17   43 1   
    38   17   44 1   
    39   17   45 1   
    40   18   46 1   
    41   18   47 1   
    42   18   48 1   
    43   19   49 1   
    44   19   50 1   
    45   19   51 1   
    46   22   23 ar  
    47   22   28 ar  
    48   23   24 ar  
    49   23   52 1   
    50   24   25 1   
    51   24   26 ar  
    52   26   27 ar  
    53   26   53 1   
    54   27   28 ar  
    55   27   54 1   
    56   28   55 1   
@<TRIPOS>SUBSTRUCTURE
     1 M18         1 TEMP              0 ****  ****    0 ROOT
