@<TRIPOS>MOLECULE
M18
   56    57     1     0     0
SMALL
bcc


@<TRIPOS>ATOM
      1 C1          0.1780   -0.8700   -0.7470 c3        1 M18     -0.078100
      2 C2          1.6480   -0.9780   -1.0420 c         1 M18      0.685100
      3 O1          2.2920   -1.9980   -1.3310 o         1 M18     -0.649000
      4 O2          2.2870    0.2210   -1.0020 os        1 M18     -0.418900
      5 C3          3.7150    0.2790   -1.0920 c3        1 M18      0.114400
      6 C4          4.2240    0.4300   -2.5340 c3        1 M18      0.082700
      7 C5          3.5330    1.5890   -3.2820 c3        1 M18     -0.089400
      8 C6          3.0130    1.0200   -4.5990 c3        1 M18     -0.086400
      9 C7          3.2410   -0.4990   -4.5430 c3        1 M18      0.088000
     10 N1          4.0320   -0.7670   -3.3560 n         1 M18     -0.444800
     11 C8          4.4960   -1.9820   -2.9570 c         1 M18      0.667100
     12 C9          3.9790   -3.2560   -3.6600 c3        1 M18      0.042800
     13 N2          3.6150   -4.2480   -2.6060 ny        1 M18     -0.636800
     14 C10         3.2580   -5.5770   -3.1990 c         1 M18      0.632100
     15 O3          3.8910   -6.5500   -2.5400 os        1 M18     -0.417900
     16 C11         3.6690   -7.9730   -2.9380 c3        1 M18      0.199800
     17 C12         4.1400   -8.1680   -4.3630 c3        1 M18     -0.128767
     18 C13         4.5580   -8.6990   -1.9400 c3        1 M18     -0.128767
     19 C14         2.2080   -8.3180   -2.7520 c3        1 M18     -0.128767
     20 O4          2.4870   -5.6670   -4.1450 o         1 M18     -0.446000
     21 O5          5.3120   -2.1400   -2.0240 o         1 M18     -0.603100
     22 C15        -0.0980   -1.0640    0.7040 ca        1 M18     -0.100300
     23 C16         0.4450   -0.1760    1.6390 ca        1 M18     -0.118000
     24 C17         0.1540   -0.3390    2.9960 ca        1 M18      0.021400
     25 Cl1         0.8170    0.7350    4.1290 cl        1 M18     -0.067400
     26 C18        -0.6790   -1.3790    3.4250 ca        1 M18     -0.105000
     27 C19        -1.2180   -2.2560    2.4860 ca        1 M18     -0.115000
     28 C20        -0.9300   -2.1050    1.1290 ca        1 M18     -0.117000
     29 H1         -0.1840    0.1480   -1.0630 hc        1 M18      0.092200
     30 H1A        -0.3540   -1.6440   -1.3630 hc        1 M18      0.092200
     31 H3          3.9630    1.2170   -0.5230 h1        1 M18      0.094700
     32 H3A         4.1740   -0.6180   -0.5980 h1        1 M18      0.094700
     33 H4          5.3370    0.6200   -2.4520 h1        1 M18      0.091700
     34 H5          2.6920    1.9960   -2.6650 hc        1 M18      0.076200
     35 H5A         4.2640    2.4140   -3.4610 hc        1 M18      0.076200
     36 H6          3.5660    1.4590   -5.4660 hc        1 M18      0.070700
     37 H6A         1.9270    1.2430   -4.7340 hc        1 M18      0.070700
     38 H7          2.2560   -1.0410   -4.4850 h1        1 M18      0.049200
     39 H7A         3.7920   -0.8580   -5.4550 h1        1 M18      0.049200
     40 H9          3.0710   -3.0770   -4.3020 hx        1 M18      0.124200
     41 H9A         4.8090   -3.6780   -4.2940 hx        1 M18      0.124200
     42 HN2         2.8030   -3.8900   -2.0710 hn        1 M18      0.497800
     43 H12         4.1040   -9.2570   -4.6110 hc        1 M18      0.071811
     44 H12A        3.4810   -7.6200   -5.0800 hc        1 M18      0.071811
     45 H12B        5.1910   -7.8090   -4.4830 hc        1 M18      0.071811
     46 H13         4.2280   -8.4900   -0.8950 hc        1 M18      0.071811
     47 H13A        5.6210   -8.3780   -2.0550 hc        1 M18      0.071811
     48 H13B        4.4830   -9.7960   -2.1360 hc        1 M18      0.071811
     49 H14         2.0710   -9.4150   -2.9150 hc        1 M18      0.071811
     50 H14A        1.5700   -7.7680   -3.4870 hc        1 M18      0.071811
     51 H14B        1.8730   -8.0680   -1.7160 hc        1 M18      0.071811
     52 H16         1.0940    0.6460    1.2980 ha        1 M18      0.155000
     53 H18        -0.9110   -1.5000    4.4950 ha        1 M18      0.161000
     54 H19        -1.8800   -3.0710    2.8180 ha        1 M18      0.149000
     55 H20        -1.3670   -2.8000    0.3970 ha        1 M18      0.135000
     56 H22         4.4080   -4.3450   -1.9470 hn        1 M18      0.497800
@<TRIPOS>BOND
     1    1    2 1   
     2    1   22 1   
     3    1   29 1   
     4    1   30 1   
     5    2    3 2   
     6    2    4 1   
     7    4    5 1   
     8    5    6 1   
     9    5   31 1   
    10    5   32 1   
    11    6    7 1   
    12    6   10 1   
    13    6   33 1   
    14    7    8 1   
    15    7   34 1   
    16    7   35 1   
    17    8    9 1   
    18    8   36 1   
    19    8   37 1   
    20    9   10 1   
    21    9   38 1   
    22    9   39 1   
    23   10   11 1   
    24   11   12 1   
    25   11   21 2   
    26   12   13 1   
    27   12   40 1   
    28   12   41 1   
    29   13   14 1   
    30   13   42 1   
    31   13   56 1   
    32   14   15 1   
    33   14   20 2   
    34   15   16 1   
    35   16   17 1   
    36   16   18 1   
    37   16   19 1   
    38   17   43 1   
    39   17   44 1   
    40   17   45 1   
    41   18   46 1   
    42   18   47 1   
    43   18   48 1   
    44   19   49 1   
    45   19   50 1   
    46   19   51 1   
    47   22   23 ar  
    48   22   28 ar  
    49   23   24 ar  
    50   23   52 1   
    51   24   25 1   
    52   24   26 ar  
    53   26   27 ar  
    54   26   53 1   
    55   27   28 ar  
    56   27   54 1   
    57   28   55 1   
@<TRIPOS>SUBSTRUCTURE
     1 M18         1 TEMP              0 ****  ****    0 ROOT
