@<TRIPOS>MOLECULE
M18
   56    57     1     0     0
SMALL
bcc


@<TRIPOS>ATOM
      1 C1          0.1800   -0.8920   -0.7030 c3        1 M18     -0.078100
      2 C2          1.6450   -0.9850   -1.0290 c         1 M18      0.685100
      3 O1          2.2930   -1.9980   -1.3290 o         1 M18     -0.649000
      4 O2          2.2710    0.2210   -1.0060 os        1 M18     -0.418900
      5 C3          3.6950    0.2940   -1.1260 c3        1 M18      0.114400
      6 C4          4.1720    0.4470   -2.5800 c3        1 M18      0.082700
      7 C5          3.4520    1.5950   -3.3160 c3        1 M18     -0.089400
      8 C6          2.9110    1.0180   -4.6200 c3        1 M18     -0.086400
      9 C7          3.1570   -0.4990   -4.5640 c3        1 M18      0.088000
     10 N1          3.9750   -0.7540   -3.3930 n         1 M18     -0.444800
     11 C8          4.4610   -1.9640   -3.0020 c         1 M18      0.667100
     12 C9          3.9440   -3.2450   -3.6900 c3        1 M18      0.043800
     13 N2          3.6140   -4.2380   -2.6250 n4        1 M18     -0.636800
     14 C10         3.2600   -5.5720   -3.2070 c         1 M18      0.632100
     15 O3          3.9140   -6.5370   -2.5550 os        1 M18     -0.417900
     16 C11         3.6990   -7.9630   -2.9440 c3        1 M18      0.199800
     17 C12         4.1460   -8.1590   -4.3770 c3        1 M18     -0.128767
     18 C13         4.6140   -8.6760   -1.9600 c3        1 M18     -0.128767
     19 C14         2.2450   -8.3220   -2.7300 c3        1 M18     -0.128767
     20 O4          2.4720   -5.6740   -4.1380 o         1 M18     -0.446000
     21 O5          5.2990   -2.1090   -2.0850 o         1 M18     -0.603100
     22 C15        -0.0630   -1.0880    0.7540 ca        1 M18     -0.100300
     23 C16         0.4900   -0.1920    1.6760 ca        1 M18     -0.118000
     24 C17         0.2310   -0.3560    3.0390 ca        1 M18      0.021400
     25 CL1         0.9060    0.7270    4.1560 cl        1 M18     -0.067400
     26 C18        -0.5820   -1.4040    3.4870 ca        1 M18     -0.105000
     27 C19        -1.1310   -2.2880    2.5610 ca        1 M18     -0.115000
     28 C20        -0.8740   -2.1360    1.1990 ca        1 M18     -0.117000
     29 H1         -0.2000    0.1210   -1.0120 hc        1 M18      0.092200
     30 H1A        -0.3570   -1.6730   -1.3060 hc        1 M18      0.092200
     31 H3          3.9450    1.2380   -0.5650 h1        1 M18      0.094700
     32 H3A         4.1750   -0.5960   -0.6400 h1        1 M18      0.094700
     33 H4          5.2840    0.6500   -2.5220 h1        1 M18      0.091700
     34 H5          4.1700    2.4290   -3.5130 hc        1 M18      0.076200
     35 H5A         2.6200    1.9950   -2.6830 hc        1 M18      0.076200
     36 H6          1.8200    1.2280   -4.7320 hc        1 M18      0.070700
     37 H6A         3.4400    1.4600   -5.5000 hc        1 M18      0.070700
     38 H7          3.6920   -0.8550   -5.4870 h1        1 M18      0.049200
     39 H7A         2.1790   -1.0520   -4.4840 h1        1 M18      0.049200
     40 H9          3.0210   -3.0780   -4.3130 hx        1 M18      0.124200
     41 H9A         4.7660   -3.6600   -4.3400 hx        1 M18      0.124200
     42 HN2         4.4220   -4.3240   -1.9830 hn        1 M18      0.497800
     43 H12         3.4680   -7.6210   -5.0840 hc        1 M18      0.071811
     44 H12A        5.1910   -7.7910   -4.5170 hc        1 M18      0.071811
     45 H12B        4.1170   -9.2500   -4.6190 hc        1 M18      0.071811
     46 H13         4.5460   -9.7750   -2.1500 hc        1 M18      0.071811
     47 H13A        4.3010   -8.4660   -0.9090 hc        1 M18      0.071811
     48 H13B        5.6710   -8.3460   -2.0950 hc        1 M18      0.071811
     49 H14         2.1160   -9.4210   -2.8860 hc        1 M18      0.071811
     50 H14A        1.5890   -7.7820   -3.4550 hc        1 M18      0.071811
     51 H14B        1.9270   -8.0700   -1.6890 hc        1 M18      0.071811
     52 H16         1.1230    0.6370    1.3200 ha        1 M18      0.155000
     53 H18        -0.7890   -1.5260    4.5620 ha        1 M18      0.161000
     54 H19        -1.7770   -3.1100    2.9080 ha        1 M18      0.149000
     55 H20        -1.3190   -2.8370    0.4770 ha        1 M18      0.135000
     56 H22         2.8100   -3.8870   -2.0740 hn        1 M18      0.497800
@<TRIPOS>BOND
     1    1    2 1   
     2    1   22 1   
     3    1   29 1   
     4    1   30 1   
     5    2    3 2   
     6    2    4 1   
     7    4    5 1   
     8    5    6 1   
     9    5   31 1   
    10    5   32 1   
    11    6    7 1   
    12    6   10 1   
    13    6   33 1   
    14    7    8 1   
    15    7   34 1   
    16    7   35 1   
    17    8    9 1   
    18    8   36 1   
    19    8   37 1   
    20    9   10 1   
    21    9   38 1   
    22    9   39 1   
    23   10   11 1   
    24   11   12 1   
    25   11   21 2   
    26   12   13 1   
    27   12   40 1   
    28   12   41 1   
    29   13   14 1   
    30   13   42 1   
    31   13   56 1   
    32   14   15 1   
    33   14   20 2   
    34   15   16 1   
    35   16   17 1   
    36   16   18 1   
    37   16   19 1   
    38   17   43 1   
    39   17   44 1   
    40   17   45 1   
    41   18   46 1   
    42   18   47 1   
    43   18   48 1   
    44   19   49 1   
    45   19   50 1   
    46   19   51 1   
    47   22   23 ar  
    48   22   28 ar  
    49   23   24 ar  
    50   23   52 1   
    51   24   25 1   
    52   24   26 ar  
    53   26   27 ar  
    54   26   53 1   
    55   27   28 ar  
    56   27   54 1   
    57   28   55 1   
@<TRIPOS>SUBSTRUCTURE
     1 M18         1 TEMP              0 ****  ****    0 ROOT
