@<TRIPOS>MOLECULE
M1A
   19    20     1     0     0
SMALL
bcc


@<TRIPOS>ATOM
      1 N9         -2.4130    0.7710   -0.0330 na        1 M1A     -0.258500
      2 C8         -2.7430   -0.6050    0.0270 cc        1 M1A      0.450700
      3 N7         -1.6660   -1.4090    0.0600 nd        1 M1A     -0.513100
      4 C5         -0.5670   -0.5400    0.0210 cd        1 M1A     -0.148900
      5 C6          0.8430   -0.8120    0.0310 cc        1 M1A      0.385300
      6 N6          1.3050   -2.0820    0.0850 nh        1 M1A     -0.799200
      7 N1          1.6810    0.3090   -0.0190 na        1 M1A     -0.248900
      8 C2          1.1180    1.5980   -0.0740 cc        1 M1A      0.570400
      9 N3         -0.1620    1.9180   -0.0860 nd        1 M1A     -0.626000
     10 C4         -1.0280    0.8380   -0.0380 cd        1 M1A      0.402300
     11 CN1         3.1200    0.1560   -0.0150 c3        1 M1A     -0.019400
     12 HN9        -3.0400    1.5400   -0.0650 hn        1 M1A      0.352700
     13 H8         -3.7920   -0.9440    0.0430 h5        1 M1A      0.114800
     14 HN61        0.6440   -2.8320    0.1180 hn        1 M1A      0.486300
     15 HN62        2.2760   -2.3000    0.0930 hn        1 M1A      0.486300
     16 H2          1.8510    2.4410   -0.1110 h5        1 M1A      0.099100
     17 H11         3.4490   -0.3600    0.9290 h1        1 M1A      0.088700
     18 H12         3.4460   -0.4390   -0.9110 h1        1 M1A      0.088700
     19 H13         3.6130    1.1650   -0.0590 h1        1 M1A      0.088700
@<TRIPOS>BOND
     1    1    2 1   
     2    1   10 2   
     3    1   12 1   
     4    2    3 2   
     5    2   13 1   
     6    3    4 1   
     7    4    5 2   
     8    4   10 1   
     9    5    6 1   
    10    5    7 1   
    11    6   14 1   
    12    6   15 1   
    13    7    8 1   
    14    7   11 1   
    15    8    9 2   
    16    8   16 1   
    17    9   10 1   
    18   11   17 1   
    19   11   18 1   
    20   11   19 1   
@<TRIPOS>SUBSTRUCTURE
     1 M1A         1 TEMP              0 ****  ****    0 ROOT
