@<TRIPOS>MOLECULE
M1A
   20    21     1     0     0
SMALL
bcc


@<TRIPOS>ATOM
      1 N9         -0.0500   -0.0020   -0.0450 na        1 M1A     -0.266500
      2 C8          1.3720    0.0040   -0.0190 cc        1 M1A      0.585700
      3 N7          1.8940    0.0080    1.2230 nd        1 M1A     -0.559100
      4 C5          0.7920    0.0050    2.0870 cd        1 M1A     -0.011900
      5 C6          0.6730    0.0060    3.4740 cc        1 M1A      0.096300
      6 N6          1.8880    0.0130    4.3040 n4        1 M1A     -0.720000
      7 N1         -0.6030    0.0020    4.0410 na        1 M1A     -0.149900
      8 C2         -1.7080   -0.0040    3.1960 cc        1 M1A      0.607400
      9 N3         -1.7000   -0.0050    1.8530 nd        1 M1A     -0.574000
     10 C4         -0.4740   -0.0020    1.2710 cd        1 M1A      0.473300
     11 CN1        -0.7850    0.0040    5.4850 c3        1 M1A     -0.051400
     12 HN9        -0.6360   -0.0050   -0.8580 hn        1 M1A      0.392700
     13 H8          1.9670    0.0050   -0.9600 h5        1 M1A      0.157800
     14 HN61        1.9230   -0.8290    4.9030 hn        1 M1A      0.506133
     15 HN62        1.9170    0.8560    4.9000 hn        1 M1A      0.506133
     16 H2         -2.7240   -0.0070    3.6830 h5        1 M1A      0.146100
     17 H11        -0.3250   -0.9210    5.9310 h1        1 M1A      0.118700
     18 H12        -1.8860   -0.0010    5.7340 h1        1 M1A      0.118700
     19 H13        -0.3320    0.9330    5.9290 h1        1 M1A      0.118700
     20 H63         2.7240    0.0150    3.6850 hn        1 M1A      0.506133
@<TRIPOS>BOND
     1    1    2 1   
     2    1   10 2   
     3    1   12 1   
     4    2    3 2   
     5    2   13 1   
     6    3    4 1   
     7    4    5 2   
     8    4   10 1   
     9    5    6 1   
    10    5    7 1   
    11    6   14 1   
    12    6   15 1   
    13    6   20 1   
    14    7    8 1   
    15    7   11 1   
    16    8    9 2   
    17    8   16 1   
    18    9   10 1   
    19   11   17 1   
    20   11   18 1   
    21   11   19 1   
@<TRIPOS>SUBSTRUCTURE
     1 M1A         1 TEMP              0 ****  ****    0 ROOT
