@<TRIPOS>MOLECULE
M1A
   19    20     1     0     0
SMALL
bcc


@<TRIPOS>ATOM
      1 N9         -0.0300   -0.0590   -0.0230 na        1 M1A     -0.258500
      2 C8          1.3870   -0.0690   -0.0050 cc        1 M1A      0.450700
      3 N7          1.9030   -0.0470    1.2370 nd        1 M1A     -0.513100
      4 C5          0.7900   -0.0200    2.0870 cd        1 M1A     -0.148900
      5 C6          0.7080    0.0110    3.5210 cc        1 M1A      0.385300
      6 N6          1.8260    0.0190    4.2810 nh        1 M1A     -0.799200
      7 N1         -0.5860    0.0330    4.0580 na        1 M1A     -0.248900
      8 C2         -1.6990    0.0230    3.1950 cc        1 M1A      0.570400
      9 N3         -1.6940   -0.0050    1.8760 nd        1 M1A     -0.626000
     10 C4         -0.4340   -0.0270    1.3020 cd        1 M1A      0.402300
     11 CN1        -0.7910    0.0650    5.4900 c3        1 M1A     -0.019400
     12 HN9        -0.6220   -0.0710   -0.8200 hn        1 M1A      0.352700
     13 H8          1.9730   -0.0940   -0.9380 h5        1 M1A      0.114800
     14 HN61        1.7990    0.0400    5.2750 hn        1 M1A      0.486300
     15 HN62        2.7160    0.0020    3.8250 hn        1 M1A      0.486300
     16 H2         -2.6960    0.0420    3.6980 h5        1 M1A      0.099100
     17 H11        -0.3260    0.9910    5.9240 h1        1 M1A      0.088700
     18 H12        -1.8920    0.0780    5.7200 h1        1 M1A      0.088700
     19 H13        -0.3400   -0.8500    5.9640 h1        1 M1A      0.088700
@<TRIPOS>BOND
     1    1    2 1   
     2    1   10 2   
     3    1   12 1   
     4    2    3 2   
     5    2   13 1   
     6    3    4 1   
     7    4    5 2   
     8    4   10 1   
     9    5    6 1   
    10    5    7 1   
    11    6   14 1   
    12    6   15 1   
    13    7    8 1   
    14    7   11 1   
    15    8    9 2   
    16    8   16 1   
    17    9   10 1   
    18   11   17 1   
    19   11   18 1   
    20   11   19 1   
@<TRIPOS>SUBSTRUCTURE
     1 M1A         1 TEMP              0 ****  ****    0 ROOT
