@<TRIPOS>MOLECULE
M1A
   19    20     1     0     0
SMALL
bcc


@<TRIPOS>ATOM
      1 N9         -0.0240   -0.0430   -0.0240 na        1 M1A     -0.258500
      2 C8          1.3930   -0.0670   -0.0020 cc        1 M1A      0.450700
      3 N7          1.9060   -0.0550    1.2410 nd        1 M1A     -0.513100
      4 C5          0.7910   -0.0220    2.0890 cd        1 M1A     -0.148900
      5 C6          0.7060    0.0030    3.5230 cc        1 M1A      0.385300
      6 N6          1.8230   -0.0040    4.2850 nv        1 M1A     -0.799200
      7 N1         -0.5890    0.0330    4.0560 na        1 M1A     -0.248900
      8 C2         -1.7000    0.0380    3.1910 cc        1 M1A      0.570400
      9 N3         -1.6920    0.0160    1.8720 nd        1 M1A     -0.626000
     10 C4         -0.4310   -0.0150    1.3010 cd        1 M1A      0.402300
     11 CN1        -0.7970    0.0600    5.4890 c3        1 M1A     -0.019400
     12 HN9        -0.6140   -0.0460   -0.8220 hn        1 M1A      0.352700
     13 H8          1.9810   -0.0920   -0.9340 h5        1 M1A      0.114800
     14 HN61        1.7940    0.0130    5.2800 hn        1 M1A      0.486300
     15 HN62        2.7140   -0.0260    3.8320 hn        1 M1A      0.486300
     16 H2         -2.6970    0.0630    3.6920 h5        1 M1A      0.099100
     17 H11        -0.3540   -0.8610    5.9590 h1        1 M1A      0.088700
     18 H12        -1.8980    0.0820    5.7160 h1        1 M1A      0.088700
     19 H13        -0.3240    0.9810    5.9280 h1        1 M1A      0.088700
@<TRIPOS>BOND
     1    1    2 1   
     2    1   10 2   
     3    1   12 1   
     4    2    3 2   
     5    2   13 1   
     6    3    4 1   
     7    4    5 2   
     8    4   10 1   
     9    5    6 1   
    10    5    7 1   
    11    6   14 1   
    12    6   15 1   
    13    7    8 1   
    14    7   11 1   
    15    8    9 2   
    16    8   16 1   
    17    9   10 1   
    18   11   17 1   
    19   11   18 1   
    20   11   19 1   
@<TRIPOS>SUBSTRUCTURE
     1 M1A         1 TEMP              0 ****  ****    0 ROOT
