@<TRIPOS>MOLECULE
M1B
   45    33     1     0     0
SMALL
bcc


@<TRIPOS>ATOM
      1 C1         -3.3850   -0.1450   -5.6790 c1        1 M1B     -0.103500
      2 C2         -3.0400   -1.3610   -5.1090 c1        1 M1B     -0.110750
      3 C3         -2.3440   -1.3890   -3.9210 c1        1 M1B     -0.110750
      4 C4         -1.9860   -0.1920   -3.2910 c1        1 M1B     -0.045500
      5 C5         -2.3310    1.0240   -3.8620 c1        1 M1B     -0.088000
      6 C6         -3.0230    1.0560   -5.0430 c1        1 M1B     -0.128000
      7 C7         -1.2610   -0.2230   -2.0830 c1        1 M1B     -0.045500
      8 C8          0.1320   -0.2060   -2.1100 c1        1 M1B     -0.088000
      9 C9          0.8530   -0.1660   -0.9140 c1        1 M1B     -0.088000
     10 C10         0.1820   -0.1430    0.3000 c1        1 M1B     -0.045500
     11 C11        -1.2100   -0.1600    0.3270 c1        1 M1B     -0.110750
     12 C12        -1.9310   -0.2000   -0.8680 c1        1 M1B     -0.110750
     13 C13         0.8950   -0.0530    1.4780 c1        1 M1B      0.058000
     14 C14        -3.2940    2.3970   -5.7280 c2        1 M1B      0.117000
     15 N15        -4.3390    3.0400   -5.4560 n1        1 M1B     -0.303000
     16 N16        -2.3250    2.9370   -6.7040 n3        1 M1B     -0.332000
     17 N17         1.3920    1.0020    2.1780 n2        1 M1B     -0.235000
     18 C18         2.0560    0.5070    3.2820 c1        1 M1B     -0.015000
     19 C19         1.9630   -0.8480    3.2540 c1        1 M1B     -0.045500
     20 N20         1.2440   -1.2010    2.1370 n1        1 M1B     -0.124000
     21 C21         2.5020   -1.6230    4.3280 c1        1 M1B     -0.088000
     22 C22         2.6960    1.1600    4.3920 c1        1 M1B     -0.138000
     23 C23         3.2230    0.4000    5.4420 c1        1 M1B     -0.103500
     24 C24         3.1290   -0.9810    5.4140 c1        1 M1B     -0.128000
     25 C25         3.7530   -1.7830    6.5780 c2        1 M1B      0.117000
     26 N26         2.9830   -2.0640    7.7390 n3        1 M1B     -0.332000
     27 N27         4.9940   -2.2080    6.4970 n1        1 M1B     -0.303000
     28 H1         -3.8870   -0.1220   -6.5350 ha        1 M1B      0.140500
     29 H2         -3.2800   -2.1610   -5.5310 ha        1 M1B      0.145250
     30 H3         -2.0950   -2.2660   -3.5070 ha        1 M1B      0.145250
     31 H5         -2.0810    1.8610   -3.4200 ha        1 M1B      0.148000
     32 H8          0.5880   -0.2190   -2.9390 ha        1 M1B      0.148000
     33 H9          1.8480   -0.1540   -0.9310 ha        1 M1B      0.148000
     34 H11        -1.6950   -0.1420    1.2030 ha        1 M1B      0.145250
     35 H12        -2.9420   -0.2100   -0.8480 ha        1 M1B      0.145250
     36 HN15       -4.9520    2.6980   -4.8360 DU        1 M1B      0.186667
     37 H161       -1.6910    2.4270   -7.0140 hn        1 M1B      0.193250
     38 H162       -2.4210    3.7630   -7.0140 hn        1 M1B      0.193250
     39 HN17        1.2610    1.9130    1.9730 DU        1 M1B      0.186667
     40 H21         2.4380   -2.5800    4.3080 ha        1 M1B      0.148000
     41 H22         2.7630    2.1360    4.4130 ha        1 M1B      0.140000
     42 H23         3.6600    0.8460    6.1980 ha        1 M1B      0.140500
     43 H261        2.1800   -1.7160    7.8290 hn        1 M1B      0.193250
     44 H262        3.2820   -2.6240    8.3310 hn        1 M1B      0.193250
     45 HN27        5.4990   -2.0270    5.7410 DU        1 M1B      0.186667
@<TRIPOS>BOND
     1    1    6 1   
     2    1   28 1   
     3    2    3 1   
     4    2   29 1   
     5    3   30 1   
     6    4    5 1   
     7    5   31 1   
     8    6   14 1   
     9    7    8 1   
    10    8   32 1   
    11    9   10 1   
    12    9   33 1   
    13   11   12 1   
    14   11   34 1   
    15   12   35 1   
    16   13   17 1   
    17   13   20 1   
    18   14   15 1   
    19   14   16 1   
    20   16   37 1   
    21   16   38 1   
    22   17   18 1   
    23   18   22 1   
    24   19   21 1   
    25   21   40 1   
    26   22   41 1   
    27   23   24 1   
    28   23   42 1   
    29   24   25 1   
    30   25   26 1   
    31   25   27 1   
    32   26   43 1   
    33   26   44 1   
@<TRIPOS>SUBSTRUCTURE
     1 M1B         1 TEMP              0 ****  ****    0 ROOT
