@<TRIPOS>MOLECULE
M1B
   45    48     1     0     0
SMALL
bcc


@<TRIPOS>ATOM
      1 C1          2.7970   -3.8000   13.1600 ca        1 M1B     -0.090000
      2 C2          1.8780   -4.4680   12.3510 ca        1 M1B     -0.136000
      3 C3          1.7270   -4.1090   11.0130 ca        1 M1B     -0.105000
      4 C4          2.4980   -3.0720   10.4670 cp        1 M1B     -0.047000
      5 C5          3.4230   -2.4040   11.2810 ca        1 M1B     -0.101000
      6 C6          3.5710   -2.7680   12.6220 ca        1 M1B     -0.197900
      7 C7          2.3400   -2.6920    9.0650 cp        1 M1B     -0.022000
      8 C8          2.1790   -3.6750    8.0770 ca        1 M1B     -0.123500
      9 C9          2.0290   -3.3170    6.7410 ca        1 M1B     -0.099500
     10 C10         2.0310   -1.9650    6.3700 ca        1 M1B     -0.114900
     11 C11         2.1980   -0.9790    7.3510 ca        1 M1B     -0.099500
     12 C12         2.3520   -1.3420    8.6870 ca        1 M1B     -0.123500
     13 C13         1.8730   -1.5700    4.9690 cc        1 M1B      0.469400
     14 C14         4.5860   -2.0560   13.4640 ce        1 M1B      0.636800
     15 N15         5.8300   -1.8930   13.1240 n2        1 M1B     -0.831100
     16 N16         4.0980   -1.6220   14.7160 nh        1 M1B     -0.892800
     17 N17         1.0950   -2.3330    4.0600 na        1 M1B     -0.278300
     18 C18         1.1490   -1.6720    2.8350 ca        1 M1B     -0.059200
     19 C19         1.9900   -0.5050    3.0490 ca        1 M1B      0.060400
     20 N20         2.4210   -0.4770    4.3880 nd        1 M1B     -0.553100
     21 C21         2.2430    0.3680    1.9830 ca        1 M1B     -0.050000
     22 C22         0.5830   -1.9410    1.5820 ca        1 M1B     -0.142000
     23 C23         0.8590   -1.0570    0.5510 ca        1 M1B     -0.080000
     24 C24         1.6740    0.0770    0.7470 ca        1 M1B     -0.221900
     25 C25         1.9200    1.0150   -0.3970 ce        1 M1B      0.640800
     26 N26         2.3580    0.3820   -1.5810 nh        1 M1B     -0.892800
     27 N27         1.7010    2.2960   -0.3500 n2        1 M1B     -0.835100
     28 H1          2.9180   -4.0890   14.2160 ha        1 M1B      0.152000
     29 H2          1.2690   -5.2820   12.7710 ha        1 M1B      0.139000
     30 H3          0.9950   -4.6350   10.3820 ha        1 M1B      0.138000
     31 H5          4.0380   -1.5950   10.8560 ha        1 M1B      0.144000
     32 H8          2.1840   -4.7390    8.3600 ha        1 M1B      0.141000
     33 H9          1.9290   -4.1070    5.9820 ha        1 M1B      0.146500
     34 H11         2.2110    0.0860    7.0670 ha        1 M1B      0.146500
     35 H12         2.4780   -0.5610    9.4520 ha        1 M1B      0.141000
     36 HN15        6.0810   -2.3300   12.2640 hn        1 M1B      0.396400
     37 H161        4.7060   -1.0160   15.2230 hn        1 M1B      0.398300
     38 H162        3.1580   -1.2970   14.6780 hn        1 M1B      0.398300
     39 HN17        0.5700   -3.1370    4.2750 hn        1 M1B      0.308700
     40 H21         2.8780    1.2540    2.1300 ha        1 M1B      0.156000
     41 H22        -0.0560   -2.8200    1.4210 ha        1 M1B      0.140000
     42 H23         0.4270   -1.2370   -0.4460 ha        1 M1B      0.152000
     43 H261        2.6840    0.9970   -2.2960 hn        1 M1B      0.397300
     44 H262        2.9720   -0.3830   -1.4090 hn        1 M1B      0.397300
     45 HN27        1.3000    2.6100    0.5070 hn        1 M1B      0.396400
@<TRIPOS>BOND
     1    1    2 ar  
     2    1    6 ar  
     3    1   28 1   
     4    2    3 ar  
     5    2   29 1   
     6    3    4 ar  
     7    3   30 1   
     8    4    5 ar  
     9    4    7 1   
    10    5    6 ar  
    11    5   31 1   
    12    6   14 1   
    13    7    8 ar  
    14    7   12 ar  
    15    8    9 ar  
    16    8   32 1   
    17    9   10 ar  
    18    9   33 1   
    19   10   11 ar  
    20   10   13 1   
    21   11   12 ar  
    22   11   34 1   
    23   12   35 1   
    24   13   17 1   
    25   13   20 2   
    26   14   15 2   
    27   14   16 1   
    28   15   36 1   
    29   16   37 1   
    30   16   38 1   
    31   17   18 1   
    32   17   39 1   
    33   18   19 ar  
    34   18   22 ar  
    35   19   20 1   
    36   19   21 ar  
    37   21   24 ar  
    38   21   40 1   
    39   22   23 ar  
    40   22   41 1   
    41   23   24 ar  
    42   23   42 1   
    43   24   25 1   
    44   25   26 1   
    45   25   27 2   
    46   26   43 1   
    47   26   44 1   
    48   27   45 1   
@<TRIPOS>SUBSTRUCTURE
     1 M1B         1 TEMP              0 ****  ****    0 ROOT
