@<TRIPOS>MOLECULE
M1B
   47    50     1     0     0
SMALL
bcc


@<TRIPOS>ATOM
      1 C1         -0.0710    0.4030   -0.0230 ca        1 M1B     -0.101000
      2 C2          1.3020    0.6410    0.0120 ca        1 M1B     -0.107000
      3 C3          1.9990    0.5630    1.2170 ca        1 M1B     -0.066000
      4 C4          1.3290    0.2500    2.4110 cp        1 M1B     -0.021000
      5 C5         -0.0510    0.0100    2.3780 ca        1 M1B     -0.080000
      6 C6         -0.7420    0.0850    1.1640 ca        1 M1B     -0.258900
      7 C7          2.0650    0.1880    3.6740 cp        1 M1B     -0.041000
      8 C8          3.3310   -0.4140    3.7240 ca        1 M1B     -0.113000
      9 C9          4.0460   -0.4530    4.9180 ca        1 M1B     -0.087500
     10 C10         3.5060    0.1160    6.0790 ca        1 M1B     -0.116900
     11 C11         2.2370    0.7090    6.0380 ca        1 M1B     -0.087500
     12 C12         1.5230    0.7420    4.8420 ca        1 M1B     -0.113000
     13 C13         4.2510    0.0990    7.3420 cc        1 M1B      0.495400
     14 C14        -2.2050   -0.1230    1.1530 ce        1 M1B      0.588800
     15 N15        -3.1610    0.5370    1.6810 n2        1 M1B     -0.704100
     16 N16        -2.5930   -1.3470    0.3620 n4        1 M1B     -0.824600
     17 N17         5.6680    0.2050    7.3780 na        1 M1B     -0.262300
     18 C18         6.0370    0.1830    8.7170 ca        1 M1B     -0.032200
     19 C19         4.7950    0.0460    9.4700 ca        1 M1B      0.064400
     20 N20         3.7090   -0.0040    8.5780 nd        1 M1B     -0.539100
     21 C21         4.8330   -0.0020   10.8670 ca        1 M1B     -0.014000
     22 C22         7.2770    0.2650    9.3680 ca        1 M1B     -0.106000
     23 C23         7.2800    0.2130   10.7510 ca        1 M1B     -0.100000
     24 C24         6.0800    0.0830   11.4860 ca        1 M1B     -0.289900
     25 C25         6.1410    0.0950   12.9610 ce        1 M1B      0.594800
     26 N26         6.7830   -1.1590   13.5020 n4        1 M1B     -0.825600
     27 N27         5.7530    0.9510   13.8240 n2        1 M1B     -0.707100
     28 H1         -0.6160    0.4960   -0.9750 ha        1 M1B      0.144000
     29 H2          1.8370    0.9010   -0.9170 ha        1 M1B      0.171000
     30 H3          3.0840    0.7620    1.2360 ha        1 M1B      0.166000
     31 H5         -0.5830   -0.2370    3.3110 ha        1 M1B      0.153000
     32 H8          3.7620   -0.8670    2.8180 ha        1 M1B      0.146500
     33 H9          5.0290   -0.9490    4.9370 ha        1 M1B      0.156500
     34 H11         1.8000    1.1510    6.9490 ha        1 M1B      0.156500
     35 H12         0.5330    1.2230    4.8170 ha        1 M1B      0.146500
     36 HN15       -2.9460    1.3630    2.2010 hn        1 M1B      0.491400
     37 H161       -2.2200   -2.1730    0.8430 hn        1 M1B      0.472133
     38 H162       -2.1660   -1.2760   -0.5680 hn        1 M1B      0.472133
     39 HN17        6.2640    0.3330    6.6010 hn        1 M1B      0.326700
     40 H21         3.9010   -0.0960   11.4450 ha        1 M1B      0.167000
     41 H22         8.2140    0.3770    8.8020 ha        1 M1B      0.168000
     42 H23         8.2390    0.3060   11.2850 ha        1 M1B      0.141000
     43 H261        6.1780   -1.9550   13.2730 hn        1 M1B      0.470133
     44 H262        6.9210   -1.1180   14.5200 hn        1 M1B      0.470133
     45 HN27        5.3320    1.7990   13.5040 hn        1 M1B      0.491400
     46 H163       -3.6130   -1.4400    0.2670 hn        1 M1B      0.472133
     47 H263        7.6890   -1.2790   13.0360 hn        1 M1B      0.470133
@<TRIPOS>BOND
     1    1    2 ar  
     2    1    6 ar  
     3    1   28 1   
     4    2    3 ar  
     5    2   29 1   
     6    3    4 ar  
     7    3   30 1   
     8    4    5 ar  
     9    4    7 1   
    10    5    6 ar  
    11    5   31 1   
    12    6   14 1   
    13    7    8 ar  
    14    7   12 ar  
    15    8    9 ar  
    16    8   32 1   
    17    9   10 ar  
    18    9   33 1   
    19   10   11 ar  
    20   10   13 1   
    21   11   12 ar  
    22   11   34 1   
    23   12   35 1   
    24   13   17 1   
    25   13   20 2   
    26   14   15 2   
    27   14   16 1   
    28   15   36 1   
    29   16   37 1   
    30   16   38 1   
    31   16   46 1   
    32   17   18 1   
    33   17   39 1   
    34   18   19 ar  
    35   18   22 ar  
    36   19   20 1   
    37   19   21 ar  
    38   21   24 ar  
    39   21   40 1   
    40   22   23 ar  
    41   22   41 1   
    42   23   24 ar  
    43   23   42 1   
    44   24   25 1   
    45   25   26 1   
    46   25   27 2   
    47   26   43 1   
    48   26   44 1   
    49   26   47 1   
    50   27   45 1   
@<TRIPOS>SUBSTRUCTURE
     1 M1B         1 TEMP              0 ****  ****    0 ROOT
