@<TRIPOS>MOLECULE
M1B
   47    50     1     0     0
SMALL
bcc


@<TRIPOS>ATOM
      1 C1         -0.0040   -0.1180   -0.0670 ca        1 M1B     -0.102000
      2 C2          1.3680    0.1240   -0.0460 ca        1 M1B     -0.107000
      3 C3          2.0560    0.1700    1.1660 ca        1 M1B     -0.067000
      4 C4          1.3780   -0.0270    2.3800 cp        1 M1B     -0.021000
      5 C5         -0.0030   -0.2620    2.3620 ca        1 M1B     -0.079000
      6 C6         -0.6860   -0.3070    1.1410 ca        1 M1B     -0.256900
      7 C7          2.1100    0.0020    3.6460 cp        1 M1B     -0.041000
      8 C8          3.3630   -0.6220    3.7470 ca        1 M1B     -0.113000
      9 C9          4.0710   -0.5950    4.9460 ca        1 M1B     -0.088000
     10 C10         3.5370    0.0640    6.0610 ca        1 M1B     -0.116900
     11 C11         2.2830    0.6840    5.9690 ca        1 M1B     -0.088000
     12 C12         1.5760    0.6500    4.7680 ca        1 M1B     -0.113000
     13 C13         4.2690    0.1060    7.3300 cc        1 M1B      0.495400
     14 C14        -2.1300   -0.6220    1.1390 ce        1 M1B      0.588800
     15 N15        -2.7750   -1.6470    1.5430 n2        1 M1B     -0.705100
     16 N16        -2.9520    0.4960    0.5480 n4        1 M1B     -0.823600
     17 N17         5.6880    0.1630    7.3760 na        1 M1B     -0.262300
     18 C18         6.0440    0.2070    8.7170 ca        1 M1B     -0.032200
     19 C19         4.7910    0.1650    9.4640 ca        1 M1B      0.064400
     20 N20         3.7120    0.1010    8.5640 nd        1 M1B     -0.539100
     21 C21         4.8160    0.1970   10.8610 ca        1 M1B     -0.014000
     22 C22         7.2810    0.2800    9.3760 ca        1 M1B     -0.106000
     23 C23         7.2700    0.3090   10.7600 ca        1 M1B     -0.100000
     24 C24         6.0600    0.2680   11.4880 ca        1 M1B     -0.289900
     25 C25         6.1090    0.3600   12.9610 ce        1 M1B      0.594800
     26 N26         6.6900   -0.8900   13.5770 n4        1 M1B     -0.825600
     27 N27         5.7540    1.2790   13.7710 n2        1 M1B     -0.707100
     28 H1         -0.5280   -0.1860   -1.0320 ha        1 M1B      0.142000
     29 H2          1.9130    0.2730   -0.9930 ha        1 M1B      0.171000
     30 H3          3.1430    0.3630    1.1720 ha        1 M1B      0.166000
     31 H5         -0.5410   -0.4220    3.3110 ha        1 M1B      0.153000
     32 H8          3.7870   -1.1480    2.8770 ha        1 M1B      0.146500
     33 H9          5.0410   -1.1120    5.0060 ha        1 M1B      0.156500
     34 H11         1.8510    1.1980    6.8440 ha        1 M1B      0.156500
     35 H12         0.5970    1.1480    4.7040 ha        1 M1B      0.146500
     36 HN15       -2.2640   -2.4150    1.9300 hn        1 M1B      0.491400
     37 H161       -2.8680    1.3160    1.1580 hn        1 M1B      0.472133
     38 H162       -2.5690    0.7220   -0.3760 hn        1 M1B      0.472133
     39 HN17        6.2970    0.2150    6.6000 hn        1 M1B      0.326700
     40 H21         3.8760    0.1730   11.4340 ha        1 M1B      0.167000
     41 H22         8.2270    0.3220    8.8150 ha        1 M1B      0.168000
     42 H23         8.2270    0.3950   11.2980 ha        1 M1B      0.142000
     43 H261        7.5930   -1.0740   13.1280 hn        1 M1B      0.470467
     44 H262        6.0530   -1.6690   13.3840 hn        1 M1B      0.470467
     45 HN27        5.3730    2.1260   13.4000 hn        1 M1B      0.491400
     46 H163       -3.9440    0.2390    0.4560 hn        1 M1B      0.472133
     47 H263        6.8210   -0.7980   14.5920 hn        1 M1B      0.470467
@<TRIPOS>BOND
     1    1    2 ar  
     2    1    6 ar  
     3    1   28 1   
     4    2    3 ar  
     5    2   29 1   
     6    3    4 ar  
     7    3   30 1   
     8    4    5 ar  
     9    4    7 1   
    10    5    6 ar  
    11    5   31 1   
    12    6   14 1   
    13    7    8 ar  
    14    7   12 ar  
    15    8    9 ar  
    16    8   32 1   
    17    9   10 ar  
    18    9   33 1   
    19   10   11 ar  
    20   10   13 1   
    21   11   12 ar  
    22   11   34 1   
    23   12   35 1   
    24   13   17 1   
    25   13   20 2   
    26   14   15 2   
    27   14   16 1   
    28   15   36 1   
    29   16   37 1   
    30   16   38 1   
    31   16   46 1   
    32   17   18 1   
    33   17   39 1   
    34   18   19 ar  
    35   18   22 ar  
    36   19   20 1   
    37   19   21 ar  
    38   21   24 ar  
    39   21   40 1   
    40   22   23 ar  
    41   22   41 1   
    42   23   24 ar  
    43   23   42 1   
    44   24   25 1   
    45   25   26 1   
    46   25   27 2   
    47   26   43 1   
    48   26   44 1   
    49   26   47 1   
    50   27   45 1   
@<TRIPOS>SUBSTRUCTURE
     1 M1B         1 TEMP              0 ****  ****    0 ROOT
