@<TRIPOS>MOLECULE
M1B
   47    50     1     0     0
SMALL
bcc


@<TRIPOS>ATOM
      1 C1         -0.0690    0.3390   -0.0280 ca        1 M1B     -0.101000
      2 C2          1.3160    0.4850   -0.0070 ca        1 M1B     -0.107000
      3 C3          2.0130    0.4130    1.1990 ca        1 M1B     -0.066000
      4 C4          1.3300    0.2000    2.4070 cp        1 M1B     -0.021000
      5 C5         -0.0640    0.0520    2.3890 ca        1 M1B     -0.080000
      6 C6         -0.7540    0.1190    1.1740 ca        1 M1B     -0.258900
      7 C7          2.0670    0.1440    3.6700 cp        1 M1B     -0.041000
      8 C8          3.2900   -0.5390    3.7440 ca        1 M1B     -0.113000
      9 C9          4.0080   -0.5740    4.9370 ca        1 M1B     -0.087500
     10 C10         3.5130    0.0820    6.0720 ca        1 M1B     -0.116900
     11 C11         2.2860    0.7550    6.0080 ca        1 M1B     -0.087500
     12 C12         1.5700    0.7840    4.8130 ca        1 M1B     -0.113000
     13 C13         4.2610    0.0700    7.3330 cc        1 M1B      0.495400
     14 C14        -2.2280    0.0110    1.1750 ce        1 M1B      0.588800
     15 N15        -3.1340    0.7570    1.6750 n2        1 M1B     -0.704100
     16 N16        -2.7010   -1.2190    0.4420 nz        1 M1B     -0.824600
     17 N17         5.6820    0.0830    7.3610 na        1 M1B     -0.262300
     18 C18         6.0560    0.0940    8.6990 ca        1 M1B     -0.032200
     19 C19         4.8120    0.0740    9.4600 ca        1 M1B      0.064400
     20 N20         3.7200    0.0570    8.5740 nd        1 M1B     -0.539100
     21 C21         4.8550    0.0850   10.8580 ca        1 M1B     -0.014000
     22 C22         7.3020    0.1220    9.3420 ca        1 M1B     -0.106000
     23 C23         7.3090    0.1300   10.7270 ca        1 M1B     -0.100000
     24 C24         6.1070    0.1130   11.4700 ca        1 M1B     -0.289900
     25 C25         6.1760    0.1850   12.9430 ce        1 M1B      0.594800
     26 N26         6.7380   -1.0840   13.5370 nz        1 M1B     -0.825600
     27 N27         5.8510    1.1020   13.7680 n2        1 M1B     -0.707100
     28 H1         -0.6120    0.4260   -0.9820 ha        1 M1B      0.144000
     29 H2          1.8630    0.6670   -0.9480 ha        1 M1B      0.171000
     30 H3          3.1090    0.5390    1.2060 ha        1 M1B      0.166000
     31 H5         -0.6060   -0.1170    3.3330 ha        1 M1B      0.153000
     32 H8          3.6850   -1.0590    2.8570 ha        1 M1B      0.146500
     33 H9          4.9550   -1.1330    4.9760 ha        1 M1B      0.156500
     34 H11         1.8840    1.2660    6.8990 ha        1 M1B      0.156500
     35 H12         0.6140    1.3290    4.7700 ha        1 M1B      0.146500
     36 HN15       -2.8610    1.5890    2.1580 hn        1 M1B      0.491400
     37 H161       -2.2750   -1.2180   -0.4920 hn        1 M1B      0.472133
     38 H162       -2.3830   -2.0460    0.9580 hn        1 M1B      0.472133
     39 HN17        6.2820    0.1360    6.5780 hn        1 M1B      0.326700
     40 H21         3.9210    0.0780   11.4420 ha        1 M1B      0.167000
     41 H22         8.2420    0.1460    8.7700 ha        1 M1B      0.168000
     42 H23         8.2750    0.1820   11.2540 ha        1 M1B      0.141000
     43 H261        7.6310   -1.2830   13.0740 hn        1 M1B      0.470133
     44 H262        6.0810   -1.8470   13.3440 hn        1 M1B      0.470133
     45 HN27        5.4850    1.9610   13.4120 hn        1 M1B      0.491400
     46 H163       -3.7260   -1.2460    0.3530 hn        1 M1B      0.472133
     47 H263        6.8830   -1.0070   14.5520 hn        1 M1B      0.470133
@<TRIPOS>BOND
     1    1    2 ar  
     2    1    6 ar  
     3    1   28 1   
     4    2    3 ar  
     5    2   29 1   
     6    3    4 ar  
     7    3   30 1   
     8    4    5 ar  
     9    4    7 1   
    10    5    6 ar  
    11    5   31 1   
    12    6   14 1   
    13    7    8 ar  
    14    7   12 ar  
    15    8    9 ar  
    16    8   32 1   
    17    9   10 ar  
    18    9   33 1   
    19   10   11 ar  
    20   10   13 1   
    21   11   12 ar  
    22   11   34 1   
    23   12   35 1   
    24   13   17 1   
    25   13   20 2   
    26   14   15 2   
    27   14   16 1   
    28   15   36 1   
    29   16   37 1   
    30   16   38 1   
    31   16   46 1   
    32   17   18 1   
    33   17   39 1   
    34   18   19 ar  
    35   18   22 ar  
    36   19   20 1   
    37   19   21 ar  
    38   21   24 ar  
    39   21   40 1   
    40   22   23 ar  
    41   22   41 1   
    42   23   24 ar  
    43   23   42 1   
    44   24   25 1   
    45   25   26 1   
    46   25   27 2   
    47   26   43 1   
    48   26   44 1   
    49   26   47 1   
    50   27   45 1   
@<TRIPOS>SUBSTRUCTURE
     1 M1B         1 TEMP              0 ****  ****    0 ROOT
