@<TRIPOS>MOLECULE
M1C
   38    38     1     0     0
SMALL
bcc


@<TRIPOS>ATOM
      1 C13        -0.3650    0.0370    0.2520 cx        1 M1C     -0.086900
      2 C12        -0.0790   -0.9340    1.3530 cx        1 M1C     -0.086900
      3 C11        -0.3440    0.5210    1.6920 cx        1 M1C     -0.030500
      4 N3          3.5330    2.7900    6.0610 n4        1 M1C     -0.834600
      5 C2          2.2470    2.1310    5.6570 c3        1 M1C      0.090500
      6 C1          1.9750    2.3720    4.1360 c3        1 M1C      0.327600
      7 C9          0.8280    1.4470    3.6430 c3        1 M1C      0.071800
      8 N10         0.7420    1.4080    2.1570 n4        1 M1C     -0.718000
      9 O8          1.7560    3.7200    3.8200 oh        1 M1C     -0.620300
     10 O14         3.1510    2.0770    3.4150 oh        1 M1C     -0.620300
     11 C4          1.0790    2.6080    6.5220 c3        1 M1C     -0.122400
     12 C5          1.2780    2.2850    7.9900 c3        1 M1C     -0.098400
     13 C6         -0.0140    2.4880    8.7620 c3        1 M1C     -0.076400
     14 C7          0.1870    2.2150   10.2310 c3        1 M1C     -0.104100
     15 H131       -1.3490    0.0220   -0.2610 hc        1 M1C      0.122700
     16 H132        0.4480    0.3190   -0.4450 hc        1 M1C      0.122700
     17 H121        0.9420   -1.3520    1.4480 hc        1 M1C      0.122700
     18 H122       -0.8500   -1.6730    1.6520 hc        1 M1C      0.122700
     19 H11        -1.3060    0.8010    2.1820 hx        1 M1C      0.149700
     20 H2          2.3990    1.0160    5.8070 hx        1 M1C      0.136700
     21 H91         1.0090    0.3960    4.0110 hx        1 M1C      0.130200
     22 H92        -0.1570    1.8170    4.0490 hx        1 M1C      0.130200
     23 H10         1.6460    1.0830    1.7810 hn        1 M1C      0.465300
     24 HO8         0.9570    4.0530    4.2560 ho        1 M1C      0.475500
     25 H14         3.4390    2.8610    2.9090 ho        1 M1C      0.475500
     26 H41         0.1530    2.0830    6.1600 hc        1 M1C      0.083200
     27 H42         0.9160    3.7120    6.3970 hc        1 M1C      0.083200
     28 H51         1.6150    1.2220    8.1110 hc        1 M1C      0.053700
     29 H52         2.0660    2.9500    8.4360 hc        1 M1C      0.053700
     30 H61        -0.8040    1.8030    8.3560 hc        1 M1C      0.054200
     31 H62        -0.3740    3.5410    8.6190 hc        1 M1C      0.054200
     32 H71         0.5290    1.1650   10.3980 hc        1 M1C      0.056700
     33 H72        -0.7780    2.3600   10.7780 hc        1 M1C      0.056700
     34 H73         0.9440    2.9100   10.6670 hc        1 M1C      0.056700
     35 HN31        3.7290    2.5770    7.0480 hn        1 M1C      0.478800
     36 H32         4.3000    2.4390    5.4700 hn        1 M1C      0.478800
     37 H102        0.5700    2.3580    1.7990 hn        1 M1C      0.465300
     38 HN32        3.4590    3.8070    5.9450 hn        1 M1C      0.478800
@<TRIPOS>BOND
     1    1    2 1   
     2    1    3 1   
     3    1   15 1   
     4    1   16 1   
     5    2    3 1   
     6    2   17 1   
     7    2   18 1   
     8    3    8 1   
     9    3   19 1   
    10    4    5 1   
    11    4   35 1   
    12    4   36 1   
    13    4   38 1   
    14    5    6 1   
    15    5   11 1   
    16    5   20 1   
    17    6    7 1   
    18    6    9 1   
    19    6   10 1   
    20    7    8 1   
    21    7   21 1   
    22    7   22 1   
    23    8   23 1   
    24    8   37 1   
    25    9   24 1   
    26   10   25 1   
    27   11   12 1   
    28   11   26 1   
    29   11   27 1   
    30   12   13 1   
    31   12   28 1   
    32   12   29 1   
    33   13   14 1   
    34   13   30 1   
    35   13   31 1   
    36   14   32 1   
    37   14   33 1   
    38   14   34 1   
@<TRIPOS>SUBSTRUCTURE
     1 M1C         1 TEMP              0 ****  ****    0 ROOT
