@<TRIPOS>MOLECULE
M1C
   38    37     1     0     0
SMALL
bcc


@<TRIPOS>ATOM
      1 C13         0.3640    0.0090   -0.6160 c3        1 M1C     -0.259000
      2 C12         0.9770   -0.9370    0.3780 c3        1 M1C     -0.319000
      3 C11         1.3170   -0.4900    1.7030 c1        1 M1C      0.123000
      4 N3          1.9290    2.1480    6.4230 n4        1 M1C     -0.076000
      5 C2          0.6510    2.3860    5.6730 c3        1 M1C     -0.106000
      6 C1          0.8950    2.4040    4.1250 c3        1 M1C      0.181000
      7 N10         1.1010    0.9010    2.0990 n4        1 M1C     -0.078000
      8 O8         -0.0270    3.1460    3.3850 oh        1 M1C     -0.361000
      9 O14         2.1720    2.9290    3.8300 oh        1 M1C     -0.361000
     10 C4         -0.0230    3.6640    6.1550 c3        1 M1C     -0.277000
     11 C5          2.3970    2.0040    9.6160 cx        1 M1C     -0.237000
     12 C6          1.1870    2.9040    9.5670 cx        1 M1C     -0.237000
     13 C7          1.8130    2.5530   10.8850 cx        1 M1C     -0.237000
     14 H131       -0.6260    0.3910   -0.2650 hc        1 M1C      0.113000
     15 H132        1.0380    0.8740   -0.8310 hc        1 M1C      0.113000
     16 H121        0.1880   -0.5250   -1.5870 hc        1 M1C      0.113000
     17 H122        1.9340   -1.4040   -0.0420 hc        1 M1C      0.230500
     18 H11         0.3100   -1.8560    0.5280 hc        1 M1C      0.230500
     19 H2         -0.0340    1.5120    5.9060 hx        1 M1C      0.169000
     20 H10         0.3480    1.4020    1.5970 hn        1 M1C      0.258500
     21 HO8        -0.2310    3.9930    3.8130 ho        1 M1C      0.274500
     22 H14         2.0910    3.8010    3.4100 ho        1 M1C      0.274500
     23 H41         0.5420    4.5750    5.8370 hc        1 M1C      0.140333
     24 H42        -1.0650    3.7090    5.7430 hc        1 M1C      0.140333
     25 H51        -0.1180    3.6780    7.2740 hc        1 M1C      0.140333
     26 H52         2.2840    0.9230    9.4190 hc        1 M1C      0.122000
     27 H61         3.3810    2.3900    9.2900 hc        1 M1C      0.122000
     28 H62         1.2920    3.9430    9.2040 hc        1 M1C      0.122000
     29 H71         0.1950    2.4750    9.3340 hc        1 M1C      0.122000
     30 H72         2.3700    3.3310   11.4400 hc        1 M1C      0.122000
     31 H73         1.2770    1.8680   11.5690 hc        1 M1C      0.122000
     32 C9          0.8270    0.9500    3.5670 c3        1 M1C     -0.102000
     33 HN31        2.6470    2.8140    6.1030 hn        1 M1C      0.275000
     34 H91        -0.2070    0.5370    3.7470 hx        1 M1C      0.167000
     35 H92         1.5940    0.3080    4.0850 hx        1 M1C      0.167000
     36 H32         2.2720    1.1980    6.2600 hn        1 M1C      0.275000
     37 H102        1.9860    1.4140    1.9230 hn        1 M1C      0.258500
     38 HN32        1.7700    2.2850    7.4420 hn        1 M1C      0.275000
@<TRIPOS>BOND
     1    1    2 1   
     2    1   14 1   
     3    1   15 1   
     4    1   16 1   
     5    2    3 1   
     6    2   17 1   
     7    2   18 1   
     8    3    7 1   
     9    4    5 1   
    10    4   33 1   
    11    4   36 1   
    12    4   38 1   
    13    5    6 1   
    14    5   10 1   
    15    5   19 1   
    16    6    8 1   
    17    6    9 1   
    18    6   32 1   
    19    7   20 1   
    20    7   32 1   
    21    7   37 1   
    22    8   21 1   
    23    9   22 1   
    24   10   23 1   
    25   10   24 1   
    26   10   25 1   
    27   11   12 1   
    28   11   13 1   
    29   11   26 1   
    30   11   27 1   
    31   12   13 1   
    32   12   28 1   
    33   12   29 1   
    34   13   30 1   
    35   13   31 1   
    36   32   34 1   
    37   32   35 1   
@<TRIPOS>SUBSTRUCTURE
     1 M1C         1 TEMP              0 ****  ****    0 ROOT
