@<TRIPOS>MOLECULE
M1C
   38    38     1     0     0
SMALL
bcc


@<TRIPOS>ATOM
      1 C13        -0.3990   -0.0050    0.2780 cx        1 M1C     -0.086900
      2 C12        -0.0740   -0.9670    1.3760 cx        1 M1C     -0.086900
      3 C11        -0.3670    0.4820    1.7160 cx        1 M1C     -0.030500
      4 N3          3.5250    2.8470    6.0200 nz        1 M1C     -0.834600
      5 C2          2.2480    2.1590    5.6380 c3        1 M1C      0.090500
      6 C1          1.9470    2.3910    4.1200 c3        1 M1C      0.327600
      7 C9          0.8150    1.4380    3.6470 c3        1 M1C      0.071800
      8 N10         0.7060    1.3950    2.1630 ny        1 M1C     -0.718000
      9 O8          1.6930    3.7320    3.8050 oh        1 M1C     -0.620300
     10 O14         3.1190    2.1200    3.3820 oh        1 M1C     -0.620300
     11 C4          1.0830    2.6130    6.5190 c3        1 M1C     -0.122400
     12 C5          1.3120    2.2970    7.9850 c3        1 M1C     -0.098400
     13 C6          0.0280    2.4750    8.7760 c3        1 M1C     -0.076400
     14 C7          0.2570    2.2090   10.2420 c3        1 M1C     -0.104100
     15 H131        0.3970    0.2930   -0.4320 hc        1 M1C      0.122700
     16 H132       -1.3900   -0.0440   -0.2200 hc        1 M1C      0.122700
     17 H121        0.9570   -1.3620    1.4570 hc        1 M1C      0.122700
     18 H122       -0.8240   -1.7230    1.6880 hc        1 M1C      0.122700
     19 H11        -1.3270    0.7420    2.2200 hx        1 M1C      0.149700
     20 H2          2.4270    1.0490    5.7870 hx        1 M1C      0.136700
     21 H91        -0.1720    1.7860    4.0680 hx        1 M1C      0.130200
     22 H92         1.0250    0.3920    4.0140 hx        1 M1C      0.130200
     23 H10         1.6110    1.0900    1.7730 hn        1 M1C      0.465300
     24 HO8         0.8930    4.0480    4.2530 ho        1 M1C      0.475500
     25 H14         3.3810    2.9100    2.8700 ho        1 M1C      0.475500
     26 H41         0.1640    2.0670    6.1720 hc        1 M1C      0.083200
     27 H42         0.8950    3.7130    6.3960 hc        1 M1C      0.083200
     28 H51         1.6730    1.2410    8.1020 hc        1 M1C      0.053700
     29 H52         2.0920    2.9790    8.4170 hc        1 M1C      0.053700
     30 H61        -0.7540    1.7720    8.3840 hc        1 M1C      0.054200
     31 H62        -0.3570    3.5200    8.6370 hc        1 M1C      0.054200
     32 H71         1.0060    2.9210   10.6660 hc        1 M1C      0.056700
     33 H72         0.6240    1.1670   10.4070 hc        1 M1C      0.056700
     34 H73        -0.7020    2.3360   10.8040 hc        1 M1C      0.056700
     35 HN31        3.4270    3.8620    5.9040 hn        1 M1C      0.478800
     36 H32         4.2900    2.5120    5.4180 hn        1 M1C      0.478800
     37 H102        0.5060    2.3400    1.8060 hn        1 M1C      0.465300
     38 HN32        3.7410    2.6400    7.0050 hn        1 M1C      0.478800
@<TRIPOS>BOND
     1    1    2 1   
     2    1    3 1   
     3    1   15 1   
     4    1   16 1   
     5    2    3 1   
     6    2   17 1   
     7    2   18 1   
     8    3    8 1   
     9    3   19 1   
    10    4    5 1   
    11    4   35 1   
    12    4   36 1   
    13    4   38 1   
    14    5    6 1   
    15    5   11 1   
    16    5   20 1   
    17    6    7 1   
    18    6    9 1   
    19    6   10 1   
    20    7    8 1   
    21    7   21 1   
    22    7   22 1   
    23    8   23 1   
    24    8   37 1   
    25    9   24 1   
    26   10   25 1   
    27   11   12 1   
    28   11   26 1   
    29   11   27 1   
    30   12   13 1   
    31   12   28 1   
    32   12   29 1   
    33   13   14 1   
    34   13   30 1   
    35   13   31 1   
    36   14   32 1   
    37   14   33 1   
    38   14   34 1   
@<TRIPOS>SUBSTRUCTURE
     1 M1C         1 TEMP              0 ****  ****    0 ROOT
