@<TRIPOS>MOLECULE
M1C
   36    36     1     0     0
SMALL
bcc


@<TRIPOS>ATOM
      1 C13         0.1770    1.3420   -4.5150 cx        1 M1C     -0.154900
      2 C12         0.3100    0.0180   -5.2080 cx        1 M1C     -0.154900
      3 C11        -0.5280    0.1190   -3.9520 cx        1 M1C      0.127500
      4 N3         -2.0780    0.2390    1.0440 n3        1 M1C     -0.902800
      5 C2         -0.6310    0.2110    1.0060 c3        1 M1C      0.157500
      6 C1         -0.1170   -0.5610   -0.2510 c3        1 M1C      0.343600
      7 N10        -0.1470   -0.5540   -2.7500 n3        1 M1C     -0.797200
      8 O8          1.3010   -0.5920   -0.3140 oh        1 M1C     -0.612800
      9 O14        -0.4420   -1.9170   -0.0880 oh        1 M1C     -0.612800
     10 C4          0.0520   -0.3760    2.2510 c3        1 M1C     -0.121400
     11 C5         -0.2060    0.4540    3.4880 c3        1 M1C     -0.080400
     12 C6          0.6550   -0.0100    4.6440 c3        1 M1C     -0.079400
     13 C7          0.3810    0.7880    5.8930 c3        1 M1C     -0.093100
     14 H131       -0.4330    2.1350   -4.9790 hc        1 M1C      0.071700
     15 H132        1.0560    1.7550   -3.9900 hc        1 M1C      0.071700
     16 H121        1.2820   -0.5060   -5.1760 hc        1 M1C      0.071700
     17 H122       -0.2120   -0.1460   -6.1670 hc        1 M1C      0.071700
     18 H11        -1.6350    0.0800   -4.0720 h1        1 M1C      0.092700
     19 HN32       -2.3890    0.6060    1.9220 hn        1 M1C      0.358300
     20 H2         -0.2890    1.2840    0.8880 h1        1 M1C      0.053700
     21 H10         0.8520   -0.6310   -2.6740 hn        1 M1C      0.367800
     22 HO8         1.6320    0.2760   -0.0620 ho        1 M1C      0.424500
     23 H14        -0.0240   -2.4070   -0.8100 ho        1 M1C      0.424500
     24 H41         1.1570   -0.4310    2.0590 hc        1 M1C      0.061200
     25 H42        -0.3020   -1.4290    2.4060 hc        1 M1C      0.061200
     26 H51        -1.2850    0.3830    3.7850 hc        1 M1C      0.037200
     27 H52         0.0070    1.5350    3.2730 hc        1 M1C      0.037200
     28 H61         1.7380    0.0850    4.3660 hc        1 M1C      0.041200
     29 H62         0.4610   -1.0980    4.8400 hc        1 M1C      0.041200
     30 H71         1.0300    0.4340    6.7300 hc        1 M1C      0.033367
     31 H72         0.5870    1.8720    5.7210 hc        1 M1C      0.033367
     32 H73        -0.6860    0.6800    6.2040 hc        1 M1C      0.033367
     33 C9         -0.7030    0.0450   -1.5520 c3        1 M1C      0.124800
     34 HN31       -2.4460   -0.6860    0.9260 hn        1 M1C      0.358300
     35 H91        -0.5390    1.1610   -1.5080 h1        1 M1C      0.055200
     36 H92        -1.8120   -0.1460   -1.5610 h1        1 M1C      0.055200
@<TRIPOS>BOND
     1    1    2 1   
     2    1    3 1   
     3    1   14 1   
     4    1   15 1   
     5    2    3 1   
     6    2   16 1   
     7    2   17 1   
     8    3    7 1   
     9    3   18 1   
    10    4    5 1   
    11    4   19 1   
    12    4   34 1   
    13    5    6 1   
    14    5   10 1   
    15    5   20 1   
    16    6    8 1   
    17    6    9 1   
    18    6   33 1   
    19    7   21 1   
    20    7   33 1   
    21    8   22 1   
    22    9   23 1   
    23   10   11 1   
    24   10   24 1   
    25   10   25 1   
    26   11   12 1   
    27   11   26 1   
    28   11   27 1   
    29   12   13 1   
    30   12   28 1   
    31   12   29 1   
    32   13   30 1   
    33   13   31 1   
    34   13   32 1   
    35   33   35 1   
    36   33   36 1   
@<TRIPOS>SUBSTRUCTURE
     1 M1C         1 TEMP              0 ****  ****    0 ROOT
