@<TRIPOS>MOLECULE
M1G
   38    41     1     0     0
SMALL
bcc


@<TRIPOS>ATOM
      1 P          -0.1420   -1.1210   -5.2810 p5        1 M1G      1.331900
      2 OP1        -1.3660   -1.8180   -4.7640 o         1 M1G     -0.929833
      3 OP2        -0.0900   -0.7450   -6.7280 o         1 M1G     -0.929833
      4 OP3         1.1510   -1.5940   -4.6450 o         1 M1G     -0.929833
      5 O5'        -0.2570    0.4180   -4.4570 os        1 M1G     -0.552200
      6 C5'        -0.3680    0.3030   -3.1010 c3        1 M1G      0.228400
      7 C4'         0.9880    0.5990   -2.4170 c3        1 M1G      0.051100
      8 O4'         0.7670    1.3280   -1.1770 os        1 M1G     -0.431600
      9 C3'         1.8070   -0.6630   -2.0790 c3        1 M1G      0.157100
     10 O3'         3.0050   -0.7070   -2.8190 oh        1 M1G     -0.671800
     11 C2'         2.1580   -0.5340   -0.5890 c3        1 M1G     -0.129400
     12 C1'         1.2660    0.6110   -0.0660 c3        1 M1G      0.248800
     13 N9          0.1390    0.1540    0.7600 na        1 M1G     -0.177900
     14 C8         -1.1260   -0.2850    0.3200 cc        1 M1G      0.459400
     15 N7         -1.9660   -0.5940    1.3340 nd        1 M1G     -0.629000
     16 C5         -1.2310   -0.3480    2.4930 cd        1 M1G      0.190800
     17 C6         -1.6080   -0.5000    3.8740 c         1 M1G      0.537800
     18 O6         -2.6920   -0.8870    4.3410 o         1 M1G     -0.624500
     19 N1         -0.5620   -0.1420    4.8060 n         1 M1G     -0.273000
     20 C2          0.7350    0.3320    4.3570 cc        1 M1G      0.475500
     21 N2          1.7220    0.6760    5.3350 nc        1 M1G     -0.649000
     22 N3          1.0730    0.4690    3.0720 nc        1 M1G     -0.254400
     23 C4          0.0930    0.1280    2.1530 cc        1 M1G      0.056800
     24 C6A         1.4230    0.5450    6.5970 cd        1 M1G      0.456200
     25 C7A         0.1530    0.0740    7.0920 cd        1 M1G     -0.379300
     26 C8A        -0.7980   -0.2540    6.1650 cc        1 M1G      0.026700
     27 H5'        -0.7260   -0.7270   -2.8100 h1        1 M1G     -0.004300
     28 H5''       -1.1040    1.0690   -2.7110 h1        1 M1G     -0.004300
     29 H4'         1.5870    1.2980   -3.0610 h1        1 M1G      0.083700
     30 H3'         1.2060   -1.5930   -2.2830 h1        1 M1G      0.105700
     31 HO3'        2.7390   -1.0100   -3.7190 ho        1 M1G      0.502000
     32 H2'         1.9930   -1.4960   -0.0520 hc        1 M1G      0.056200
     33 H2''        3.2290   -0.2400   -0.4660 hc        1 M1G      0.056200
     34 H1'         1.8400    1.3490    0.5690 h2        1 M1G      0.074700
     35 H8         -1.3540   -0.3480   -0.7620 h5        1 M1G      0.124100
     36 H6A         2.2150    0.8220    7.3190 h4        1 M1G      0.018100
     37 H7A        -0.0290   -0.0130    8.1660 ha        1 M1G      0.148000
     38 H8A        -1.8060   -0.6240    6.4440 h4        1 M1G      0.182000
@<TRIPOS>BOND
     1    1    2 1   
     2    1    3 1   
     3    1    4 1   
     4    1    5 1   
     5    5    6 1   
     6    6    7 1   
     7    6   27 1   
     8    6   28 1   
     9    7    8 1   
    10    7    9 1   
    11    7   29 1   
    12    8   12 1   
    13    9   10 1   
    14    9   11 1   
    15    9   30 1   
    16   10   31 1   
    17   11   12 1   
    18   11   32 1   
    19   11   33 1   
    20   12   13 1   
    21   12   34 1   
    22   13   14 1   
    23   13   23 1   
    24   14   15 2   
    25   14   35 1   
    26   15   16 1   
    27   16   17 1   
    28   16   23 2   
    29   17   18 2   
    30   17   19 1   
    31   19   20 1   
    32   19   26 1   
    33   20   21 1   
    34   20   22 2   
    35   21   24 2   
    36   22   23 1   
    37   24   25 1   
    38   24   36 1   
    39   25   26 2   
    40   25   37 1   
    41   26   38 1   
@<TRIPOS>SUBSTRUCTURE
     1 M1G         1 TEMP              0 ****  ****    0 ROOT
