@<TRIPOS>MOLECULE
M1G
   38    36     1     0     0
SMALL
bcc


@<TRIPOS>ATOM
      1 P           0.6840   -3.7350   -3.2360 p3        1 M1G      2.524000
      2 OP1         0.1260   -3.8800   -4.6320 o         1 M1G     -1.236500
      3 OP2         1.5060   -4.9550   -2.8940 os        1 M1G     -1.275000
      4 OP3        -0.4530   -3.6020   -2.2520 o         1 M1G     -1.236500
      5 O5'         1.5970   -2.4470   -3.1650 os        1 M1G     -0.714000
      6 C5'         2.1670   -2.0970   -1.9250 c3        1 M1G      0.078000
      7 C4'         2.7790   -0.6950   -2.0220 c3        1 M1G     -0.060000
      8 O4'         1.6510    0.3770   -2.2770 os        1 M1G     -0.288000
      9 C3'         3.3100   -0.3640   -0.9060 c3        1 M1G      0.046000
     10 O3'         4.4550    0.5200   -1.1370 oh        1 M1G     -0.399000
     11 C2'         2.1570    0.4220   -0.0700 c3        1 M1G     -0.208000
     12 C1'         1.4940    1.1320   -0.9460 c3        1 M1G      0.157000
     13 N9          0.1050    1.2090   -0.5770 n3        1 M1G     -0.133000
     14 C8         -0.5700    1.4320   -1.7410 c1        1 M1G     -0.029000
     15 N7         -1.8930    1.5750   -1.4420 n2        1 M1G     -0.103000
     16 C5         -2.0370    1.4430   -0.1060 c1        1 M1G     -0.227000
     17 C6         -3.2550    1.5030    0.7960 c1        1 M1G      0.395000
     18 O6         -4.3580    1.6750    0.3170 o         1 M1G     -0.349000
     19 N1         -3.1110    1.3260    2.1870 n3        1 M1G     -0.252000
     20 C2         -1.8030    1.0870    2.7510 c2        1 M1G      0.124000
     21 N2         -1.6450    0.9040    4.2140 n2        1 M1G     -0.123000
     22 N3         -0.6400    1.0300    1.8840 n1        1 M1G     -0.115000
     23 C4         -0.7910    1.2150    0.4330 c1        1 M1G      0.007000
     24 C6A        -2.7800    0.9630    5.0650 c1        1 M1G     -0.009000
     25 C7A        -4.1120    1.2060    4.4950 c1        1 M1G     -0.314000
     26 C8A        -4.2680    1.3760    3.0450 c2        1 M1G      0.051000
     27 H5'         1.4740   -2.1030   -1.2330 h1        1 M1G      0.035000
     28 H5''        2.8660   -2.7430   -1.6930 h1        1 M1G      0.035000
     29 H4'         3.4450   -0.6630   -2.7380 h1        1 M1G      0.123000
     30 H3'         3.5940   -1.1630   -0.4180 h1        1 M1G      0.145000
     31 HO3'        5.1990    0.1180   -0.8640 ho        1 M1G      0.301000
     32 H2'         2.5670    1.0090    0.5990 hc        1 M1G      0.095500
     33 H2''        1.5590   -0.2200    0.3650 hc        1 M1G      0.095500
     34 H1'         1.8770    2.0290   -1.0170 h2        1 M1G      0.114000
     35 H8         -0.1750    1.4790   -2.6330 DU        1 M1G      0.261000
     36 H6A        -2.6750    0.8500    6.0290 ha        1 M1G      0.155000
     37 H7A        -4.8940    1.2470    5.0790 ha        1 M1G      0.148000
     38 H8A        -5.1520    1.5370    2.6640 h4        1 M1G      0.182000
@<TRIPOS>BOND
     1    1    2 1   
     2    1    4 1   
     3    1    5 1   
     4    5    6 1   
     5    6    7 1   
     6    6   27 1   
     7    6   28 1   
     8    7    8 1   
     9    7    9 1   
    10    7   29 1   
    11    8   12 1   
    12    9   10 1   
    13    9   11 1   
    14    9   30 1   
    15   10   31 1   
    16   11   12 1   
    17   11   32 1   
    18   11   33 1   
    19   12   13 1   
    20   12   34 1   
    21   13   14 1   
    22   13   23 1   
    23   14   15 1   
    24   15   16 1   
    25   16   23 1   
    26   17   18 1   
    27   17   19 1   
    28   19   20 1   
    29   19   26 1   
    30   20   21 1   
    31   20   22 1   
    32   21   24 1   
    33   24   36 1   
    34   25   26 1   
    35   25   37 1   
    36   26   38 1   
@<TRIPOS>SUBSTRUCTURE
     1 M1G         1 TEMP              0 ****  ****    0 ROOT
