@<TRIPOS>MOLECULE
M1L
   66    69     1     0     0
SMALL
bcc


@<TRIPOS>ATOM
      1 C1         -0.1980   -0.3830   -1.5550 c3        1 M1L     -0.043100
      2 C2          2.0170    1.0190    1.1990 ca        1 M1L     -0.038000
      3 C3          3.1940    1.1850    0.5260 ca        1 M1L     -0.221900
      4 C4          3.2900    0.8980   -0.8770 ca        1 M1L      0.092000
      5 C5          2.1720    0.4270   -1.5680 ca        1 M1L     -0.121300
      6 C6          0.9820    0.1700   -0.8400 ca        1 M1L      0.012700
      7 C7          0.9140    0.4290    0.5270 ca        1 M1L     -0.103000
      8 C8          0.1830   -1.0650   -2.8670 c3        1 M1L      0.170800
      9 N1          1.0420   -0.2340   -3.6960 n3        1 M1L     -0.730600
     10 C10         2.2790    0.1590   -3.0360 c3        1 M1L      0.221100
     11 N2          4.6190    1.1010   -1.2890 n         1 M1L     -0.488500
     12 C11         5.4260    1.4970   -0.1910 c         1 M1L      0.636200
     13 O1          6.6220    1.7690   -0.2780 o         1 M1L     -0.556500
     14 C12         4.5330    1.4880    1.0490 cc        1 M1L      0.365900
     15 N3          4.9480    1.6160    2.2830 n2        1 M1L     -0.337200
     16 C13         1.2790   -0.8040   -5.0020 c3        1 M1L      0.158100
     17 C14        -0.0350   -1.4950    3.4190 cc        1 M1L     -0.030000
     18 C15         0.0400   -1.3020    2.0440 cd        1 M1L     -0.151000
     19 C16        -0.0620    0.0100    1.5420 cd        1 M1L      0.032000
     20 C17        -0.6510    1.0020    2.3450 cd        1 M1L     -0.151000
     21 C18        -0.7290    0.7900    3.7190 cc        1 M1L     -0.030000
     22 C19        -0.2330   -0.3970    4.2730 cc        1 M1L     -0.627000
     23 S1          0.5090   -0.4820    5.7970 s6        1 M1L      1.179100
     24 N4          1.6470   -0.5510    8.3260 n3        1 M1L     -0.861200
     25 O2         -0.7750   -0.9660    6.8070 oh        1 M1L     -0.642700
     26 O3          0.1510    1.0520    6.3470 oh        1 M1L     -0.642700
     27 C20         2.7610   -1.4590    8.4440 c3        1 M1L      0.137100
     28 C21         1.8980    0.7540    8.8870 c3        1 M1L      0.137100
     29 O4          3.9760    1.6410    3.1800 os        1 M1L     -0.185300
     30 C22         4.2790    1.0520    4.4850 c3        1 M1L      0.105100
     31 C23         5.4070    1.7780    5.1940 c3        1 M1L     -0.139400
     32 C24         6.7440    1.0820    5.0040 c3        1 M1L      0.125400
     33 O5          7.7660    1.7020    5.7600 oh        1 M1L     -0.592800
     34 C25         2.9630    1.2000    5.2620 c         1 M1L      0.701100
     35 O6          2.6720    2.2030    5.9390 o         1 M1L     -0.625000
     36 O7          2.1470    0.1730    5.2650 os        1 M1L     -0.550800
     37 H11        -0.9150    0.4580   -1.7620 hc        1 M1L      0.067200
     38 H12        -0.7280   -1.1280   -0.9030 hc        1 M1L      0.067200
     39 H2          1.9420    1.2740    2.2710 ha        1 M1L      0.171000
     40 H81         0.6640   -2.0600   -2.6330 h1        1 M1L      0.035700
     41 H82        -0.7590   -1.2720   -3.4490 h1        1 M1L      0.035700
     42 H101        2.6240    1.1040   -3.5510 h1        1 M1L      0.040700
     43 H102        3.0910   -0.6190   -3.1830 h1        1 M1L      0.040700
     44 HN2         4.9130    1.1180   -2.2300 hn        1 M1L      0.344500
     45 H131        0.2920   -0.9570   -5.5120 h1        1 M1L      0.035033
     46 H132        1.8220   -1.7890   -4.9690 h1        1 M1L      0.035033
     47 H133        1.8890   -0.0820   -5.6060 h1        1 M1L      0.035033
     48 H17        -0.9190    1.9760    1.9120 ha        1 M1L      0.150000
     49 H18        -1.0680    1.6030    4.3840 ha        1 M1L      0.150000
     50 HO2        -1.3530   -0.2810    7.1410 ho        1 M1L      0.479500
     51 HO3         0.9040    1.5960    6.6150 ho        1 M1L      0.479500
     52 H201        2.4700   -2.4510    8.0100 h1        1 M1L      0.038700
     53 H202        3.0950   -1.6190    9.5060 h1        1 M1L      0.038700
     54 H203        3.6280   -1.0490    7.8620 h1        1 M1L      0.038700
     55 H211        2.6380    1.2910    8.2320 h1        1 M1L      0.038700
     56 H212        2.3060    0.7200    9.9340 h1        1 M1L      0.038700
     57 H213        0.9410    1.3390    8.8970 h1        1 M1L      0.038700
     58 H22         4.5030   -0.0400    4.3410 h1        1 M1L      0.074700
     59 H231        5.4710    2.8330    4.8170 hc        1 M1L      0.075700
     60 H232        5.1700    1.8380    6.2900 hc        1 M1L      0.075700
     61 H241        7.0990    1.1600    3.9410 h1        1 M1L      0.051200
     62 H242        6.6650   -0.0020    5.2910 h1        1 M1L      0.051200
     63 HO5         7.4740    1.7220    6.6800 ho        1 M1L      0.393000
     64 H15         0.3030   -2.1310    1.3730 ha        1 M1L      0.150000
     65 H41         0.8200   -0.9560    8.7310 hn        1 M1L      0.371800
     66 H14         0.1590   -2.4930    3.8420 ha        1 M1L      0.150000
@<TRIPOS>BOND
     1    1    6 1   
     2    1    8 1   
     3    1   37 1   
     4    1   38 1   
     5    2    3 ar  
     6    2    7 ar  
     7    2   39 1   
     8    3    4 ar  
     9    3   14 1   
    10    4    5 ar  
    11    4   11 2   
    12    5    6 ar  
    13    5   10 1   
    14    6    7 ar  
    15    7   19 2   
    16    8    9 1   
    17    8   40 1   
    18    8   41 1   
    19    9   10 1   
    20    9   16 1   
    21   10   42 1   
    22   10   43 1   
    23   11   12 1   
    24   11   44 1   
    25   12   13 2   
    26   12   14 1   
    27   14   15 2   
    28   15   29 1   
    29   16   45 1   
    30   16   46 1   
    31   16   47 1   
    32   17   18 2   
    33   17   22 1   
    34   17   66 1   
    35   18   19 1   
    36   18   64 1   
    37   19   20 1   
    38   20   21 2   
    39   20   48 1   
    40   21   22 1   
    41   21   49 1   
    42   22   23 2   
    43   23   25 1   
    44   23   26 1   
    45   23   36 1   
    46   24   27 1   
    47   24   28 1   
    48   24   65 1   
    49   25   50 1   
    50   26   51 1   
    51   27   52 1   
    52   27   53 1   
    53   27   54 1   
    54   28   55 1   
    55   28   56 1   
    56   28   57 1   
    57   29   30 1   
    58   30   31 1   
    59   30   34 1   
    60   30   58 1   
    61   31   32 1   
    62   31   59 1   
    63   31   60 1   
    64   32   33 1   
    65   32   61 1   
    66   32   62 1   
    67   33   63 1   
    68   34   35 2   
    69   34   36 1   
@<TRIPOS>SUBSTRUCTURE
     1 M1L         1 TEMP              0 ****  ****    0 ROOT
