@<TRIPOS>MOLECULE
M1L
   66    69     1     0     0
SMALL
bcc


@<TRIPOS>ATOM
      1 C1         -0.2670   -0.2270   -1.5240 c3        1 M1L     -0.043100
      2 C2          2.0830    0.9450    1.2260 ca        1 M1L     -0.038000
      3 C3          3.2670    1.0000    0.5480 ca        1 M1L     -0.221900
      4 C4          3.3300    0.7110   -0.8560 ca        1 M1L      0.092000
      5 C5          2.1700    0.3520   -1.5440 ca        1 M1L     -0.121300
      6 C6          0.9630    0.2080   -0.8110 ca        1 M1L      0.012700
      7 C7          0.9260    0.4660    0.5560 ca        1 M1L     -0.103000
      8 C8          0.0410   -0.9370   -2.8400 c3        1 M1L      0.170800
      9 N1          0.9730   -0.1890   -3.6690 n3        1 M1L     -0.730600
     10 C10         2.2450    0.0810   -3.0140 c3        1 M1L      0.221100
     11 N2          4.6700    0.7870   -1.2730 ns        1 M1L     -0.488500
     12 C11         5.5160    1.0990   -0.1770 c         1 M1L      0.636200
     13 O1          6.7330    1.2550   -0.2680 o         1 M1L     -0.556500
     14 C12         4.6320    1.1720    1.0670 cc        1 M1L      0.365900
     15 N3          5.0620    1.2540    2.2990 n2        1 M1L     -0.337200
     16 C13         1.1490   -0.7740   -4.9790 c3        1 M1L      0.158100
     17 C14        -0.1930   -1.3680    3.4450 cc        1 M1L     -0.030000
     18 C15        -0.1050   -1.1780    2.0710 cd        1 M1L     -0.151000
     19 C16        -0.0830    0.1390    1.5730 cd        1 M1L      0.032000
     20 C17        -0.5710    1.1800    2.3830 cd        1 M1L     -0.151000
     21 C18        -0.6630    0.9720    3.7560 cc        1 M1L     -0.030000
     22 C19        -0.2810   -0.2600    4.3040 cc        1 M1L     -0.627000
     23 S1          0.4550   -0.4210    5.8250 s6        1 M1L      1.179100
     24 N4          1.5910   -0.6080    8.3490 n7        1 M1L     -0.861200
     25 O2         -0.8660   -0.7830    6.8380 oh        1 M1L     -0.642700
     26 O3          0.2480    1.1390    6.3810 oh        1 M1L     -0.642700
     27 C20         2.6120   -1.6190    8.4600 c3        1 M1L      0.137100
     28 C21         1.9680    0.6650    8.9140 c3        1 M1L      0.137100
     29 O4          4.1000    1.3690    3.2010 os        1 M1L     -0.185300
     30 C22         4.3500    0.7490    4.5020 c3        1 M1L      0.105100
     31 C23         5.5450    1.3610    5.2090 c3        1 M1L     -0.139400
     32 C24         6.8090    0.5400    5.0110 c3        1 M1L      0.125400
     33 O5          7.8880    1.0570    5.7650 oh        1 M1L     -0.592800
     34 C25         3.0580    1.0200    5.2860 c         1 M1L      0.701100
     35 O6          2.8670    2.0430    5.9670 o         1 M1L     -0.625000
     36 O7          2.1470    0.0760    5.2880 os        1 M1L     -0.550800
     37 H11        -0.8640   -0.9200   -0.8730 hc        1 M1L      0.067200
     38 H12        -0.9010    0.6800   -1.7240 hc        1 M1L      0.067200
     39 H2          2.0370    1.2030    2.2990 ha        1 M1L      0.171000
     40 H81        -0.9180   -1.0500   -3.4190 h1        1 M1L      0.035700
     41 H82         0.4260   -1.9750   -2.6110 h1        1 M1L      0.035700
     42 H101        2.9770   -0.7710   -3.1660 h1        1 M1L      0.040700
     43 H102        2.6770    0.9910   -3.5270 h1        1 M1L      0.040700
     44 HN2         4.9620    0.7790   -2.2150 hn        1 M1L      0.344500
     45 H131        0.1500   -0.8300   -5.4850 h1        1 M1L      0.035033
     46 H132        1.8230   -0.1110   -5.5820 h1        1 M1L      0.035033
     47 H133        1.5950   -1.8070   -4.9510 h1        1 M1L      0.035033
     48 H17        -0.7460    2.1770    1.9540 ha        1 M1L      0.150000
     49 H18        -0.9200    1.8110    4.4260 ha        1 M1L      0.150000
     50 HO2        -1.3740   -0.0470    7.1770 ho        1 M1L      0.479500
     51 HO3         1.0510    1.6070    6.6480 ho        1 M1L      0.479500
     52 H201        2.2260   -2.5770    8.0240 h1        1 M1L      0.038700
     53 H202        3.5130   -1.2920    7.8770 h1        1 M1L      0.038700
     54 H203        2.9330   -1.8150    9.5200 h1        1 M1L      0.038700
     55 H211        1.0710    1.3390    8.9290 h1        1 M1L      0.038700
     56 H212        2.7540    1.1310    8.2570 h1        1 M1L      0.038700
     57 H213        2.3750    0.5880    9.9590 h1        1 M1L      0.038700
     58 H22         4.4680   -0.3590    4.3530 h1        1 M1L      0.074700
     59 H231        5.3190    1.4390    6.3070 hc        1 M1L      0.075700
     60 H232        5.7090    2.4060    4.8360 hc        1 M1L      0.075700
     61 H241        7.1650    0.5880    3.9460 h1        1 M1L      0.051200
     62 H242        6.6270   -0.5320    5.2950 h1        1 M1L      0.051200
     63 HO5         7.6030    1.1000    6.6860 ho        1 M1L      0.393000
     64 H15         0.0740   -2.0260    1.3960 ha        1 M1L      0.150000
     65 H41         0.7300   -0.9330    8.7560 hn        1 M1L      0.371800
     66 H14        -0.0940   -2.3820    3.8650 ha        1 M1L      0.150000
@<TRIPOS>BOND
     1    1    6 1   
     2    1    8 1   
     3    1   37 1   
     4    1   38 1   
     5    2    3 ar  
     6    2    7 ar  
     7    2   39 1   
     8    3    4 ar  
     9    3   14 1   
    10    4    5 ar  
    11    4   11 2   
    12    5    6 ar  
    13    5   10 1   
    14    6    7 ar  
    15    7   19 2   
    16    8    9 1   
    17    8   40 1   
    18    8   41 1   
    19    9   10 1   
    20    9   16 1   
    21   10   42 1   
    22   10   43 1   
    23   11   12 1   
    24   11   44 1   
    25   12   13 2   
    26   12   14 1   
    27   14   15 2   
    28   15   29 1   
    29   16   45 1   
    30   16   46 1   
    31   16   47 1   
    32   17   18 2   
    33   17   22 1   
    34   17   66 1   
    35   18   19 1   
    36   18   64 1   
    37   19   20 1   
    38   20   21 2   
    39   20   48 1   
    40   21   22 1   
    41   21   49 1   
    42   22   23 2   
    43   23   25 1   
    44   23   26 1   
    45   23   36 1   
    46   24   27 1   
    47   24   28 1   
    48   24   65 1   
    49   25   50 1   
    50   26   51 1   
    51   27   52 1   
    52   27   53 1   
    53   27   54 1   
    54   28   55 1   
    55   28   56 1   
    56   28   57 1   
    57   29   30 1   
    58   30   31 1   
    59   30   34 1   
    60   30   58 1   
    61   31   32 1   
    62   31   59 1   
    63   31   60 1   
    64   32   33 1   
    65   32   61 1   
    66   32   62 1   
    67   33   63 1   
    68   34   35 2   
    69   34   36 1   
@<TRIPOS>SUBSTRUCTURE
     1 M1L         1 TEMP              0 ****  ****    0 ROOT
