@<TRIPOS>MOLECULE
M1L
   65    68     1     0     0
SMALL
bcc


@<TRIPOS>ATOM
      1 C1          0.3620    3.9200    0.0680 c3        1 M1L     -0.040100
      2 C2         -0.9320    0.3700   -0.4750 ca        1 M1L     -0.031000
      3 C3         -2.2850    0.6160   -0.5140 ca        1 M1L     -0.191900
      4 C4         -2.8000    1.9490   -0.3840 ca        1 M1L      0.070000
      5 C5         -1.9330    3.0240   -0.1970 ca        1 M1L     -0.143300
      6 C6         -0.5440    2.7620   -0.1620 ca        1 M1L     -0.021300
      7 C7         -0.0450    1.4600   -0.3130 ca        1 M1L     -0.081000
      8 C8         -0.3230    5.0280    0.8630 c3        1 M1L      0.173800
      9 N1         -1.5630    5.4710    0.2460 n3        1 M1L     -0.734600
     10 C10        -2.5070    4.3950   -0.0250 c3        1 M1L      0.229100
     11 N2         -4.2050    1.9200   -0.4550 n         1 M1L     -0.493500
     12 C11        -4.6610    0.5820   -0.5480 c         1 M1L      0.638200
     13 O1         -5.8570    0.2790   -0.5890 o         1 M1L     -0.606500
     14 C12        -3.4320   -0.3060   -0.5980 cc        1 M1L      0.311900
     15 N3         -3.4810   -1.6140   -0.6580 n2        1 M1L     -0.327200
     16 C13        -2.1750    6.5690    0.9570 c3        1 M1L      0.162100
     17 C14         3.1660   -0.3450    0.4280 cc        1 M1L     -0.072500
     18 C15         1.8150   -0.0110    0.4040 cd        1 M1L     -0.132000
     19 C16         1.3850    1.1390   -0.2820 cd        1 M1L      0.001000
     20 C17         2.3340    1.9120   -0.9650 cd        1 M1L     -0.132000
     21 C18         3.6820    1.5670   -0.9280 cc        1 M1L     -0.072500
     22 C19         4.1190    0.4430   -0.2210 cc        1 M1L     -0.682000
     23 S1          5.8120    0.1730   -0.1260 s6        1 M1L      1.377400
     24 N4          6.3910   -0.7880    1.0670 n3        1 M1L     -0.669400
     25 O2          6.8690    0.9250   -1.2560 oh        1 M1L     -0.652700
     26 O3          5.7800   -1.0430   -1.3580 oh        1 M1L     -0.652700
     27 C20         5.7640   -0.8250    2.3500 c3        1 M1L      0.029600
     28 C21         7.4420   -1.7380    0.8810 c3        1 M1L      0.029600
     29 O4         -2.3250   -2.1970   -0.7840 os        1 M1L     -0.150300
     30 C22        -2.2220   -3.5740   -0.2850 c3        1 M1L      0.017100
     31 C23        -2.3890   -4.5330   -1.4440 c3        1 M1L     -0.093400
     32 C24        -3.8510   -4.8280   -1.7200 c3        1 M1L      0.124400
     33 O5         -3.9090   -5.7240   -2.8240 oh        1 M1L     -0.608800
     34 C25        -0.7920   -3.6520    0.3430 c         1 M1L      0.930600
     35 O6         -0.4200   -4.7950    0.7120 o         1 M1L     -0.820800
     36 O7         -0.1300   -2.5870    0.4670 o         1 M1L     -0.820800
     37 H11         1.2770    3.5970    0.6320 hc        1 M1L      0.062200
     38 H12         0.6950    4.3270   -0.9260 hc        1 M1L      0.062200
     39 H2         -0.5540   -0.6770   -0.5330 ha        1 M1L      0.227000
     40 H81        -0.4870    4.6690    1.9210 h1        1 M1L      0.029200
     41 H82         0.3670    5.9180    0.9100 h1        1 M1L      0.029200
     42 H101       -3.0390    4.6830   -0.9810 h1        1 M1L      0.031700
     43 H102       -3.2950    4.3350    0.7890 h1        1 M1L      0.031700
     44 HN2        -4.7820    2.6970   -0.2770 hn        1 M1L      0.327500
     45 H131       -1.4440    7.4180    1.0060 h1        1 M1L      0.026700
     46 H132       -3.0830    6.9050    0.3900 h1        1 M1L      0.026700
     47 H133       -2.4880    6.3080    2.0060 h1        1 M1L      0.026700
     48 H17         2.0130    2.7810   -1.5570 ha        1 M1L      0.165000
     49 H18         4.4190    2.1810   -1.4720 ha        1 M1L      0.131500
     50 HO2         7.0300    0.4970   -2.0930 ho        1 M1L      0.437500
     51 HO3         4.9480   -1.5080   -1.4240 ho        1 M1L      0.437500
     52 H201        5.2900   -1.8250    2.5530 h1        1 M1L      0.025867
     53 H202        6.5160   -0.6310    3.1640 h1        1 M1L      0.025867
     54 H203        4.9660   -0.0350    2.4050 h1        1 M1L      0.025867
     55 H211        7.8550   -1.6310   -0.1580 h1        1 M1L      0.025867
     56 H212        8.2720   -1.5660    1.6210 h1        1 M1L      0.025867
     57 H213        7.0780   -2.7940    1.0130 h1        1 M1L      0.025867
     58 H22        -2.9760   -3.7670    0.5190 h1        1 M1L      0.058700
     59 H231       -1.9120   -4.1090   -2.3650 hc        1 M1L      0.076700
     60 H232       -1.8490   -5.4840   -1.1850 hc        1 M1L      0.076700
     61 H241       -4.3340   -5.3080   -0.8250 h1        1 M1L      0.020700
     62 H242       -4.4070   -3.8850   -1.9690 h1        1 M1L      0.020700
     63 HO5        -4.8440   -5.8550   -3.0140 ho        1 M1L      0.383000
     64 H14         3.4740   -1.2600    0.9620 ha        1 M1L      0.131500
     65 H15         1.0780   -0.6820    0.8910 ha        1 M1L      0.165000
@<TRIPOS>BOND
     1    1    6 1   
     2    1    8 1   
     3    1   37 1   
     4    1   38 1   
     5    2    3 ar  
     6    2    7 ar  
     7    2   39 1   
     8    3    4 ar  
     9    3   14 1   
    10    4    5 ar  
    11    4   11 2   
    12    5    6 ar  
    13    5   10 1   
    14    6    7 ar  
    15    7   19 2   
    16    8    9 1   
    17    8   40 1   
    18    8   41 1   
    19    9   10 1   
    20    9   16 1   
    21   10   42 1   
    22   10   43 1   
    23   11   12 1   
    24   11   44 1   
    25   12   13 2   
    26   12   14 1   
    27   14   15 2   
    28   15   29 1   
    29   16   45 1   
    30   16   46 1   
    31   16   47 1   
    32   17   18 2   
    33   17   22 1   
    34   17   64 1   
    35   18   19 1   
    36   18   65 1   
    37   19   20 1   
    38   20   21 2   
    39   20   48 1   
    40   21   22 1   
    41   21   49 1   
    42   22   23 2   
    43   23   24 2   
    44   23   25 1   
    45   23   26 1   
    46   24   27 1   
    47   24   28 1   
    48   25   50 1   
    49   26   51 1   
    50   27   52 1   
    51   27   53 1   
    52   27   54 1   
    53   28   55 1   
    54   28   56 1   
    55   28   57 1   
    56   29   30 1   
    57   30   31 1   
    58   30   34 1   
    59   30   58 1   
    60   31   32 1   
    61   31   59 1   
    62   31   60 1   
    63   32   33 1   
    64   32   61 1   
    65   32   62 1   
    66   33   63 1   
    67   34   35 1   
    68   34   36 1   
@<TRIPOS>SUBSTRUCTURE
     1 M1L         1 TEMP              0 ****  ****    0 ROOT
