@<TRIPOS>MOLECULE
M1P
   27    27     1     0     0
SMALL
bcc


@<TRIPOS>ATOM
      1 O6          0.3840   -0.1770   -0.5980 oh        1 M1P     -0.640800
      2 C6          1.7700   -0.1750   -0.3180 c3        1 M1P      0.146400
      3 C5          2.0610    0.0310    1.1690 c3        1 M1P      0.089100
      4 O5          1.4770   -1.0670    1.8440 os        1 M1P     -0.501600
      5 C1          1.5540   -0.9450    3.2930 c3        1 M1P      0.399900
      6 O1          1.0400    0.2480    3.6260 os        1 M1P     -0.543200
      7 P           0.0060    0.1730    5.0790 p5        1 M1P      1.307900
      8 O1P         1.0910   -0.1150    6.0760 o         1 M1P     -0.917167
      9 O2P        -0.6240    1.5310    5.0950 o         1 M1P     -0.917167
     10 O3P        -0.8570   -1.0010    4.7160 o         1 M1P     -0.917167
     11 C2          3.0690   -1.0710    3.6380 c3        1 M1P      0.040100
     12 O2          3.5990   -2.3260    3.2280 oh        1 M1P     -0.642800
     13 C3          3.8570    0.0520    2.9470 c3        1 M1P      0.093100
     14 O3          5.2550   -0.0770    3.1660 oh        1 M1P     -0.622800
     15 C4          3.5770    0.0760    1.4320 c3        1 M1P      0.089100
     16 O4          4.1480    1.2230    0.8140 oh        1 M1P     -0.622800
     17 HO6        -0.0680   -0.4830    0.2040 ho        1 M1P      0.441000
     18 H61         2.2110    0.6660   -0.9140 h1        1 M1P      0.019700
     19 H62         2.2040   -1.1510   -0.6670 h1        1 M1P      0.019700
     20 H5          1.5880    0.9880    1.5320 h1        1 M1P      0.090700
     21 H1          0.9620   -1.8250    3.6780 h2        1 M1P      0.108700
     22 H2          3.2020   -1.0200    4.7540 h1        1 M1P      0.131700
     23 HO2         3.1180   -2.5760    2.4280 ho        1 M1P      0.397000
     24 H3          3.5620    1.0340    3.4120 h1        1 M1P      0.104700
     25 HO3         5.4500   -1.0220    3.1280 ho        1 M1P      0.396000
     26 H4          4.0920   -0.7920    0.9370 h1        1 M1P      0.049700
     27 HO4         3.8590    1.9840    1.3310 ho        1 M1P      0.399000
@<TRIPOS>BOND
     1    1    2 1   
     2    1   17 1   
     3    2    3 1   
     4    2   18 1   
     5    2   19 1   
     6    3    4 1   
     7    3   15 1   
     8    3   20 1   
     9    4    5 1   
    10    5    6 1   
    11    5   11 1   
    12    5   21 1   
    13    6    7 1   
    14    7    8 1   
    15    7    9 1   
    16    7   10 1   
    17   11   12 1   
    18   11   13 1   
    19   11   22 1   
    20   12   23 1   
    21   13   14 1   
    22   13   15 1   
    23   13   24 1   
    24   14   25 1   
    25   15   16 1   
    26   15   26 1   
    27   16   27 1   
@<TRIPOS>SUBSTRUCTURE
     1 M1P         1 TEMP              0 ****  ****    0 ROOT
