@<TRIPOS>MOLECULE
M1P
   27    27     1     0     0
SMALL
bcc


@<TRIPOS>ATOM
      1 O6         -2.6980    1.4840   -0.9130 oh        1 M1P     -0.650800
      2 C6         -1.2740    1.3530   -0.9700 c3        1 M1P      0.133400
      3 C5         -0.7200    1.3180    0.4200 c3        1 M1P      0.089100
      4 O5         -0.9260   -0.0200    0.9820 os        1 M1P     -0.440600
      5 C1         -0.0950   -1.0490    0.3340 c3        1 M1P      0.370900
      6 O1         -0.2280   -2.2290    1.0270 os        1 M1P     -0.523200
      7 P          -1.5050   -3.0910    0.7850 p5        1 M1P      1.325900
      8 O1P        -2.7220   -2.3280    1.2520 o         1 M1P     -0.913500
      9 O2P        -1.6360   -3.3950   -0.6870 o         1 M1P     -0.913500
     10 O3P        -1.3950   -4.3800    1.5560 o         1 M1P     -0.913500
     11 C2          1.3750   -0.6680    0.2930 c3        1 M1P      0.074100
     12 O2          2.0810   -1.6280   -0.5060 oh        1 M1P     -0.682800
     13 C3          1.5910    0.6830   -0.2810 c3        1 M1P      0.110100
     14 O3          1.2710    0.6480   -1.6960 oh        1 M1P     -0.635800
     15 C4          0.7480    1.7130    0.3770 c3        1 M1P      0.098100
     16 O4          1.2160    1.9050    1.7200 oh        1 M1P     -0.634800
     17 HO6        -2.9980    1.8120   -1.6860 ho        1 M1P      0.498000
     18 H61        -0.8980    2.1110   -1.4500 h1        1 M1P      0.021700
     19 H62        -1.0410    0.5260   -1.4350 h1        1 M1P      0.021700
     20 H5         -1.2070    1.9700    0.9710 h1        1 M1P      0.045700
     21 H1         -0.4130   -1.1840   -0.5810 h2        1 M1P      0.056700
     22 H2          1.7350   -0.6870    1.2070 h1        1 M1P      0.027700
     23 HO2         2.8170   -1.8980   -0.0680 ho        1 M1P      0.505000
     24 H3          2.5380    0.9290   -0.1730 h1        1 M1P      0.025700
     25 HO3         1.9950    0.8400   -2.1650 ho        1 M1P      0.438000
     26 H4          0.8360    2.5520   -0.1120 h1        1 M1P      0.054700
     27 HO4         1.5540    2.7130    1.7990 ho        1 M1P      0.412000
@<TRIPOS>BOND
     1    1    2 1   
     2    1   17 1   
     3    2    3 1   
     4    2   18 1   
     5    2   19 1   
     6    3    4 1   
     7    3   15 1   
     8    3   20 1   
     9    4    5 1   
    10    5    6 1   
    11    5   11 1   
    12    5   21 1   
    13    6    7 1   
    14    7    8 1   
    15    7    9 1   
    16    7   10 1   
    17   11   12 1   
    18   11   13 1   
    19   11   22 1   
    20   12   23 1   
    21   13   14 1   
    22   13   15 1   
    23   13   24 1   
    24   14   25 1   
    25   15   16 1   
    26   15   26 1   
    27   16   27 1   
@<TRIPOS>SUBSTRUCTURE
     1 M1P         1 TEMP              0 ****  ****    0 ROOT
