@<TRIPOS>MOLECULE
M1P
   27    27     1     0     0
SMALL
bcc


@<TRIPOS>ATOM
      1 O6          3.5910    0.5930   -0.8290 oh        1 M1P     -0.640800
      2 C6          2.6110    0.3770   -1.8260 c3        1 M1P      0.146400
      3 C5          1.2720   -0.0670   -1.2360 c3        1 M1P      0.089100
      4 O5          0.8320    0.9940   -0.4060 os        1 M1P     -0.501600
      5 C1         -0.3750    0.6640    0.3370 c3        1 M1P      0.399900
      6 O1         -0.1500   -0.4890    0.9850 os        1 M1P     -0.543200
      7 P          -0.7950   -0.4840    2.6480 p5        1 M1P      1.307900
      8 O1P        -2.2540   -0.4750    2.2920 o         1 M1P     -0.917167
      9 O2P        -0.2170   -1.7400    3.2200 o         1 M1P     -0.917167
     10 O3P        -0.2470    0.8280    3.1300 o         1 M1P     -0.917167
     11 C2         -1.5020    0.5500   -0.7340 c3        1 M1P      0.040100
     12 O2         -1.6840    1.7730   -1.4380 oh        1 M1P     -0.642800
     13 C3         -1.1560   -0.5580   -1.7400 c3        1 M1P      0.093100
     14 O3         -2.1160   -0.6380   -2.7830 oh        1 M1P     -0.622800
     15 C4          0.2430   -0.3380   -2.3480 c3        1 M1P      0.089100
     16 O4          0.6510   -1.4510   -3.1320 oh        1 M1P     -0.622800
     17 HO6         3.1220    0.8400   -0.0170 ho        1 M1P      0.441000
     18 H61         2.4820    1.3290   -2.4090 h1        1 M1P      0.019700
     19 H62         3.0160   -0.4230   -2.4990 h1        1 M1P      0.019700
     20 H5          1.4070   -0.9970   -0.6130 h1        1 M1P      0.090700
     21 H1         -0.5320    1.5520    1.0180 h2        1 M1P      0.108700
     22 H2         -2.4800    0.3300   -0.2230 h1        1 M1P      0.131700
     23 HO2        -0.8140    2.1890   -1.4900 ho        1 M1P      0.397000
     24 H3         -1.1960   -1.5490   -1.2080 h1        1 M1P      0.104700
     25 HO3        -2.3650    0.2710   -2.9940 ho        1 M1P      0.396000
     26 H4          0.2100    0.5180   -3.0760 h1        1 M1P      0.049700
     27 HO4         0.5250   -2.2340   -2.5830 ho        1 M1P      0.399000
@<TRIPOS>BOND
     1    1    2 1   
     2    1   17 1   
     3    2    3 1   
     4    2   18 1   
     5    2   19 1   
     6    3    4 1   
     7    3   15 1   
     8    3   20 1   
     9    4    5 1   
    10    5    6 1   
    11    5   11 1   
    12    5   21 1   
    13    6    7 1   
    14    7    8 1   
    15    7    9 1   
    16    7   10 1   
    17   11   12 1   
    18   11   13 1   
    19   11   22 1   
    20   12   23 1   
    21   13   14 1   
    22   13   15 1   
    23   13   24 1   
    24   14   25 1   
    25   15   16 1   
    26   15   26 1   
    27   16   27 1   
@<TRIPOS>SUBSTRUCTURE
     1 M1P         1 TEMP              0 ****  ****    0 ROOT
