@<TRIPOS>MOLECULE
M1P
   27    27     1     0     0
SMALL
bcc


@<TRIPOS>ATOM
      1 O6          0.3450   -0.1460   -0.5720 oh        1 M1P     -0.640800
      2 C6          1.7350   -0.1450   -0.3100 c3        1 M1P      0.146400
      3 C5          2.0450    0.0450    1.1750 c3        1 M1P      0.089100
      4 O5          1.4710   -1.0620    1.8460 os        1 M1P     -0.501600
      5 C1          1.5670   -0.9560    3.2950 c3        1 M1P      0.399900
      6 O1          1.0540    0.2320    3.6480 os        1 M1P     -0.543200
      7 P           0.0400    0.1390    5.1130 p5        1 M1P      1.307900
      8 O1P         1.1380   -0.1580    6.0930 o         1 M1P     -0.917167
      9 O2P        -0.5930    1.4940    5.1520 o         1 M1P     -0.917167
     10 O3P        -0.8260   -1.0330    4.7480 o         1 M1P     -0.917167
     11 C2          3.0860   -1.0840    3.6190 c3        1 M1P      0.040100
     12 O2          3.6120   -2.3330    3.1880 oh        1 M1P     -0.642800
     13 C3          3.8630    0.0490    2.9310 c3        1 M1P      0.093100
     14 O3          5.2640   -0.0800    3.1300 oh        1 M1P     -0.622800
     15 C4          3.5640    0.0900    1.4200 c3        1 M1P      0.089100
     16 O4          4.1250    1.2440    0.8080 oh        1 M1P     -0.622800
     17 HO6        -0.0960   -0.4620    0.2320 ho        1 M1P      0.441000
     18 H61         2.1670    0.7040   -0.9020 h1        1 M1P      0.019700
     19 H62         2.1660   -1.1160   -0.6750 h1        1 M1P      0.019700
     20 H5          1.5750    0.9970    1.5560 h1        1 M1P      0.090700
     21 H1          0.9800   -1.8420    3.6770 h2        1 M1P      0.108700
     22 H2          3.2330   -1.0450    4.7340 h1        1 M1P      0.131700
     23 HO2         3.1220   -2.5750    2.3920 ho        1 M1P      0.397000
     24 H3          3.5730    1.0250    3.4100 h1        1 M1P      0.104700
     25 HO3         5.4600   -1.0240    3.0790 ho        1 M1P      0.396000
     26 H4          4.0730   -0.7720    0.9080 h1        1 M1P      0.049700
     27 HO4         3.8410    1.9990    1.3370 ho        1 M1P      0.399000
@<TRIPOS>BOND
     1    1    2 1   
     2    1   17 1   
     3    2    3 1   
     4    2   18 1   
     5    2   19 1   
     6    3    4 1   
     7    3   15 1   
     8    3   20 1   
     9    4    5 1   
    10    5    6 1   
    11    5   11 1   
    12    5   21 1   
    13    6    7 1   
    14    7    8 1   
    15    7    9 1   
    16    7   10 1   
    17   11   12 1   
    18   11   13 1   
    19   11   22 1   
    20   12   23 1   
    21   13   14 1   
    22   13   15 1   
    23   13   24 1   
    24   14   25 1   
    25   15   16 1   
    26   15   26 1   
    27   16   27 1   
@<TRIPOS>SUBSTRUCTURE
     1 M1P         1 TEMP              0 ****  ****    0 ROOT
