@<TRIPOS>MOLECULE
M1S
   45    46     1     0     0
SMALL
bcc


@<TRIPOS>ATOM
      1 C1         -0.1010   -0.1170    0.2420 c         1 M1S      0.672700
      2 C2          1.3690   -0.1710    0.1490 ca        1 M1S     -0.181600
      3 C3          1.9620   -0.4970   -1.0910 ca        1 M1S      0.219100
      4 C4          3.3510   -0.5150   -1.2540 ca        1 M1S     -0.261000
      5 C5          4.1610   -0.2010   -0.1580 ca        1 M1S      0.208100
      6 C6          3.5860    0.1020    1.0940 ca        1 M1S     -0.112600
      7 C7          2.1910    0.1130    1.2550 ca        1 M1S      0.075700
      8 C8          1.6050    0.3910    2.5970 c3        1 M1S     -0.176100
      9 C9          1.3760    1.8470    2.9070 c         1 M1S      0.577100
     10 C10         0.7530    2.1050    4.2560 c3        1 M1S     -0.179400
     11 C11        -0.6440    2.6810    4.1190 c3        1 M1S     -0.073400
     12 C12        -1.6400    1.6270    3.6840 c3        1 M1S     -0.093400
     13 C13        -2.9450    2.2360    3.2130 c3        1 M1S     -0.070400
     14 C14        -3.7850    1.2110    2.4660 c3        1 M1S     -0.060200
     15 C15        -4.4810    1.7910    1.2900 c2        1 M1S     -0.154200
     16 C16        -3.8930    2.0980    0.1300 c2        1 M1S     -0.177200
     17 C17        -2.4420    1.9670   -0.1420 c3        1 M1S     -0.079200
     18 C18        -2.1110    0.6470   -0.8210 c3        1 M1S      0.140400
     19 O2         -0.8310   -0.5310    1.1490 o         1 M1S     -0.565000
     20 O3          1.1170   -0.8260   -2.1180 oh        1 M1S     -0.469100
     21 O4          5.5090   -0.2270   -0.3950 oh        1 M1S     -0.484100
     22 CL1         4.6190    0.4660    2.4030 cl        1 M1S     -0.087400
     23 O5          1.6690    2.7650    2.1380 o         1 M1S     -0.520100
     24 O1         -0.6870    0.4680   -0.8450 os        1 M1S     -0.411900
     25 H4          3.8130   -0.7610   -2.2200 ha        1 M1S      0.164000
     26 H8C1        0.6190   -0.1470    2.7060 hc        1 M1S      0.104200
     27 H8C2        2.2800   -0.0250    3.3980 hc        1 M1S      0.104200
     28 H101        0.7190    1.1600    4.8570 hc        1 M1S      0.063700
     29 H102        1.4040    2.8400    4.8030 hc        1 M1S      0.063700
     30 H111       -0.6210    3.5210    3.3750 hc        1 M1S      0.052700
     31 H112       -0.9590    3.1140    5.1050 hc        1 M1S      0.052700
     32 H121       -1.1920    1.0220    2.8470 hc        1 M1S      0.049200
     33 H122       -1.8380    0.9180    4.5290 hc        1 M1S      0.049200
     34 H131       -3.5180    2.6320    4.0910 hc        1 M1S      0.042200
     35 H132       -2.7290    3.1110    2.5440 hc        1 M1S      0.042200
     36 H141       -4.5390    0.7670    3.1690 hc        1 M1S      0.055200
     37 H142       -3.1290    0.3640    2.1140 hc        1 M1S      0.055200
     38 H15        -5.5660    1.9510    1.4150 ha        1 M1S      0.118000
     39 H16        -4.4900    2.4950   -0.7070 ha        1 M1S      0.118000
     40 H171       -1.8540    2.0260    0.8160 hc        1 M1S      0.060700
     41 H172       -2.0990    2.8150   -0.7930 hc        1 M1S      0.060700
     42 H181       -2.3840    0.6590   -1.9090 h1        1 M1S      0.068700
     43 H182       -2.6080   -0.2130   -0.3010 h1        1 M1S      0.068700
     44 H3          1.6490   -0.9610   -2.9180 ho        1 M1S      0.429000
     45 HA          5.9750    0.0390    0.4150 ho        1 M1S      0.438000
@<TRIPOS>BOND
     1    1    2 1   
     2    1   19 2   
     3    1   24 1   
     4    2    3 ar  
     5    2    7 ar  
     6    3    4 ar  
     7    3   20 1   
     8    4    5 ar  
     9    4   25 1   
    10    5    6 ar  
    11    5   21 1   
    12    6    7 ar  
    13    6   22 1   
    14    7    8 1   
    15    8    9 1   
    16    8   26 1   
    17    8   27 1   
    18    9   10 1   
    19    9   23 2   
    20   10   11 1   
    21   10   28 1   
    22   10   29 1   
    23   11   12 1   
    24   11   30 1   
    25   11   31 1   
    26   12   13 1   
    27   12   32 1   
    28   12   33 1   
    29   13   14 1   
    30   13   34 1   
    31   13   35 1   
    32   14   15 1   
    33   14   36 1   
    34   14   37 1   
    35   15   16 2   
    36   15   38 1   
    37   16   17 1   
    38   16   39 1   
    39   17   18 1   
    40   17   40 1   
    41   17   41 1   
    42   18   24 1   
    43   18   42 1   
    44   18   43 1   
    45   20   44 1   
    46   21   45 1   
@<TRIPOS>SUBSTRUCTURE
     1 M1S         1 TEMP              0 ****  ****    0 ROOT
