@<TRIPOS>MOLECULE
M1S
   45    46     1     0     0
SMALL
bcc


@<TRIPOS>ATOM
      1 C1         -0.1690    1.6560   -0.8020 c         1 M1S      0.663700
      2 C2          1.1750    1.2150   -0.3960 ca        1 M1S     -0.229600
      3 C3          2.1540    2.1680   -0.0340 ca        1 M1S      0.227100
      4 C4          3.4550    1.7770    0.3180 ca        1 M1S     -0.205000
      5 C5          3.7750    0.4180    0.3210 ca        1 M1S      0.202100
      6 C6          2.8050   -0.5470   -0.0290 ca        1 M1S     -0.110600
      7 C7          1.5050   -0.1560   -0.3780 ca        1 M1S      0.076700
      8 C8          0.5090   -1.2040   -0.7410 c3        1 M1S     -0.172100
      9 C9         -0.0550   -1.9670    0.4300 c         1 M1S      0.576100
     10 C10        -0.8560   -3.1850    0.0480 c3        1 M1S     -0.179400
     11 C11        -2.2790   -3.0990    0.5610 c3        1 M1S     -0.073400
     12 C12        -3.0770   -2.0550   -0.1910 c3        1 M1S     -0.087400
     13 C13        -4.4610   -1.8750    0.3960 c3        1 M1S     -0.071400
     14 C14        -5.1260   -0.6170   -0.1360 c3        1 M1S     -0.047200
     15 C15        -4.5460    0.6050    0.4740 c2        1 M1S     -0.168200
     16 C16        -3.6310    1.3710   -0.1290 c2        1 M1S     -0.178200
     17 C17        -3.0540    2.5820    0.5020 c3        1 M1S     -0.073200
     18 C18        -1.9530    3.2190   -0.3260 c3        1 M1S      0.139400
     19 O2         -0.8550    1.2840   -1.7580 o         1 M1S     -0.542000
     20 O3          1.9630    3.5220   -0.0280 oh        1 M1S     -0.491100
     21 O4          5.0620    0.1130    0.6730 oh        1 M1S     -0.481100
     22 CL1         3.2440   -2.1960   -0.0110 cl        1 M1S     -0.089400
     23 O5          0.1040   -1.6310    1.6060 o         1 M1S     -0.518100
     24 O1         -0.6770    2.6470    0.0000 os        1 M1S     -0.458900
     25 H4          4.2070    2.5300    0.5910 ha        1 M1S      0.179000
     26 H8C1        0.9930   -1.9390   -1.4450 hc        1 M1S      0.100700
     27 H8C2       -0.3660   -0.7650   -1.2980 hc        1 M1S      0.100700
     28 H101       -0.3520   -4.0820    0.4990 hc        1 M1S      0.064200
     29 H102       -0.8600   -3.3170   -1.0650 hc        1 M1S      0.064200
     30 H111       -2.2600   -2.8490    1.6550 hc        1 M1S      0.054200
     31 H112       -2.7710   -4.1010    0.4490 hc        1 M1S      0.054200
     32 H121       -3.1620   -2.3470   -1.2710 hc        1 M1S      0.044700
     33 H122       -2.5310   -1.0730   -0.1560 hc        1 M1S      0.044700
     34 H131       -4.3970   -1.8190    1.5150 hc        1 M1S      0.042700
     35 H132       -5.0950   -2.7640    0.1410 hc        1 M1S      0.042700
     36 H141       -6.2240   -0.6560    0.0980 hc        1 M1S      0.046200
     37 H142       -5.0240   -0.5880   -1.2540 hc        1 M1S      0.046200
     38 H15        -4.9100    0.8420    1.4880 ha        1 M1S      0.119000
     39 H16        -3.2510    1.1250   -1.1360 ha        1 M1S      0.140000
     40 H171       -2.6490    2.3290    1.5200 hc        1 M1S      0.065700
     41 H172       -3.8650    3.3490    0.6450 hc        1 M1S      0.065700
     42 H181       -1.8200    4.2980   -0.0380 h1        1 M1S      0.066700
     43 H182       -2.1560    3.1340   -1.4250 h1        1 M1S      0.066700
     44 H3          1.0250    3.7310   -0.1590 ho        1 M1S      0.446000
     45 HA          5.1620   -0.8530    0.6870 ho        1 M1S      0.437000
@<TRIPOS>BOND
     1    1    2 1   
     2    1   19 2   
     3    1   24 1   
     4    2    3 ar  
     5    2    7 ar  
     6    3    4 ar  
     7    3   20 1   
     8    4    5 ar  
     9    4   25 1   
    10    5    6 ar  
    11    5   21 1   
    12    6    7 ar  
    13    6   22 1   
    14    7    8 1   
    15    8    9 1   
    16    8   26 1   
    17    8   27 1   
    18    9   10 1   
    19    9   23 2   
    20   10   11 1   
    21   10   28 1   
    22   10   29 1   
    23   11   12 1   
    24   11   30 1   
    25   11   31 1   
    26   12   13 1   
    27   12   32 1   
    28   12   33 1   
    29   13   14 1   
    30   13   34 1   
    31   13   35 1   
    32   14   15 1   
    33   14   36 1   
    34   14   37 1   
    35   15   16 2   
    36   15   38 1   
    37   16   17 1   
    38   16   39 1   
    39   17   18 1   
    40   17   40 1   
    41   17   41 1   
    42   18   24 1   
    43   18   42 1   
    44   18   43 1   
    45   20   44 1   
    46   21   45 1   
@<TRIPOS>SUBSTRUCTURE
     1 M1S         1 TEMP              0 ****  ****    0 ROOT
