@<TRIPOS>MOLECULE
M1S
   45    46     1     0     0
SMALL
bcc


@<TRIPOS>ATOM
      1 C1         -0.0980   -0.1080    0.2340 c         1 M1S      0.672700
      2 C2          1.3720   -0.1720    0.1550 ca        1 M1S     -0.181600
      3 C3          1.9740   -0.4930   -1.0830 ca        1 M1S      0.219100
      4 C4          3.3640   -0.5190   -1.2340 ca        1 M1S     -0.261000
      5 C5          4.1670   -0.2190   -0.1270 ca        1 M1S      0.208100
      6 C6          3.5820    0.0770    1.1220 ca        1 M1S     -0.112600
      7 C7          2.1860    0.0970    1.2700 ca        1 M1S      0.075700
      8 C8          1.5890    0.3680    2.6090 c3        1 M1S     -0.176100
      9 C9          1.3680    1.8230    2.9290 c         1 M1S      0.577100
     10 C10         0.7340    2.0740    4.2740 c3        1 M1S     -0.179400
     11 C11        -0.6570    2.6610    4.1290 c3        1 M1S     -0.073400
     12 C12        -1.6570    1.6190    3.6760 c3        1 M1S     -0.093400
     13 C13        -2.9530    2.2410    3.1980 c3        1 M1S     -0.070400
     14 C14        -3.7940    1.2280    2.4350 c3        1 M1S     -0.060200
     15 C15        -4.4750    1.8230    1.2570 c2        1 M1S     -0.154200
     16 C16        -3.8730    2.1340    0.1040 c2        1 M1S     -0.177200
     17 C17        -2.4200    1.9960   -0.1550 c3        1 M1S     -0.079200
     18 C18        -2.0930    0.6790   -0.8410 c3        1 M1S      0.140400
     19 O2         -0.8400   -0.5250    1.1310 o         1 M1S     -0.565000
     20 O3          1.1370   -0.8070   -2.1200 oh        1 M1S     -0.469100
     21 O4          5.5160   -0.2530   -0.3520 oh        1 M1S     -0.484100
     22 Cl1         4.6050    0.4220    2.4430 cl        1 M1S     -0.087400
     23 O5          1.6750    2.7450    2.1700 o         1 M1S     -0.520100
     24 O1         -0.6700    0.4900   -0.8540 os        1 M1S     -0.411900
     25 H4          3.8340   -0.7600   -2.1970 ha        1 M1S      0.164000
     26 H8C1        0.5990   -0.1640    2.7040 hc        1 M1S      0.104200
     27 H8C2        2.2540   -0.0600    3.4120 hc        1 M1S      0.104200
     28 H101        0.6880    1.1250    4.8670 hc        1 M1S      0.063700
     29 H102        1.3850    2.8000    4.8330 hc        1 M1S      0.063700
     30 H111       -0.6210    3.5080    3.3920 hc        1 M1S      0.052700
     31 H112       -0.9790    3.0880    5.1150 hc        1 M1S      0.052700
     32 H121       -1.2060    1.0170    2.8380 hc        1 M1S      0.049200
     33 H122       -1.8680    0.9040    4.5130 hc        1 M1S      0.049200
     34 H131       -3.5310    2.6340    4.0730 hc        1 M1S      0.042200
     35 H132       -2.7240    3.1200    2.5380 hc        1 M1S      0.042200
     36 H141       -4.5570    0.7830    3.1260 hc        1 M1S      0.055200
     37 H142       -3.1400    0.3790    2.0810 hc        1 M1S      0.055200
     38 H15        -5.5590    1.9900    1.3730 ha        1 M1S      0.118000
     39 H16        -4.4600    2.5430   -0.7350 ha        1 M1S      0.118000
     40 H171       -1.8410    2.0420    0.8090 hc        1 M1S      0.060700
     41 H172       -2.0650    2.8460   -0.7950 hc        1 M1S      0.060700
     42 H181       -2.3560    0.7010   -1.9320 h1        1 M1S      0.068700
     43 H182       -2.6000   -0.1820   -0.3330 h1        1 M1S      0.068700
     44 H3          1.6750   -0.9390   -2.9160 ho        1 M1S      0.429000
     45 HA          5.9770    0.0020    0.4650 ho        1 M1S      0.438000
@<TRIPOS>BOND
     1    1    2 1   
     2    1   19 2   
     3    1   24 1   
     4    2    3 ar  
     5    2    7 ar  
     6    3    4 ar  
     7    3   20 1   
     8    4    5 ar  
     9    4   25 1   
    10    5    6 ar  
    11    5   21 1   
    12    6    7 ar  
    13    6   22 1   
    14    7    8 1   
    15    8    9 1   
    16    8   26 1   
    17    8   27 1   
    18    9   10 1   
    19    9   23 2   
    20   10   11 1   
    21   10   28 1   
    22   10   29 1   
    23   11   12 1   
    24   11   30 1   
    25   11   31 1   
    26   12   13 1   
    27   12   32 1   
    28   12   33 1   
    29   13   14 1   
    30   13   34 1   
    31   13   35 1   
    32   14   15 1   
    33   14   36 1   
    34   14   37 1   
    35   15   16 2   
    36   15   38 1   
    37   16   17 1   
    38   16   39 1   
    39   17   18 1   
    40   17   40 1   
    41   17   41 1   
    42   18   24 1   
    43   18   42 1   
    44   18   43 1   
    45   20   44 1   
    46   21   45 1   
@<TRIPOS>SUBSTRUCTURE
     1 M1S         1 TEMP              0 ****  ****    0 ROOT
