@<TRIPOS>MOLECULE
M1T
   25    24     1     0     0
SMALL
bcc


@<TRIPOS>ATOM
      1 CAA        -0.0160   -0.1320    0.2650 c3        1 M1T      0.111700
      2 OAB         3.9730    0.6500   -0.1130 o         1 M1T     -0.492100
      3 OAC         8.9470    0.3290    3.9820 oh        1 M1T     -0.632800
      4 OAD         8.5410   -1.2830    2.4860 oh        1 M1T     -0.632800
      5 CAE         5.8920    0.1390    1.8890 c3        1 M1T     -0.078400
      6 CAF         4.4180    0.2200    2.2180 c3        1 M1T     -0.182400
      7 CAG         6.7320    0.2580    3.1400 c3        1 M1T     -0.104400
      8 CAH         2.1370   -0.1690    1.2300 c3        1 M1T      0.024400
      9 OAI         1.3230    0.3250    0.1740 os        1 M1T     -0.393600
     10 CAJ         3.5590    0.2780    0.9840 c         1 M1T      0.564100
     11 CAK         8.2080    0.0450    2.8130 c3        1 M1T      0.330900
     12 HAA        -0.5250    0.3370   -0.6140 h1        1 M1T      0.036033
     13 HAAA       -0.0590   -1.2470    0.1960 h1        1 M1T      0.036033
     14 HAAB       -0.4870    0.2100    1.2200 h1        1 M1T      0.036033
     15 HOAC        9.8790    0.1890    3.7740 ho        1 M1T      0.414500
     16 HOAD        8.2160   -1.8580    3.1890 ho        1 M1T      0.414500
     17 HAE         6.1580    0.9560    1.1660 hc        1 M1T      0.064200
     18 HAEA        6.1150   -0.8360    1.3790 hc        1 M1T      0.064200
     19 HAF         4.1150   -0.6610    2.8430 hc        1 M1T      0.065200
     20 HAFA        4.2100    1.1470    2.8190 hc        1 M1T      0.065200
     21 HAG         6.6140    1.2730    3.6000 hc        1 M1T      0.058700
     22 HAGA        6.4100   -0.4980    3.9020 hc        1 M1T      0.058700
     23 HAH         1.7680    0.2330    2.2120 h1        1 M1T      0.048200
     24 HAHA        2.1060   -1.2920    1.2540 h1        1 M1T      0.048200
     25 HAK         8.5440    0.6630    1.9330 h2        1 M1T      0.075700
@<TRIPOS>BOND
     1    1    9 1   
     2    1   12 1   
     3    1   13 1   
     4    1   14 1   
     5    2   10 2   
     6    3   11 1   
     7    3   15 1   
     8    4   11 1   
     9    4   16 1   
    10    5    6 1   
    11    5    7 1   
    12    5   17 1   
    13    5   18 1   
    14    6   10 1   
    15    6   19 1   
    16    6   20 1   
    17    7   11 1   
    18    7   21 1   
    19    7   22 1   
    20    8    9 1   
    21    8   10 1   
    22    8   23 1   
    23    8   24 1   
    24   11   25 1   
@<TRIPOS>SUBSTRUCTURE
     1 M1T         1 TEMP              0 ****  ****    0 ROOT
