@<TRIPOS>MOLECULE
M1T
   25    24     1     0     0
SMALL
bcc


@<TRIPOS>ATOM
      1 CAA        -0.0310   -0.0240    0.2810 c3        1 M1T      0.111700
      2 OAB         3.9780    0.6270   -0.1270 o         1 M1T     -0.493100
      3 OAC         9.0850    0.3640    3.8140 oh        1 M1T     -0.632800
      4 OAD         8.4210   -1.4420    2.6770 oh        1 M1T     -0.632800
      5 CAE         5.8890    0.0860    1.8740 c3        1 M1T     -0.074400
      6 CAF         4.4210    0.2240    2.2090 c3        1 M1T     -0.182400
      7 CAG         6.7410    0.1860    3.1190 c3        1 M1T     -0.104400
      8 CAH         2.1240   -0.1130    1.2370 c3        1 M1T      0.023400
      9 OAI         1.3200    0.3960    0.1820 os        1 M1T     -0.393600
     10 CAJ         3.5590    0.2870    0.9780 c         1 M1T      0.564100
     11 CAK         8.2130   -0.0500    2.7890 c3        1 M1T      0.330900
     12 HAA        -0.5320    0.4520   -0.5980 h1        1 M1T      0.036033
     13 HAAA       -0.1040   -1.1380    0.2190 h1        1 M1T      0.036033
     14 HAAB       -0.4880    0.3350    1.2370 h1        1 M1T      0.036033
     15 HOAC        8.8150   -0.0700    4.6320 ho        1 M1T      0.414500
     16 HOAD        9.3470   -1.5780    2.4420 ho        1 M1T      0.414500
     17 HAE         6.1800    0.8850    1.1410 hc        1 M1T      0.063700
     18 HAEA        6.0730   -0.9030    1.3760 hc        1 M1T      0.063700
     19 HAF         4.0920   -0.6350    2.8520 hc        1 M1T      0.065200
     20 HAFA        4.2470    1.1690    2.7930 hc        1 M1T      0.065200
     21 HAG         6.6480    1.2030    3.5790 hc        1 M1T      0.057700
     22 HAGA        6.4070   -0.5720    3.8760 hc        1 M1T      0.057700
     23 HAH         1.7740    0.3090    2.2180 h1        1 M1T      0.048700
     24 HAHA        2.0590   -1.2350    1.2720 h1        1 M1T      0.048700
     25 HAK         8.5410    0.5090    1.8690 h2        1 M1T      0.075700
@<TRIPOS>BOND
     1    1    9 1   
     2    1   12 1   
     3    1   13 1   
     4    1   14 1   
     5    2   10 2   
     6    3   11 1   
     7    3   15 1   
     8    4   11 1   
     9    4   16 1   
    10    5    6 1   
    11    5    7 1   
    12    5   17 1   
    13    5   18 1   
    14    6   10 1   
    15    6   19 1   
    16    6   20 1   
    17    7   11 1   
    18    7   21 1   
    19    7   22 1   
    20    8    9 1   
    21    8   10 1   
    22    8   23 1   
    23    8   24 1   
    24   11   25 1   
@<TRIPOS>SUBSTRUCTURE
     1 M1T         1 TEMP              0 ****  ****    0 ROOT
