@<TRIPOS>MOLECULE
M1T
   25    24     1     0     0
SMALL
bcc


@<TRIPOS>ATOM
      1 CAA         5.1680   -0.3380    0.2410 c3        1 M1T      0.111700
      2 OAB         1.5830    1.1370   -1.0420 o         1 M1T     -0.492100
      3 OAC        -4.5280   -0.7490   -0.2000 oh        1 M1T     -0.632800
      4 OAD        -3.6280    0.9130    0.9960 oh        1 M1T     -0.632800
      5 CAE        -0.9290    0.1410   -0.2350 c3        1 M1T     -0.078400
      6 CAF         0.3320   -0.6780   -0.0660 c3        1 M1T     -0.182400
      7 CAG        -2.1590   -0.7280   -0.1130 c3        1 M1T     -0.104400
      8 CAH         2.8120   -0.4590    0.2960 c3        1 M1T      0.024400
      9 OAI         3.9530    0.0690   -0.3670 os        1 M1T     -0.393600
     10 CAJ         1.5740    0.1180   -0.3520 c         1 M1T      0.564100
     11 CAK        -3.4220    0.1280   -0.1550 c3        1 M1T      0.330900
     12 HAA         5.9610    0.1430   -0.3830 h1        1 M1T      0.036033
     13 HAAA        5.2230    0.0260    1.2970 h1        1 M1T      0.036033
     14 HAAB        5.2680   -1.4510    0.2170 h1        1 M1T      0.036033
     15 HOAC       -5.3260   -0.2060   -0.2230 ho        1 M1T      0.414500
     16 HOAD       -3.5790    0.3350    1.7670 ho        1 M1T      0.414500
     17 HAE        -0.9630    0.9520    0.5400 hc        1 M1T      0.064200
     18 HAEA       -0.9120    0.6470   -1.2380 hc        1 M1T      0.064200
     19 HAF         0.3840   -1.0910    0.9760 hc        1 M1T      0.065200
     20 HAFA        0.3180   -1.5520   -0.7740 hc        1 M1T      0.065200
     21 HAG        -2.2050   -1.4700   -0.9520 hc        1 M1T      0.058700
     22 HAGA       -2.1370   -1.3060    0.8480 hc        1 M1T      0.058700
     23 HAH         2.8080   -1.5790    0.2090 h1        1 M1T      0.048200
     24 HAHA        2.8230   -0.1720    1.3830 h1        1 M1T      0.048200
     25 HAK        -3.4170    0.8540   -1.0160 h2        1 M1T      0.075700
@<TRIPOS>BOND
     1    1    9 1   
     2    1   12 1   
     3    1   13 1   
     4    1   14 1   
     5    2   10 2   
     6    3   11 1   
     7    3   15 1   
     8    4   11 1   
     9    4   16 1   
    10    5    6 1   
    11    5    7 1   
    12    5   17 1   
    13    5   18 1   
    14    6   10 1   
    15    6   19 1   
    16    6   20 1   
    17    7   11 1   
    18    7   21 1   
    19    7   22 1   
    20    8    9 1   
    21    8   10 1   
    22    8   23 1   
    23    8   24 1   
    24   11   25 1   
@<TRIPOS>SUBSTRUCTURE
     1 M1T         1 TEMP              0 ****  ****    0 ROOT
