@<TRIPOS>MOLECULE
M1V
   79    82     1     0     0
SMALL
bcc


@<TRIPOS>ATOM
      1 OA          0.3870    0.9140   -0.7000 o         1 M1V     -0.628500
      2 C1A         1.6010    0.7360   -0.5270 c         1 M1V      0.690700
      3 NA          2.2080    0.4600    0.7170 n         1 M1V     -0.472100
      4 C2A         2.6990    0.7440   -1.5580 cc        1 M1V     -0.197400
      5 CMA         2.4160    0.9090   -2.9830 c3        1 M1V     -0.030900
      6 C3A         3.8890    0.5780   -0.9090 cd        1 M1V     -0.027200
      7 CAA         5.2380    0.5010   -1.4950 c3        1 M1V     -0.036200
      8 CBA         5.9990    1.8000   -1.3580 c3        1 M1V     -0.091100
      9 C4A         3.6210    0.4370    0.5510 cd        1 M1V     -0.027400
     10 CHA         4.5680    0.2940    1.5050 ce        1 M1V     -0.051200
     11 C1B         4.3740    0.1210    2.9130 cc        1 M1V     -0.127100
     12 C2B         5.2720    0.5410    3.9340 cd        1 M1V     -0.094300
     13 CMB         6.5470    1.2300    3.7300 c3        1 M1V     -0.062800
     14 C3B         4.6910    0.1800    5.1890 cd        1 M1V     -0.061300
     15 CAB         5.3020    0.4380    6.5040 c3        1 M1V     -0.022100
     16 CBB         5.4670    1.9170    6.8060 c3        1 M1V     -0.192400
     17 CGB         6.9050    2.2970    7.1990 c         1 M1V      0.905600
     18 O2B         7.0590    3.2600    8.0030 o         1 M1V     -0.853800
     19 O1B         7.8740    1.6630    6.6800 o         1 M1V     -0.853800
     20 NB          3.2710   -0.4770    3.5180 na        1 M1V     -0.149100
     21 C4B         3.4580   -0.4800    4.9050 cc        1 M1V     -0.111100
     22 CHB         2.5390   -1.0420    5.8490 ce        1 M1V      0.037800
     23 C1C         1.4680   -1.8340    5.5830 cd        1 M1V      0.030600
     24 C2C         0.4840   -2.3450    6.5880 cd        1 M1V     -0.032200
     25 CAC         0.4970   -2.0850    8.0360 c3        1 M1V     -0.034200
     26 CBC         0.6520   -3.3460    8.8680 c3        1 M1V     -0.191400
     27 CGC        -0.5040   -3.5700    9.8590 c         1 M1V      0.905600
     28 O2C        -1.6490   -3.0940    9.5940 o         1 M1V     -0.853300
     29 O1C        -0.2610   -4.2560   10.8920 o         1 M1V     -0.853300
     30 C3C        -0.4490   -3.0720    5.8830 cc        1 M1V     -0.247800
     31 CMC        -1.6400   -3.7590    6.3830 c3        1 M1V     -0.059900
     32 NC          1.0850   -2.3140    4.2880 nd        1 M1V     -0.624300
     33 C4C        -0.0220   -3.0370    4.4570 cc        1 M1V      0.465900
     34 CHC        -0.7710   -3.7270    3.4360 ce        1 M1V     -0.192600
     35 C1D        -0.3440   -4.0590    2.1990 cd        1 M1V      0.038600
     36 C2D        -1.1670   -4.7920    1.1830 cd        1 M1V     -0.042200
     37 CMD        -2.5490   -5.1930    1.4550 c3        1 M1V     -0.052900
     38 ND          0.9220   -3.8340    1.6110 n         1 M1V     -0.478100
     39 C4D         0.9500   -4.3680    0.3130 c         1 M1V      0.697700
     40 OD          1.9280   -4.3370   -0.4480 o         1 M1V     -0.629500
     41 C3D        -0.4110   -4.9780    0.0640 cc        1 M1V     -0.187400
     42 CAD        -0.7310   -5.6440   -1.2060 c3        1 M1V     -0.011200
     43 CBD        -0.6970   -4.6880   -2.3760 c3        1 M1V     -0.094100
     44 H1          2.8130    1.8890   -3.3520 hc        1 M1V      0.044033
     45 H2          2.8980    0.0930   -3.5780 hc        1 M1V      0.044033
     46 H3          1.3120    0.8830   -3.1640 hc        1 M1V      0.044033
     47 H4          5.1510    0.2340   -2.5840 hc        1 M1V      0.053200
     48 H5          5.8140   -0.3250   -0.9930 hc        1 M1V      0.053200
     49 H6          5.4630    2.6290   -1.8800 hc        1 M1V      0.038033
     50 H7          7.0150    1.6940   -1.8070 hc        1 M1V      0.038033
     51 H8          6.1120    2.0780   -0.2820 hc        1 M1V      0.038033
     52 H9          5.6310    0.3500    1.2020 ha        1 M1V      0.149000
     53 H11         6.3750    2.2640    3.3380 hc        1 M1V      0.059700
     54 H12         7.1790    0.6780    2.9890 hc        1 M1V      0.059700
     55 H13         7.1110    1.3150    4.7050 hc        1 M1V      0.059700
     56 H14         4.6960   -0.0490    7.3130 hc        1 M1V      0.058700
     57 H15         6.3250   -0.0400    6.5150 hc        1 M1V      0.058700
     58 H16         5.2070    2.5320    5.9060 hc        1 M1V      0.031700
     59 H17         4.7770    2.2180    7.6330 hc        1 M1V      0.031700
     60 H19         2.5690   -0.9850    3.0410 hn        1 M1V      0.314700
     61 H20         2.7530   -0.7840    6.9050 ha        1 M1V      0.162000
     62 H22        -0.4860   -1.6020    8.3150 hc        1 M1V      0.060200
     63 H23         1.3130   -1.3590    8.2920 hc        1 M1V      0.060200
     64 H24         1.6100   -3.3050    9.4440 hc        1 M1V      0.033700
     65 H25         0.6910   -4.2500    8.2090 hc        1 M1V      0.033700
     66 H27        -1.7420   -3.6030    7.4960 hc        1 M1V      0.055700
     67 H28        -2.5590   -3.3660    5.8800 hc        1 M1V      0.055700
     68 H29        -1.5750   -4.8570    6.1800 hc        1 M1V      0.055700
     69 H31        -1.7930   -4.0190    3.7380 ha        1 M1V      0.147000
     70 H33        -2.9990   -5.7230    0.5800 hc        1 M1V      0.052033
     71 H34        -3.1740   -4.2920    1.6850 hc        1 M1V      0.052033
     72 H35        -2.5860   -5.8760    2.3430 hc        1 M1V      0.052033
     73 H36         0.0230   -6.4620   -1.3790 hc        1 M1V      0.043200
     74 H37        -1.7430   -6.1280   -1.1410 hc        1 M1V      0.043200
     75 H38        -1.4740   -3.8940   -2.2610 hc        1 M1V      0.039367
     76 H39        -0.8890   -5.2410   -3.3260 hc        1 M1V      0.039367
     77 H40         0.3050   -4.1960   -2.4380 hc        1 M1V      0.039367
     78 H41         1.7860    0.6940    1.5810 hn        1 M1V      0.336500
     79 H10         1.6570   -3.3380    2.0470 hn        1 M1V      0.363500
@<TRIPOS>BOND
     1    1    2 2   
     2    2    3 1   
     3    2    4 1   
     4    3    9 1   
     5    3   78 1   
     6    4    5 1   
     7    4    6 2   
     8    5   44 1   
     9    5   45 1   
    10    5   46 1   
    11    6    7 1   
    12    6    9 1   
    13    7    8 1   
    14    7   47 1   
    15    7   48 1   
    16    8   49 1   
    17    8   50 1   
    18    8   51 1   
    19    9   10 2   
    20   10   11 1   
    21   10   52 1   
    22   11   12 2   
    23   11   20 1   
    24   12   13 1   
    25   12   14 1   
    26   13   53 1   
    27   13   54 1   
    28   13   55 1   
    29   14   15 1   
    30   14   21 2   
    31   15   16 1   
    32   15   56 1   
    33   15   57 1   
    34   16   17 1   
    35   16   58 1   
    36   16   59 1   
    37   17   18 1   
    38   17   19 1   
    39   20   21 1   
    40   20   60 1   
    41   21   22 1   
    42   22   23 2   
    43   22   61 1   
    44   23   24 1   
    45   23   32 1   
    46   24   25 1   
    47   24   30 2   
    48   25   26 1   
    49   25   62 1   
    50   25   63 1   
    51   26   27 1   
    52   26   64 1   
    53   26   65 1   
    54   27   28 1   
    55   27   29 1   
    56   30   31 1   
    57   30   33 1   
    58   31   66 1   
    59   31   67 1   
    60   31   68 1   
    61   32   33 2   
    62   33   34 1   
    63   34   35 2   
    64   34   69 1   
    65   35   36 1   
    66   35   38 1   
    67   36   37 1   
    68   36   41 2   
    69   37   70 1   
    70   37   71 1   
    71   37   72 1   
    72   38   39 1   
    73   38   79 1   
    74   39   40 2   
    75   39   41 1   
    76   41   42 1   
    77   42   43 1   
    78   42   73 1   
    79   42   74 1   
    80   43   75 1   
    81   43   76 1   
    82   43   77 1   
@<TRIPOS>SUBSTRUCTURE
     1 M1V         1 TEMP              0 ****  ****    0 ROOT
