@<TRIPOS>MOLECULE
M1V
   79    82     1     0     0
SMALL
bcc


@<TRIPOS>ATOM
      1 OA          0.3690    0.8980   -0.6990 o         1 M1V     -0.628500
      2 C1A         1.5850    0.7320   -0.5250 c         1 M1V      0.690700
      3 NA          2.1930    0.4610    0.7200 ns        1 M1V     -0.472100
      4 C2A         2.6840    0.7530   -1.5540 cc        1 M1V     -0.197400
      5 CMA         2.4020    0.9170   -2.9790 c3        1 M1V     -0.030900
      6 C3A         3.8750    0.5990   -0.9040 cd        1 M1V     -0.027200
      7 CAA         5.2260    0.5370   -1.4880 c3        1 M1V     -0.036200
      8 CBA         5.9730    1.8430   -1.3480 c3        1 M1V     -0.091100
      9 C4A         3.6070    0.4530    0.5560 cd        1 M1V     -0.027400
     10 CHA         4.5530    0.3190    1.5120 ce        1 M1V     -0.051200
     11 C1B         4.3590    0.1420    2.9190 cc        1 M1V     -0.127100
     12 C2B         5.2520    0.5710    3.9410 cd        1 M1V     -0.094300
     13 CMB         6.5200    1.2730    3.7400 c3        1 M1V     -0.062800
     14 C3B         4.6720    0.2020    5.1950 cd        1 M1V     -0.061300
     15 CAB         5.2780    0.4650    6.5110 c3        1 M1V     -0.022100
     16 CBB         5.4270    1.9450    6.8160 c3        1 M1V     -0.192400
     17 CGB         6.8610    2.3400    7.2110 c         1 M1V      0.905600
     18 O2B         7.0030    3.3030    8.0170 o         1 M1V     -0.853800
     19 O1B         7.8370    1.7160    6.6930 o         1 M1V     -0.853800
     20 NB          3.2610   -0.4680    3.5210 na        1 M1V     -0.149100
     21 C4B         3.4460   -0.4710    4.9090 cc        1 M1V     -0.111100
     22 CHB         2.5320   -1.0440    5.8510 ce        1 M1V      0.037800
     23 C1C         1.4690   -1.8460    5.5820 cd        1 M1V      0.030600
     24 C2C         0.4890   -2.3680    6.5850 cd        1 M1V     -0.032200
     25 CAC         0.4990   -2.1110    8.0340 c3        1 M1V     -0.034200
     26 CBC         0.6660   -3.3730    8.8630 c3        1 M1V     -0.191400
     27 CGC        -0.4880   -3.6110    9.8520 c         1 M1V      0.905600
     28 O2C        -1.6380   -3.1460    9.5880 o         1 M1V     -0.853300
     29 O1C        -0.2390   -4.2980   10.8840 o         1 M1V     -0.853300
     30 C3C        -0.4360   -3.1030    5.8780 cc        1 M1V     -0.247800
     31 CMC        -1.6200   -3.8010    6.3750 c3        1 M1V     -0.059900
     32 NC          1.0920   -2.3260    4.2860 nd        1 M1V     -0.624300
     33 C4C        -0.0080   -3.0600    4.4530 cc        1 M1V      0.465900
     34 CHC        -0.7500   -3.7540    3.4290 ce        1 M1V     -0.192600
     35 C1D        -0.3190   -4.0800    2.1910 cd        1 M1V      0.038600
     36 C2D        -1.1350   -4.8180    1.1730 cd        1 M1V     -0.042200
     37 CMD        -2.5130   -5.2320    1.4430 c3        1 M1V     -0.052900
     38 ND          0.9450   -3.8430    1.6060 ns        1 M1V     -0.478100
     39 C4D         0.9790   -4.3720    0.3060 c         1 M1V      0.697700
     40 OD          1.9570   -4.3310   -0.4540 o         1 M1V     -0.629500
     41 C3D        -0.3760   -4.9940    0.0550 cc        1 M1V     -0.187400
     42 CAD        -0.6890   -5.6610   -1.2170 c3        1 M1V     -0.011200
     43 CBD        -0.6630   -4.7010   -2.3850 c3        1 M1V     -0.094100
     44 H1          2.7890    1.9010   -3.3470 hc        1 M1V      0.044033
     45 H2          2.8940    0.1060   -3.5740 hc        1 M1V      0.044033
     46 H3          1.2980    0.8790   -3.1630 hc        1 M1V      0.044033
     47 H4          5.1440    0.2700   -2.5770 hc        1 M1V      0.053200
     48 H5          5.8090   -0.2830   -0.9860 hc        1 M1V      0.053200
     49 H6          5.4290    2.6670   -1.8700 hc        1 M1V      0.038033
     50 H7          6.9910    1.7490   -1.7960 hc        1 M1V      0.038033
     51 H8          6.0820    2.1220   -0.2710 hc        1 M1V      0.038033
     52 H9          5.6160    0.3860    1.2100 ha        1 M1V      0.149000
     53 H11         6.3370    2.3060    3.3490 hc        1 M1V      0.059700
     54 H12         7.1590    0.7290    3.0000 hc        1 M1V      0.059700
     55 H13         7.0810    1.3630    4.7160 hc        1 M1V      0.059700
     56 H14         4.6770   -0.0300    7.3190 hc        1 M1V      0.058700
     57 H15         6.3070   -0.0020    6.5230 hc        1 M1V      0.058700
     58 H16         5.1620    2.5580    5.9160 hc        1 M1V      0.031700
     59 H17         4.7330    2.2370    7.6420 hc        1 M1V      0.031700
     60 H19         2.5650   -0.9830    3.0430 hn        1 M1V      0.314700
     61 H20         2.7430   -0.7850    6.9070 ha        1 M1V      0.162000
     62 H22        -0.4890   -1.6390    8.3130 hc        1 M1V      0.060200
     63 H23         1.3080   -1.3780    8.2920 hc        1 M1V      0.060200
     64 H24         1.6230   -3.3240    9.4400 hc        1 M1V      0.033700
     65 H25         0.7150   -4.2750    8.2020 hc        1 M1V      0.033700
     66 H27        -1.7250   -3.6500    7.4890 hc        1 M1V      0.055700
     67 H28        -2.5430   -3.4160    5.8730 hc        1 M1V      0.055700
     68 H29        -1.5450   -4.8990    6.1700 hc        1 M1V      0.055700
     69 H31        -1.7700   -4.0560    3.7290 ha        1 M1V      0.147000
     70 H33        -2.9580   -5.7640    0.5660 hc        1 M1V      0.052033
     71 H34        -3.1460   -4.3370    1.6750 hc        1 M1V      0.052033
     72 H35        -2.5440   -5.9170    2.3290 hc        1 M1V      0.052033
     73 H36         0.0720   -6.4710   -1.3920 hc        1 M1V      0.043200
     74 H37        -1.6970   -6.1530   -1.1550 hc        1 M1V      0.043200
     75 H38        -1.4470   -3.9150   -2.2690 hc        1 M1V      0.039367
     76 H39        -0.8490   -5.2530   -3.3370 hc        1 M1V      0.039367
     77 H40         0.3350   -4.2000   -2.4450 hc        1 M1V      0.039367
     78 H41         1.7670    0.6900    1.5840 hn        1 M1V      0.336500
     79 H10         1.6750   -3.3410    2.0430 hn        1 M1V      0.363500
@<TRIPOS>BOND
     1    1    2 2   
     2    2    3 1   
     3    2    4 1   
     4    3    9 1   
     5    3   78 1   
     6    4    5 1   
     7    4    6 2   
     8    5   44 1   
     9    5   45 1   
    10    5   46 1   
    11    6    7 1   
    12    6    9 1   
    13    7    8 1   
    14    7   47 1   
    15    7   48 1   
    16    8   49 1   
    17    8   50 1   
    18    8   51 1   
    19    9   10 2   
    20   10   11 1   
    21   10   52 1   
    22   11   12 2   
    23   11   20 1   
    24   12   13 1   
    25   12   14 1   
    26   13   53 1   
    27   13   54 1   
    28   13   55 1   
    29   14   15 1   
    30   14   21 2   
    31   15   16 1   
    32   15   56 1   
    33   15   57 1   
    34   16   17 1   
    35   16   58 1   
    36   16   59 1   
    37   17   18 1   
    38   17   19 1   
    39   20   21 1   
    40   20   60 1   
    41   21   22 1   
    42   22   23 2   
    43   22   61 1   
    44   23   24 1   
    45   23   32 1   
    46   24   25 1   
    47   24   30 2   
    48   25   26 1   
    49   25   62 1   
    50   25   63 1   
    51   26   27 1   
    52   26   64 1   
    53   26   65 1   
    54   27   28 1   
    55   27   29 1   
    56   30   31 1   
    57   30   33 1   
    58   31   66 1   
    59   31   67 1   
    60   31   68 1   
    61   32   33 2   
    62   33   34 1   
    63   34   35 2   
    64   34   69 1   
    65   35   36 1   
    66   35   38 1   
    67   36   37 1   
    68   36   41 2   
    69   37   70 1   
    70   37   71 1   
    71   37   72 1   
    72   38   39 1   
    73   38   79 1   
    74   39   40 2   
    75   39   41 1   
    76   41   42 1   
    77   42   43 1   
    78   42   73 1   
    79   42   74 1   
    80   43   75 1   
    81   43   76 1   
    82   43   77 1   
@<TRIPOS>SUBSTRUCTURE
     1 M1V         1 TEMP              0 ****  ****    0 ROOT
