@<TRIPOS>MOLECULE
M1V
   79    82     1     0     0
SMALL
bcc


@<TRIPOS>ATOM
      1 OA          0.3680    0.9010   -0.6960 o         1 M1V     -0.628500
      2 C1A         1.5830    0.7340   -0.5230 c         1 M1V      0.690700
      3 NA          2.1920    0.4620    0.7210 n         1 M1V     -0.472100
      4 C2A         2.6820    0.7560   -1.5530 cc        1 M1V     -0.197400
      5 CMA         2.3980    0.9210   -2.9780 c3        1 M1V     -0.030900
      6 C3A         3.8730    0.6000   -0.9050 cd        1 M1V     -0.027200
      7 CAA         5.2230    0.5380   -1.4900 c3        1 M1V     -0.036200
      8 CBA         5.9710    1.8440   -1.3490 c3        1 M1V     -0.091100
      9 C4A         3.6060    0.4530    0.5550 cd        1 M1V     -0.027400
     10 CHA         4.5540    0.3180    1.5100 ce        1 M1V     -0.051200
     11 C1B         4.3610    0.1400    2.9170 cc        1 M1V     -0.127100
     12 C2B         5.2550    0.5660    3.9390 cd        1 M1V     -0.094300
     13 CMB         6.5240    1.2680    3.7360 c3        1 M1V     -0.062800
     14 C3B         4.6770    0.1970    5.1930 cd        1 M1V     -0.061300
     15 CAB         5.2850    0.4590    6.5090 c3        1 M1V     -0.022100
     16 CBB         5.4360    1.9380    6.8140 c3        1 M1V     -0.192400
     17 CGB         6.8700    2.3310    7.2080 c         1 M1V      0.905600
     18 O2B         7.0140    3.2940    8.0140 o         1 M1V     -0.853800
     19 O1B         7.8450    1.7070    6.6890 o         1 M1V     -0.853800
     20 NB          3.2640   -0.4700    3.5210 na        1 M1V     -0.149100
     21 C4B         3.4500   -0.4740    4.9070 cc        1 M1V     -0.111100
     22 CHB         2.5360   -1.0470    5.8510 ce        1 M1V      0.037800
     23 C1C         1.4720   -1.8470    5.5820 cd        1 M1V      0.030600
     24 C2C         0.4930   -2.3680    6.5860 cd        1 M1V     -0.032200
     25 CAC         0.5050   -2.1130    8.0350 c3        1 M1V     -0.034200
     26 CBC         0.6710   -3.3750    8.8630 c3        1 M1V     -0.191400
     27 CGC        -0.4820   -3.6130    9.8540 c         1 M1V      0.905600
     28 O2C        -1.6310   -3.1460    9.5920 o         1 M1V     -0.853300
     29 O1C        -0.2320   -4.3010   10.8850 o         1 M1V     -0.853300
     30 C3C        -0.4340   -3.1020    5.8800 cc        1 M1V     -0.247800
     31 CMC        -1.6190   -3.7990    6.3780 c3        1 M1V     -0.059900
     32 NC          1.0930   -2.3260    4.2860 nd        1 M1V     -0.624300
     33 C4C        -0.0080   -3.0580    4.4540 cc        1 M1V      0.465900
     34 CHC        -0.7520   -3.7510    3.4310 ce        1 M1V     -0.192600
     35 C1D        -0.3230   -4.0770    2.1920 cd        1 M1V      0.038600
     36 C2D        -1.1410   -4.8130    1.1750 cd        1 M1V     -0.042200
     37 CMD        -2.5200   -5.2260    1.4470 c3        1 M1V     -0.052900
     38 ND          0.9410   -3.8410    1.6050 n         1 M1V     -0.478100
     39 C4D         0.9730   -4.3700    0.3050 c         1 M1V      0.697700
     40 OD          1.9500   -4.3290   -0.4560 o         1 M1V     -0.629500
     41 C3D        -0.3840   -4.9900    0.0560 cc        1 M1V     -0.187400
     42 CAD        -0.6990   -5.6560   -1.2160 c3        1 M1V     -0.011200
     43 CBD        -0.6730   -4.6950   -2.3830 c3        1 M1V     -0.094100
     44 H1          1.2940    0.8840   -3.1600 hc        1 M1V      0.044033
     45 H2          2.7860    1.9050   -3.3450 hc        1 M1V      0.044033
     46 H3          2.8880    0.1100   -3.5750 hc        1 M1V      0.044033
     47 H4          5.1400    0.2720   -2.5800 hc        1 M1V      0.053200
     48 H5          5.8070   -0.2830   -0.9900 hc        1 M1V      0.053200
     49 H6          5.4280    2.6680   -1.8700 hc        1 M1V      0.038033
     50 H7          6.9890    1.7490   -1.7990 hc        1 M1V      0.038033
     51 H8          6.0820    2.1200   -0.2720 hc        1 M1V      0.038033
     52 H9          5.6170    0.3840    1.2070 ha        1 M1V      0.149000
     53 H11         7.0860    1.3560    4.7120 hc        1 M1V      0.059700
     54 H12         6.3420    2.3010    3.3460 hc        1 M1V      0.059700
     55 H13         7.1620    0.7230    2.9960 hc        1 M1V      0.059700
     56 H14         6.3140   -0.0100    6.5190 hc        1 M1V      0.058700
     57 H15         4.6840   -0.0370    7.3160 hc        1 M1V      0.058700
     58 H16         4.7430    2.2310    7.6420 hc        1 M1V      0.031700
     59 H17         5.1700    2.5520    5.9150 hc        1 M1V      0.031700
     60 H19         2.5660   -0.9840    3.0420 hn        1 M1V      0.314700
     61 H20         2.7490   -0.7890    6.9070 ha        1 M1V      0.162000
     62 H22        -0.4830   -1.6400    8.3160 hc        1 M1V      0.060200
     63 H23         1.3140   -1.3800    8.2930 hc        1 M1V      0.060200
     64 H24         1.6290   -3.3270    9.4390 hc        1 M1V      0.033700
     65 H25         0.7190   -4.2770    8.2010 hc        1 M1V      0.033700
     66 H27        -1.7220   -3.6480    7.4920 hc        1 M1V      0.055700
     67 H28        -2.5420   -3.4120    5.8780 hc        1 M1V      0.055700
     68 H29        -1.5460   -4.8960    6.1710 hc        1 M1V      0.055700
     69 H31        -1.7720   -4.0520    3.7320 ha        1 M1V      0.147000
     70 H33        -2.5510   -5.9110    2.3320 hc        1 M1V      0.052033
     71 H34        -2.9660   -5.7570    0.5700 hc        1 M1V      0.052033
     72 H35        -3.1510   -4.3300    1.6790 hc        1 M1V      0.052033
     73 H36         0.0610   -6.4670   -1.3920 hc        1 M1V      0.043200
     74 H37        -1.7080   -6.1470   -1.1530 hc        1 M1V      0.043200
     75 H38        -0.8610   -5.2470   -3.3360 hc        1 M1V      0.039367
     76 H39         0.3250   -4.1960   -2.4450 hc        1 M1V      0.039367
     77 H40        -1.4560   -3.9090   -2.2670 hc        1 M1V      0.039367
     78 H41         1.7680    0.6900    1.5850 hn        1 M1V      0.336500
     79 H10         1.6720   -3.3400    2.0420 hn        1 M1V      0.363500
@<TRIPOS>BOND
     1    1    2 2   
     2    2    3 1   
     3    2    4 1   
     4    3    9 1   
     5    3   78 1   
     6    4    5 1   
     7    4    6 2   
     8    5   44 1   
     9    5   45 1   
    10    5   46 1   
    11    6    7 1   
    12    6    9 1   
    13    7    8 1   
    14    7   47 1   
    15    7   48 1   
    16    8   49 1   
    17    8   50 1   
    18    8   51 1   
    19    9   10 2   
    20   10   11 1   
    21   10   52 1   
    22   11   12 2   
    23   11   20 1   
    24   12   13 1   
    25   12   14 1   
    26   13   53 1   
    27   13   54 1   
    28   13   55 1   
    29   14   15 1   
    30   14   21 2   
    31   15   16 1   
    32   15   56 1   
    33   15   57 1   
    34   16   17 1   
    35   16   58 1   
    36   16   59 1   
    37   17   18 1   
    38   17   19 1   
    39   20   21 1   
    40   20   60 1   
    41   21   22 1   
    42   22   23 2   
    43   22   61 1   
    44   23   24 1   
    45   23   32 1   
    46   24   25 1   
    47   24   30 2   
    48   25   26 1   
    49   25   62 1   
    50   25   63 1   
    51   26   27 1   
    52   26   64 1   
    53   26   65 1   
    54   27   28 1   
    55   27   29 1   
    56   30   31 1   
    57   30   33 1   
    58   31   66 1   
    59   31   67 1   
    60   31   68 1   
    61   32   33 2   
    62   33   34 1   
    63   34   35 2   
    64   34   69 1   
    65   35   36 1   
    66   35   38 1   
    67   36   37 1   
    68   36   41 2   
    69   37   70 1   
    70   37   71 1   
    71   37   72 1   
    72   38   39 1   
    73   38   79 1   
    74   39   40 2   
    75   39   41 1   
    76   41   42 1   
    77   42   43 1   
    78   42   73 1   
    79   42   74 1   
    80   43   75 1   
    81   43   76 1   
    82   43   77 1   
@<TRIPOS>SUBSTRUCTURE
     1 M1V         1 TEMP              0 ****  ****    0 ROOT
