@<TRIPOS>MOLECULE
M21
   41    40     1     0     0
SMALL
bcc


@<TRIPOS>ATOM
      1 C1         -7.7100    1.5070   -0.4650 c3        1 M21     -0.066900
      2 C2         -7.5040    0.4240    0.5160 c2        1 M21     -0.157200
      3 C3         -6.3590   -0.2520    0.6880 ce        1 M21     -0.142000
      4 C4         -5.1460   -0.0200   -0.0670 ce        1 M21     -0.141000
      5 C5         -4.0190   -0.7190    0.1280 c2        1 M21     -0.155200
      6 C6         -2.7790   -0.5040   -0.6550 c3        1 M21     -0.050200
      7 C7         -1.5500   -0.5110    0.2340 c3        1 M21     -0.076400
      8 C8         -0.2900   -0.3070   -0.5790 c3        1 M21     -0.079400
      9 C9          0.9390   -0.3160    0.3040 c3        1 M21     -0.079400
     10 C10         2.2000   -0.1120   -0.5070 c3        1 M21     -0.079400
     11 C11         3.4290   -0.1200    0.3770 c3        1 M21     -0.078400
     12 C12         4.6910    0.0840   -0.4350 c3        1 M21     -0.078400
     13 C13         5.9160    0.0740    0.4510 c3        1 M21     -0.084400
     14 C14         7.1740    0.2800   -0.3750 c3        1 M21      0.131400
     15 O           8.2710    0.2570    0.5250 oh        1 M21     -0.601800
     16 H11C       -7.5270    1.1390   -1.5060 hc        1 M21      0.042033
     17 H12C       -8.7550    1.8990   -0.4130 hc        1 M21      0.042033
     18 H13C       -7.0080    2.3560   -0.2700 hc        1 M21      0.042033
     19 H2         -8.3790    0.1770    1.1400 ha        1 M21      0.119000
     20 H3         -6.3060   -1.0480    1.4520 ha        1 M21      0.120000
     21 H4         -5.1920    0.7770   -0.8300 ha        1 M21      0.122000
     22 H5         -3.9640   -1.5130    0.8910 ha        1 M21      0.121000
     23 H61C       -2.6900   -1.3260   -1.4180 hc        1 M21      0.047700
     24 H62C       -2.8280    0.4650   -1.2200 hc        1 M21      0.047700
     25 H71C       -1.6390    0.3010    1.0020 hc        1 M21      0.042700
     26 H72C       -1.4900   -1.4850    0.7860 hc        1 M21      0.042700
     27 H81C       -0.2040   -1.1180   -1.3500 hc        1 M21      0.039700
     28 H82C       -0.3500    0.6680   -1.1300 hc        1 M21      0.039700
     29 H91C        0.8530    0.4940    1.0760 hc        1 M21      0.040700
     30 H92C        1.0000   -1.2910    0.8550 hc        1 M21      0.040700
     31 H101        2.2860   -0.9210   -1.2790 hc        1 M21      0.039700
     32 H102        2.1400    0.8650   -1.0580 hc        1 M21      0.039700
     33 H111        3.3440    0.6890    1.1490 hc        1 M21      0.041700
     34 H112        3.4900   -1.0960    0.9260 hc        1 M21      0.041700
     35 H121        4.7760   -0.7260   -1.2070 hc        1 M21      0.039700
     36 H122        4.6290    1.0600   -0.9850 hc        1 M21      0.039700
     37 H131        5.8440    0.8840    1.2230 hc        1 M21      0.055700
     38 H132        5.9900   -0.9000    1.0000 hc        1 M21      0.055700
     39 H141        7.2870   -0.5390   -1.1350 h1        1 M21      0.019700
     40 H142        7.1390    1.2670   -0.9100 h1        1 M21      0.019700
     41 H           9.0650    0.3890   -0.0060 ho        1 M21      0.398000
@<TRIPOS>BOND
     1    1    2 1   
     2    1   16 1   
     3    1   17 1   
     4    1   18 1   
     5    2    3 2   
     6    2   19 1   
     7    3    4 1   
     8    3   20 1   
     9    4    5 2   
    10    4   21 1   
    11    5    6 1   
    12    5   22 1   
    13    6    7 1   
    14    6   23 1   
    15    6   24 1   
    16    7    8 1   
    17    7   25 1   
    18    7   26 1   
    19    8    9 1   
    20    8   27 1   
    21    8   28 1   
    22    9   10 1   
    23    9   29 1   
    24    9   30 1   
    25   10   11 1   
    26   10   31 1   
    27   10   32 1   
    28   11   12 1   
    29   11   33 1   
    30   11   34 1   
    31   12   13 1   
    32   12   35 1   
    33   12   36 1   
    34   13   14 1   
    35   13   37 1   
    36   13   38 1   
    37   14   15 1   
    38   14   39 1   
    39   14   40 1   
    40   15   41 1   
@<TRIPOS>SUBSTRUCTURE
     1 M21         1 TEMP              0 ****  ****    0 ROOT
