@<TRIPOS>MOLECULE
M21
   41    40     1     0     0
SMALL
bcc


@<TRIPOS>ATOM
      1 C1          0.8540    1.1410   -0.4480 c3        1 M21     -0.066900
      2 C2         -0.0430    0.5320    0.5530 c2        1 M21     -0.155200
      3 C3          0.3320    0.1060    1.7680 ce        1 M21     -0.143000
      4 C4          1.6820    0.1800    2.2830 ce        1 M21     -0.145000
      5 C5          2.0620   -0.2440    3.4970 c2        1 M21     -0.153200
      6 C6          1.1590   -0.8540    4.5010 c3        1 M21     -0.052200
      7 C7          1.8910   -1.2270    5.7750 c3        1 M21     -0.078400
      8 C8          0.9480   -1.8470    6.7840 c3        1 M21     -0.079400
      9 C9          1.6760   -2.2210    8.0570 c3        1 M21     -0.079400
     10 C10         0.7340   -2.8410    9.0660 c3        1 M21     -0.079400
     11 C11         1.4620   -3.2140   10.3400 c3        1 M21     -0.078400
     12 C12         0.5200   -3.8350   11.3490 c3        1 M21     -0.078400
     13 C13         1.2510   -4.2060   12.6200 c3        1 M21     -0.084400
     14 C14         0.2960   -4.8280   13.6230 c3        1 M21      0.131400
     15 O           1.0550   -5.1460   14.7800 oh        1 M21     -0.601800
     16 H11C        1.6750    0.4320   -0.7270 hc        1 M21      0.042367
     17 H12C        0.2930    1.4080   -1.3770 hc        1 M21      0.042367
     18 H13C        1.3250    2.0720   -0.0440 hc        1 M21      0.042367
     19 H2         -1.0980    0.4340    0.2460 ha        1 M21      0.118000
     20 H3         -0.4190   -0.3370    2.4460 ha        1 M21      0.120000
     21 H4          2.4320    0.6230    1.6030 ha        1 M21      0.121000
     22 H5          3.1180   -0.1450    3.8020 ha        1 M21      0.121000
     23 H61C        0.3280   -0.1370    4.7450 hc        1 M21      0.050700
     24 H62C        0.6780   -1.7720    4.0660 hc        1 M21      0.050700
     25 H71C        2.7160   -1.9480    5.5370 hc        1 M21      0.041700
     26 H72C        2.3670   -0.3120    6.2170 hc        1 M21      0.041700
     27 H81C        0.1220   -1.1260    7.0200 hc        1 M21      0.039700
     28 H82C        0.4720   -2.7610    6.3410 hc        1 M21      0.039700
     29 H91C        2.1520   -1.3060    8.5000 hc        1 M21      0.040700
     30 H92C        2.5020   -2.9420    7.8200 hc        1 M21      0.040700
     31 H101        0.2580   -3.7560    8.6230 hc        1 M21      0.039700
     32 H102       -0.0920   -2.1200    9.3030 hc        1 M21      0.039700
     33 H111        2.2880   -3.9360   10.1030 hc        1 M21      0.041700
     34 H112        1.9380   -2.3000   10.7830 hc        1 M21      0.041700
     35 H121        0.0440   -4.7500   10.9050 hc        1 M21      0.039700
     36 H122       -0.3060   -3.1140   11.5850 hc        1 M21      0.039700
     37 H131        2.0750   -4.9330   12.3960 hc        1 M21      0.055700
     38 H132        1.7260   -3.2980   13.0750 hc        1 M21      0.055700
     39 H141       -0.1680   -5.7610   13.2030 h1        1 M21      0.019700
     40 H142       -0.5230   -4.1060   13.8900 h1        1 M21      0.019700
     41 H           0.4420   -5.5390   15.4110 ho        1 M21      0.398000
@<TRIPOS>BOND
     1    1    2 1   
     2    1   16 1   
     3    1   17 1   
     4    1   18 1   
     5    2    3 2   
     6    2   19 1   
     7    3    4 1   
     8    3   20 1   
     9    4    5 2   
    10    4   21 1   
    11    5    6 1   
    12    5   22 1   
    13    6    7 1   
    14    6   23 1   
    15    6   24 1   
    16    7    8 1   
    17    7   25 1   
    18    7   26 1   
    19    8    9 1   
    20    8   27 1   
    21    8   28 1   
    22    9   10 1   
    23    9   29 1   
    24    9   30 1   
    25   10   11 1   
    26   10   31 1   
    27   10   32 1   
    28   11   12 1   
    29   11   33 1   
    30   11   34 1   
    31   12   13 1   
    32   12   35 1   
    33   12   36 1   
    34   13   14 1   
    35   13   37 1   
    36   13   38 1   
    37   14   15 1   
    38   14   39 1   
    39   14   40 1   
    40   15   41 1   
@<TRIPOS>SUBSTRUCTURE
     1 M21         1 TEMP              0 ****  ****    0 ROOT
