@<TRIPOS>MOLECULE
M21
   41    40     1     0     0
SMALL
bcc


@<TRIPOS>ATOM
      1 C1          0.8800    1.1840   -0.4310 c3        1 M21     -0.066900
      2 C2         -0.0290    0.6170    0.5830 c2        1 M21     -0.155200
      3 C3          0.3450    0.1660    1.7890 ce        1 M21     -0.143000
      4 C4          1.7060    0.1670    2.2800 ce        1 M21     -0.145000
      5 C5          2.0850   -0.2820    3.4860 c2        1 M21     -0.153200
      6 C6          1.1700   -0.8500    4.5030 c3        1 M21     -0.052200
      7 C7          1.9040   -1.2660    5.7620 c3        1 M21     -0.078400
      8 C8          0.9480   -1.8420    6.7850 c3        1 M21     -0.079400
      9 C9          1.6790   -2.2580    8.0440 c3        1 M21     -0.079400
     10 C10         0.7240   -2.8350    9.0670 c3        1 M21     -0.079400
     11 C11         1.4540   -3.2500   10.3260 c3        1 M21     -0.078400
     12 C12         0.5000   -3.8280   11.3500 c3        1 M21     -0.078400
     13 C13         1.2330   -4.2410   12.6060 c3        1 M21     -0.084400
     14 C14         0.2650   -4.8190   13.6240 c3        1 M21      0.131400
     15 O           1.0270   -5.1800   14.7650 oh        1 M21     -0.601800
     16 H11C        1.6530    0.4330   -0.7330 hc        1 M21      0.042367
     17 H12C        0.3160    1.4910   -1.3450 hc        1 M21      0.042367
     18 H13C        1.4110    2.0830   -0.0290 hc        1 M21      0.042367
     19 H2         -1.0930    0.5750    0.2960 ha        1 M21      0.118000
     20 H3         -0.4160   -0.2420    2.4790 ha        1 M21      0.120000
     21 H4          2.4660    0.5740    1.5890 ha        1 M21      0.121000
     22 H5          3.1500   -0.2400    3.7720 ha        1 M21      0.121000
     23 H61C        0.3810   -0.0920    4.7650 hc        1 M21      0.050700
     24 H62C        0.6350   -1.7410    4.0730 hc        1 M21      0.050700
     25 H71C        2.6870   -2.0270    5.5080 hc        1 M21      0.041700
     26 H72C        2.4330   -0.3790    6.2000 hc        1 M21      0.041700
     27 H81C        0.1640   -1.0810    7.0390 hc        1 M21      0.039700
     28 H82C        0.4180   -2.7290    6.3480 hc        1 M21      0.039700
     29 H91C        2.2080   -1.3710    8.4820 hc        1 M21      0.040700
     30 H92C        2.4630   -3.0190    7.7900 hc        1 M21      0.040700
     31 H101        0.1940   -3.7220    8.6300 hc        1 M21      0.039700
     32 H102       -0.0610   -2.0740    9.3210 hc        1 M21      0.039700
     33 H111        2.2390   -4.0110   10.0730 hc        1 M21      0.041700
     34 H112        1.9830   -2.3640   10.7650 hc        1 M21      0.041700
     35 H121       -0.0290   -4.7150   10.9110 hc        1 M21      0.039700
     36 H122       -0.2850   -3.0670   11.6030 hc        1 M21      0.039700
     37 H131        2.0160   -5.0070   12.3650 hc        1 M21      0.055700
     38 H132        1.7600   -3.3600   13.0560 hc        1 M21      0.055700
     39 H141       -0.2530   -5.7250   13.2070 h1        1 M21      0.019700
     40 H142       -0.5120   -4.0590   13.9070 h1        1 M21      0.019700
     41 H           0.4060   -5.5450   15.4060 ho        1 M21      0.398000
@<TRIPOS>BOND
     1    1    2 1   
     2    1   16 1   
     3    1   17 1   
     4    1   18 1   
     5    2    3 2   
     6    2   19 1   
     7    3    4 1   
     8    3   20 1   
     9    4    5 2   
    10    4   21 1   
    11    5    6 1   
    12    5   22 1   
    13    6    7 1   
    14    6   23 1   
    15    6   24 1   
    16    7    8 1   
    17    7   25 1   
    18    7   26 1   
    19    8    9 1   
    20    8   27 1   
    21    8   28 1   
    22    9   10 1   
    23    9   29 1   
    24    9   30 1   
    25   10   11 1   
    26   10   31 1   
    27   10   32 1   
    28   11   12 1   
    29   11   33 1   
    30   11   34 1   
    31   12   13 1   
    32   12   35 1   
    33   12   36 1   
    34   13   14 1   
    35   13   37 1   
    36   13   38 1   
    37   14   15 1   
    38   14   39 1   
    39   14   40 1   
    40   15   41 1   
@<TRIPOS>SUBSTRUCTURE
     1 M21         1 TEMP              0 ****  ****    0 ROOT
