@<TRIPOS>MOLECULE
M22
   41    44     1     0     0
SMALL
bcc


@<TRIPOS>ATOM
      1 C          -0.8080   -0.7690    0.5230 ca        1 M22      0.112100
      2 C1          0.3840   -0.1760    0.0660 ca        1 M22     -0.029600
      3 C2          1.2170    0.4660    0.9860 ca        1 M22     -0.081000
      4 C3          0.8790    0.5230    2.3360 ca        1 M22     -0.199000
      5 C4         -0.3100   -0.0710    2.7770 ca        1 M22      0.141100
      6 C5         -1.1680   -0.7220    1.8710 ca        1 M22     -0.150000
      7 C6         -3.0140   -1.6240   -2.2010 ca        1 M22     -0.123000
      8 C7         -2.4700   -0.8540   -1.1590 ca        1 M22      0.127100
      9 C8         -2.8270    0.4840   -0.9730 ca        1 M22     -0.149000
     10 C9         -3.7510    1.0630   -1.8540 ca        1 M22      0.023000
     11 C10        -4.3100    0.3160   -2.8980 ca        1 M22     -0.117000
     12 C11        -3.9350   -1.0220   -3.0580 ca        1 M22      0.035400
     13 O          -1.6030   -1.5480   -0.3210 os        1 M22     -0.238200
     14 CL         -4.6110   -1.9310   -4.3230 cl        1 M22     -0.074400
     15 O12        -0.7550   -0.0730    4.0810 os        1 M22     -0.310900
     16 C13         0.1270    0.5330    5.0420 c3        1 M22      0.130100
     17 C14        -0.5120    0.3730    6.3720 cc        1 M22      0.320900
     18 N          -0.6830   -0.8090    7.0160 nd        1 M22     -0.474100
     19 N15        -1.2400   -0.5650    8.2030 na        1 M22     -0.013100
     20 C16        -1.0360    1.4630    7.1890 ca        1 M22     -0.195900
     21 C17        -1.5230    0.8020    8.3790 ca        1 M22     -0.054200
     22 C18        -2.1070    1.5260    9.4280 ca        1 M22     -0.136000
     23 C19        -2.2010    2.9000    9.2730 ca        1 M22     -0.099000
     24 C20        -1.7300    3.5520    8.1160 ca        1 M22     -0.153000
     25 C21        -1.1470    2.8470    7.0740 ca        1 M22     -0.067000
     26 CL2         0.8340   -0.2260   -1.5680 cl        1 M22     -0.066400
     27 C23        -4.1240    2.4250   -1.6830 cg        1 M22      0.231800
     28 N24        -4.4290    3.5380   -1.5430 n1        1 M22     -0.352800
     29 H2          2.1550    0.9310    0.6420 ha        1 M22      0.154000
     30 H3          1.5540    1.0350    3.0360 ha        1 M22      0.147000
     31 H5         -2.0950   -1.1950    2.2240 ha        1 M22      0.174000
     32 H8         -2.3900    1.0720   -0.1520 ha        1 M22      0.163000
     33 H10        -5.0350    0.7790   -3.5840 ha        1 M22      0.162000
     34 H13         0.2380    1.6250    4.8030 h1        1 M22      0.056700
     35 H13A        1.1260    0.0210    5.0060 h1        1 M22      0.056700
     36 HN15       -1.5810   -1.3150    8.7560 hn        1 M22      0.326700
     37 H18        -2.4740    1.0240   10.3320 ha        1 M22      0.141000
     38 H19        -2.6580    3.5030   10.0730 ha        1 M22      0.136000
     39 H20        -1.8320    4.6450    8.0450 ha        1 M22      0.137000
     40 H21        -0.7820    3.3630    6.1740 ha        1 M22      0.138000
     41 H6         -2.7110   -2.6750   -2.3200 ha        1 M22      0.172000
@<TRIPOS>BOND
     1    1    2 ar  
     2    1    6 ar  
     3    1   13 1   
     4    2    3 ar  
     5    2   26 1   
     6    3    4 ar  
     7    3   29 1   
     8    4    5 ar  
     9    4   30 1   
    10    5    6 ar  
    11    5   15 1   
    12    6   31 1   
    13    7    8 ar  
    14    7   12 ar  
    15    7   41 1   
    16    8    9 ar  
    17    8   13 1   
    18    9   10 ar  
    19    9   32 1   
    20   10   11 ar  
    21   10   27 1   
    22   11   12 ar  
    23   11   33 1   
    24   12   14 1   
    25   15   16 1   
    26   16   17 1   
    27   16   34 1   
    28   16   35 1   
    29   17   18 2   
    30   17   20 1   
    31   18   19 1   
    32   19   21 1   
    33   19   36 1   
    34   20   21 ar  
    35   20   25 ar  
    36   21   22 ar  
    37   22   23 ar  
    38   22   37 1   
    39   23   24 ar  
    40   23   38 1   
    41   24   25 ar  
    42   24   39 1   
    43   25   40 1   
    44   27   28 3   
@<TRIPOS>SUBSTRUCTURE
     1 M22         1 TEMP              0 ****  ****    0 ROOT
