@<TRIPOS>MOLECULE
M22
   41    44     1     0     0
SMALL
bcc


@<TRIPOS>ATOM
      1 C           0.0000    0.0000    0.0000 ca        1 M22      0.183100
      2 C1          1.3880    0.0000    0.0000 ca        1 M22     -0.116600
      3 C2          2.0810    0.0000    1.1970 ca        1 M22     -0.015000
      4 C3          1.3930   -0.0010    2.3950 ca        1 M22     -0.241000
      5 C4          0.0050   -0.0030    2.4010 ca        1 M22      0.199100
      6 C5         -0.6920   -0.0000    1.2020 ca        1 M22     -0.238000
      7 C6         -2.7460   -1.1710   -1.1030 ca        1 M22     -0.098000
      8 C7         -2.0380    0.0230   -1.1280 ca        1 M22      0.117100
      9 C8         -2.7150    1.2310   -1.1030 ca        1 M22     -0.091000
     10 C9         -4.1090    1.2440   -1.0530 ca        1 M22      0.055000
     11 C10        -4.8140    0.0390   -1.0290 ca        1 M22     -0.077000
     12 C11        -4.1290   -1.1610   -1.0540 ca        1 M22     -0.030600
     13 O          -0.6800    0.0060   -1.1760 os        1 M22     -0.210200
     14 Cl         -5.0060   -2.6580   -1.0240 cl        1 M22      0.000600
     15 O12        -0.6700   -0.0040    3.5790 os        1 M22     -0.295900
     16 C13         0.1110   -0.0050    4.7760 c3        1 M22      0.214100
     17 C14        -0.8030   -0.0070    5.9740 cc        1 M22      0.369900
     18 N          -1.2680   -1.0600    6.5830 nd        1 M22     -0.606100
     19 N15        -2.0830   -0.6750    7.6530 na        1 M22      0.419900
     20 C16        -1.3210    1.1720    6.6620 ca        1 M22     -0.242900
     21 C17        -2.1280    0.6930    7.7120 ca        1 M22     -0.187200
     22 C18        -2.7690    1.6020    8.5510 ca        1 M22     -0.117000
     23 C19        -2.6130    2.9430    8.3450 ca        1 M22     -0.055000
     24 C20        -1.8210    3.4170    7.3070 ca        1 M22     -0.141000
     25 C21        -1.1710    2.5500    6.4770 ca        1 M22     -0.018000
     26 Cl2         2.2570    0.0010   -1.5030 cl        1 M22     -0.005400
     27 C23        -4.8160    2.4900   -1.0260 cg        1 M22      0.223800
     28 N24        -5.3880    3.4710   -0.9910 n1        1 M22     -0.364800
     29 H2          3.1640   -0.0000    1.1970 ha        1 M22      0.114000
     30 H3          1.9370   -0.0010    3.3320 ha        1 M22      0.127000
     31 H5         -1.7750   -0.0000    1.2040 ha        1 M22      0.139000
     32 H8         -2.1620    2.1630   -1.1220 ha        1 M22      0.131000
     33 H10        -5.8960    0.0450   -0.9900 ha        1 M22      0.127000
     34 H13         0.7360    0.8800    4.8000 h1        1 M22      0.012200
     35 H13A        0.7370   -0.8890    4.7980 h1        1 M22      0.012200
     36 HN15       -2.5610   -1.2920    8.2790 hn        1 M22      0.154700
     37 H18        -3.3900    1.2450    9.3630 ha        1 M22      0.105000
     38 H19        -3.1100    3.6530    8.9960 ha        1 M22      0.102000
     39 H20        -1.7060    4.4840    7.1560 ha        1 M22      0.107000
     40 H21        -0.5520    2.9240    5.6710 ha        1 M22      0.103000
     41 H6         -2.2160   -2.1150   -1.1230 ha        1 M22      0.133000
@<TRIPOS>BOND
     1    1    2 ar  
     2    1    6 ar  
     3    1   13 1   
     4    2    3 ar  
     5    2   26 1   
     6    3    4 ar  
     7    3   29 1   
     8    4    5 ar  
     9    4   30 1   
    10    5    6 ar  
    11    5   15 1   
    12    6   31 1   
    13    7    8 ar  
    14    7   12 ar  
    15    7   41 1   
    16    8    9 ar  
    17    8   13 1   
    18    9   10 ar  
    19    9   32 1   
    20   10   11 ar  
    21   10   27 1   
    22   11   12 ar  
    23   11   33 1   
    24   12   14 1   
    25   15   16 1   
    26   16   17 1   
    27   16   34 1   
    28   16   35 1   
    29   17   18 2   
    30   17   20 1   
    31   18   19 1   
    32   19   21 1   
    33   19   36 1   
    34   20   21 ar  
    35   20   25 ar  
    36   21   22 ar  
    37   22   23 ar  
    38   22   37 1   
    39   23   24 ar  
    40   23   38 1   
    41   24   25 ar  
    42   24   39 1   
    43   25   40 1   
    44   27   28 3   
@<TRIPOS>SUBSTRUCTURE
     1 M22         1 TEMP              0 ****  ****    0 ROOT
