@<TRIPOS>MOLECULE
M22
   41    34     1     0     0
SMALL
bcc


@<TRIPOS>ATOM
      1 C           0.6570    1.6420   -2.4350 c1        1 M22      0.103100
      2 C1          2.0360    1.7800   -2.4090 c1        1 M22      0.014400
      3 C2          2.7020    1.8650   -1.1950 c1        1 M22     -0.041500
      4 C3          1.9880    1.8100   -0.0070 c1        1 M22     -0.141500
      5 C4          0.6090    1.6720   -0.0330 c1        1 M22      0.124600
      6 C5         -0.0570    1.5870   -1.2470 c1        1 M22     -0.079000
      7 C6          1.2890    0.3900   -5.2770 c1        1 M22     -0.079000
      8 C7          0.2600    0.4300   -4.3480 c1        1 M22      0.103100
      9 C8         -0.5470   -0.6820   -4.1610 c1        1 M22     -0.091500
     10 C9         -0.3250   -1.8330   -4.9020 cg        1 M22      0.027000
     11 C10         0.7040   -1.8720   -5.8300 c1        1 M22     -0.041500
     12 C11         1.5110   -0.7610   -6.0170 c1        1 M22      0.014400
     13 O          -0.0250    1.6290   -3.6660 os        1 M22     -0.205200
     14 CL          2.8210   -0.8180   -7.1680 cl        1 M22     -0.081900
     15 O12        -0.1240    1.6970    1.1710 os        1 M22     -0.294400
     16 C13         0.3250    0.7670    2.1330 c3        1 M22      0.130100
     17 C14        -0.7460    0.5760    3.1910 ce        1 M22      0.141900
     18 N          -1.9050    1.2450    2.9860 n1        1 M22     -0.173400
     19 N15        -2.8030    0.8490    3.9530 ne        1 M22     -0.236000
     20 C16        -0.9150   -0.2460    4.2920 cg        1 M22     -0.142200
     21 C17        -2.1840   -0.0710    4.7550 cg        1 M22      0.043000
     22 C18        -2.6250   -0.7850    5.8860 c1        1 M22     -0.078500
     23 C19        -1.7690   -1.6650    6.5270 c1        1 M22     -0.068500
     24 C20        -0.4790   -1.8430    6.0570 c1        1 M22     -0.068500
     25 C21        -0.0450   -1.1400    4.9440 c1        1 M22     -0.009500
     26 CL2         2.9240    1.9420   -3.9010 cl        1 M22     -0.081900
     27 C23        -1.2510   -3.0200   -4.7490 cg        1 M22      0.227800
     28 N24        -1.9480   -3.9150   -4.6340 n1        1 M22     -0.352800
     29 H2          3.6730    1.9630   -1.1760 ha        1 M22      0.100500
     30 H3          2.4560    1.8700    0.8470 ha        1 M22      0.089500
     31 H5         -1.0280    1.4890   -1.2650 ha        1 M22      0.115500
     32 H6          1.8580    1.1730   -5.4090 ha        1 M22      0.115500
     33 H8         -1.2710   -0.6540   -3.5080 ha        1 M22      0.105500
     34 H10         0.8610   -2.6820   -6.3520 ha        1 M22      0.100500
     35 H13         1.1440    1.1030    2.5550 h1        1 M22      0.056700
     36 H13A        0.5100   -0.0900    1.6970 h1        1 M22      0.056700
     37 HN15       -3.6600    1.1490    4.0430 DU        1 M22      0.277000
     38 H18        -3.5350   -0.6600    6.2180 ha        1 M22      0.083500
     39 H19        -2.0750   -2.1600    7.3120 ha        1 M22      0.079000
     40 H20         0.1240   -2.4630    6.5090 ha        1 M22      0.079000
     41 H21         0.8640   -1.2660    4.6120 ha        1 M22      0.080500
@<TRIPOS>BOND
     1    1    6 3   
     2    1   13 1   
     3    2    3 3   
     4    2   26 1   
     5    3   29 1   
     6    4    5 3   
     7    4   30 1   
     8    5   15 1   
     9    6   31 1   
    10    7    8 3   
    11    7   32 1   
    12    8   13 1   
    13    9   10 3   
    14    9   33 1   
    15   10   27 1   
    16   11   12 3   
    17   11   34 1   
    18   12   14 1   
    19   15   16 1   
    20   16   17 1   
    21   16   35 1   
    22   16   36 1   
    23   17   18 2   
    24   17   20 1   
    25   18   19 2   
    26   19   21 1   
    27   20   25 3   
    28   21   22 3   
    29   22   38 1   
    30   23   24 3   
    31   23   39 1   
    32   24   40 1   
    33   25   41 1   
    34   27   28 3   
@<TRIPOS>SUBSTRUCTURE
     1 M22         1 TEMP              0 ****  ****    0 ROOT
