@<TRIPOS>MOLECULE
M22
   41    44     1     0     0
SMALL
bcc


@<TRIPOS>ATOM
      1 C          -1.6330   -0.9850    0.7620 ca        1 M22      0.112100
      2 C1         -1.8850   -2.1710    0.0470 ca        1 M22     -0.029600
      3 C2         -0.8060   -2.8920   -0.4720 ca        1 M22     -0.081000
      4 C3          0.5020   -2.4480   -0.2900 ca        1 M22     -0.199000
      5 C4          0.7390   -1.2660    0.4240 ca        1 M22      0.141100
      6 C5         -0.3300   -0.5210    0.9540 ca        1 M22     -0.150000
      7 C6         -4.6360    0.9520    1.2550 ca        1 M22     -0.123000
      8 C7         -3.4410    0.5350    0.6440 ca        1 M22      0.127100
      9 C8         -3.0730    0.9840   -0.6270 ca        1 M22     -0.149000
     10 C9         -3.9250    1.8700   -1.3010 ca        1 M22      0.023000
     11 C10        -5.1190    2.3030   -0.7120 ca        1 M22     -0.117000
     12 C11        -5.4600    1.8390    0.5640 ca        1 M22      0.035400
     13 O          -2.6550   -0.3040    1.4260 os        1 M22     -0.238200
     14 CL         -6.9080    2.3620    1.2810 cl        1 M22     -0.074400
     15 O12         1.9830   -0.7230    0.6610 os        1 M22     -0.310900
     16 C13         3.1000   -1.4910    0.1820 c3        1 M22      0.130100
     17 C14         4.3270   -0.7620    0.5890 cc        1 M22      0.320900
     18 N           4.7560   -0.6130    1.8670 nd        1 M22     -0.474100
     19 N15         5.9160    0.0480    1.8480 na        1 M22     -0.013100
     20 C16         5.2620   -0.1130   -0.3260 ca        1 M22     -0.195900
     21 C17         6.2830    0.4240    0.5440 ca        1 M22     -0.054200
     22 C18         7.3810    1.1290    0.0300 ca        1 M22     -0.136000
     23 C19         7.4410    1.2920   -1.3450 ca        1 M22     -0.099000
     24 C20         6.4490    0.7730   -2.2000 ca        1 M22     -0.153000
     25 C21         5.3610    0.0700   -1.7040 ca        1 M22     -0.067000
     26 CL2        -3.4610   -2.7480   -0.1940 cl        1 M22     -0.066400
     27 C23        -3.5700    2.3350   -2.5970 cg        1 M22      0.231800
     28 N24        -3.2790    2.7150   -3.6570 n1        1 M22     -0.352800
     29 H2         -0.9890   -3.8240   -1.0300 ha        1 M22      0.154000
     30 H3          1.3310   -3.0360   -0.7080 ha        1 M22      0.147000
     31 H5         -0.1380    0.4010    1.5220 ha        1 M22      0.174000
     32 H8         -2.1350    0.6460   -1.0910 ha        1 M22      0.163000
     33 H10        -5.7820    3.0000   -1.2480 ha        1 M22      0.162000
     34 H13         3.0680   -2.5190    0.6340 h1        1 M22      0.056700
     35 H13A        3.0500   -1.5560   -0.9380 h1        1 M22      0.056700
     36 HN15        6.3100    0.3860    2.6940 hn        1 M22      0.326700
     37 H18         8.1590    1.5340    0.6900 ha        1 M22      0.141000
     38 H19         8.2860    1.8440   -1.7860 ha        1 M22      0.136000
     39 H20         6.5460    0.9330   -3.2840 ha        1 M22      0.137000
     40 H21         4.5900   -0.3320   -2.3770 ha        1 M22      0.138000
     41 H6         -4.8960    0.5790    2.2570 ha        1 M22      0.172000
@<TRIPOS>BOND
     1    1    2 ar  
     2    1    6 ar  
     3    1   13 1   
     4    2    3 ar  
     5    2   26 1   
     6    3    4 ar  
     7    3   29 1   
     8    4    5 ar  
     9    4   30 1   
    10    5    6 ar  
    11    5   15 1   
    12    6   31 1   
    13    7    8 ar  
    14    7   12 ar  
    15    7   41 1   
    16    8    9 ar  
    17    8   13 1   
    18    9   10 ar  
    19    9   32 1   
    20   10   11 ar  
    21   10   27 1   
    22   11   12 ar  
    23   11   33 1   
    24   12   14 1   
    25   15   16 1   
    26   16   17 1   
    27   16   34 1   
    28   16   35 1   
    29   17   18 2   
    30   17   20 1   
    31   18   19 1   
    32   19   21 1   
    33   19   36 1   
    34   20   21 ar  
    35   20   25 ar  
    36   21   22 ar  
    37   22   23 ar  
    38   22   37 1   
    39   23   24 ar  
    40   23   38 1   
    41   24   25 ar  
    42   24   39 1   
    43   25   40 1   
    44   27   28 3   
@<TRIPOS>SUBSTRUCTURE
     1 M22         1 TEMP              0 ****  ****    0 ROOT
