@<TRIPOS>MOLECULE
M23
   40    42     1     0     0
SMALL
bcc


@<TRIPOS>ATOM
      1 BR          4.3450   -1.8710   -0.4020 br        1 M23     -0.087100
      2 C1         -4.6650   -0.3490   -0.8560 ca        1 M23      0.720200
      3 N2         -5.3450   -1.0910    0.0400 nb        1 M23     -0.821000
      4 C3         -4.6200   -1.5990    1.1310 ca        1 M23      0.897900
      5 N4         -3.2940   -1.3900    1.3730 nb        1 M23     -0.786000
      6 C5         -2.6080   -0.6510    0.4400 ca        1 M23      0.475600
      7 C6         -3.2330   -0.0930   -0.7150 ca        1 M23     -0.321600
      8 C7         -2.4660    0.6660   -1.6250 ca        1 M23     -0.086000
      9 C8         -1.1170    0.8770   -1.4280 ca        1 M23     -0.081300
     10 C9         -0.4820    0.3200   -0.2800 cp        1 M23      0.011000
     11 C10        -1.2060   -0.4220    0.6270 ca        1 M23     -0.181300
     12 N12        -5.3260   -2.4470    1.9990 nh        1 M23     -0.922500
     13 C13        -0.3290    1.6790   -2.3930 c3        1 M23     -0.052800
     14 C14         0.9570    0.5100   -0.0600 cp        1 M23     -0.073000
     15 C15         1.4940    1.7350    0.4020 ca        1 M23      0.158100
     16 C16         2.8720    1.8660    0.6210 ca        1 M23     -0.212000
     17 C17         3.7200    0.7890    0.3800 ca        1 M23     -0.064000
     18 C18         3.2030   -0.4240   -0.0780 ca        1 M23     -0.065900
     19 C19         1.8280   -0.5580   -0.2920 ca        1 M23     -0.060000
     20 C22         1.0820    3.9220    1.2690 c3        1 M23      0.126400
     21 C23        -0.1240    4.7990    1.5100 c3        1 M23     -0.101100
     22 H7         -2.9400    1.1150   -2.5120 ha        1 M23      0.124000
     23 H10        -0.7140   -0.8510    1.5150 ha        1 M23      0.156000
     24 HN11       -6.3090   -0.0660   -2.0500 hn        1 M23      0.421800
     25 HN1A       -4.8530    0.4560   -2.7150 hn        1 M23      0.421800
     26 HN12       -6.3150   -2.3560    1.9910 hn        1 M23      0.420800
     27 HN1B       -4.9140   -2.5920    2.8930 hn        1 M23      0.420800
     28 H13         0.1740    2.5260   -1.8590 hc        1 M23      0.047033
     29 H13A        0.4620    1.0460   -2.8680 hc        1 M23      0.047033
     30 H13B       -0.9770    2.1010   -3.1990 hc        1 M23      0.047033
     31 H16         3.2980    2.8130    0.9820 ha        1 M23      0.143000
     32 H17         4.8010    0.9050    0.5550 ha        1 M23      0.147000
     33 H19         1.4100   -1.5160   -0.6460 ha        1 M23      0.156000
     34 H22         1.5670    3.6210    2.2350 h1        1 M23      0.039700
     35 H22A        1.8340    4.4360    0.6130 h1        1 M23      0.039700
     36 H23        -0.6130    5.0660    0.5430 hc        1 M23      0.051367
     37 H23A       -0.8730    4.2680    2.1460 hc        1 M23      0.051367
     38 H23B        0.2020    5.7320    2.0280 hc        1 M23      0.051367
     39 O21         0.5890    2.7560    0.5920 os        1 M23     -0.319900
     40 N11        -5.3730    0.2350   -1.9000 nh        1 M23     -0.943500
@<TRIPOS>BOND
     1    1   18 1   
     2    2    3 ar  
     3    2    7 ar  
     4    2   40 1   
     5    3    4 ar  
     6    4    5 ar  
     7    4   12 1   
     8    5    6 ar  
     9    6    7 ar  
    10    6   11 ar  
    11    7    8 ar  
    12    8    9 ar  
    13    8   22 1   
    14    9   10 ar  
    15    9   13 1   
    16   10   11 ar  
    17   10   14 1   
    18   11   23 1   
    19   12   26 1   
    20   12   27 1   
    21   13   28 1   
    22   13   29 1   
    23   13   30 1   
    24   14   15 ar  
    25   14   19 ar  
    26   15   16 ar  
    27   15   39 1   
    28   16   17 ar  
    29   16   31 1   
    30   17   18 ar  
    31   17   32 1   
    32   18   19 ar  
    33   19   33 1   
    34   20   21 1   
    35   20   34 1   
    36   20   35 1   
    37   20   39 1   
    38   21   36 1   
    39   21   37 1   
    40   21   38 1   
    41   24   40 1   
    42   25   40 1   
@<TRIPOS>SUBSTRUCTURE
     1 M23         1 TEMP              0 ****  ****    0 ROOT
