@<TRIPOS>MOLECULE
M23
   40    40     1     0     0
SMALL
bcc


@<TRIPOS>ATOM
      1 BR          1.2220    1.3220   -1.9270 br        1 M23      0.102000
      2 C1          8.1930    0.0170   -4.1770 c2        1 M23      0.101000
      3 N2          8.1050    0.9830   -5.1940 n2        1 M23     -0.284000
      4 C3          7.1550    1.9430   -5.0890 c2        1 M23      0.183000
      5 N4          6.2630    2.1450   -4.0210 n2        1 M23     -0.331000
      6 C5          6.3210    1.2190   -3.0400 c2        1 M23      0.038000
      7 C6          7.2300    0.1230   -3.0410 c2        1 M23     -0.157000
      8 C7          7.2420   -0.8670   -1.9700 c3        1 M23     -0.157000
      9 C8          6.2750   -0.6900   -0.8930 c2        1 M23     -0.061000
     10 C9          5.4050    0.3860   -0.8780 c2        1 M23     -0.090000
     11 C10         5.4320    1.3330   -1.9220 c2        1 M23      0.067000
     12 N12         7.0000    2.8160   -6.1870 nh        1 M23     -0.317000
     13 C13         5.9750   -2.3570    1.6960 c1        1 M23     -0.145000
     14 C14         4.5100    0.6200    0.2370 c2        1 M23     -0.151000
     15 C15         4.3490   -0.4290    1.2770 c2        1 M23      0.332000
     16 C16         3.3010   -1.3810    0.6650 c3        1 M23     -0.195000
     17 C17         2.3810   -0.7660   -0.3480 c2        1 M23     -0.106000
     18 C18         2.3780    0.5520   -0.7050 c2        1 M23     -0.174000
     19 C19         3.3070    1.3070    0.1280 c2        1 M23     -0.116000
     20 C22         7.6350    0.0270    4.2190 c3        1 M23     -0.311000
     21 C23         7.8490   -1.3940    4.2590 c1        1 M23     -0.087000
     22 H7          8.2770   -0.8980   -1.4970 hc        1 M23      0.189000
     23 H10         4.7390    2.1950   -1.8780 ha        1 M23      0.173000
     24 HN11        9.0930   -1.5560   -3.4950 hn        1 M23      0.101000
     25 HN1A        7.0880   -1.9030   -2.4140 hc        1 M23      0.189000
     26 HN12        7.7790    2.8620   -6.8040 hn        1 M23      0.206000
     27 HN1B        6.5810    3.6930   -5.9760 hn        1 M23      0.206000
     28 H13         5.2750   -3.0420    2.1910 ha        1 M23      0.066000
     29 H13A        6.2590   -1.4490   -0.0670 ha        1 M23      0.215000
     30 H13B        6.8110   -2.0440    2.3410 ha        1 M23      0.066000
     31 H16         3.8880   -2.2090    0.1760 hc        1 M23      0.141000
     32 H17         1.6430   -1.4700   -0.7670 ha        1 M23      0.159000
     33 H19         2.9060    1.9690    0.9060 ha        1 M23      0.165000
     34 H22         2.6900   -1.8300    1.4940 hc        1 M23      0.141000
     35 H22A        8.3180    0.4660    3.4400 hc        1 M23      0.120000
     36 H23         6.5820    0.1860    3.8420 hc        1 M23      0.120000
     37 H23A        7.7670    0.5970    5.1730 hc        1 M23      0.120000
     38 H23B        8.0830   -1.8460    5.2340 ha        1 M23      0.045000
     39 O21         4.8090   -0.5260    2.4150 o         1 M23     -0.287000
     40 N11         9.1060   -0.9210   -4.2650 n2        1 M23     -0.279000
@<TRIPOS>BOND
     1    1   18 1   
     2    2    3 1   
     3    2    7 1   
     4    2   40 1   
     5    3    4 1   
     6    4    5 1   
     7    4   12 1   
     8    5    6 1   
     9    6    7 1   
    10    6   11 1   
    11    7    8 1   
    12    8    9 1   
    13    8   22 1   
    14    8   25 1   
    15    9   10 1   
    16    9   29 1   
    17   10   11 1   
    18   10   14 1   
    19   11   23 1   
    20   12   26 1   
    21   12   27 1   
    22   13   28 1   
    23   13   30 1   
    24   14   15 1   
    25   14   19 1   
    26   15   16 1   
    27   15   39 1   
    28   16   17 1   
    29   16   31 1   
    30   16   34 1   
    31   17   18 1   
    32   17   32 1   
    33   18   19 1   
    34   19   33 1   
    35   20   21 1   
    36   20   35 1   
    37   20   36 1   
    38   20   37 1   
    39   21   38 1   
    40   24   40 1   
@<TRIPOS>SUBSTRUCTURE
     1 M23         1 TEMP              0 ****  ****    0 ROOT
