@<TRIPOS>MOLECULE
M23
   40    54     1     0     0
SMALL
bcc


@<TRIPOS>ATOM
      1 Br          0.0000    0.0000    0.0000 br        1 M23      0.104000
      2 C1          8.2980   -0.0190   -3.8730 c3        1 M23      0.272000
      3 N2          8.4040    1.0460   -4.6540 n2        1 M23     -0.324000
      4 C3          7.5740    2.0780   -4.5360 DU        1 M23     -0.003000
      5 N4          6.6000    2.1130   -3.6470 n2        1 M23     -0.116000
      6 C5          6.4090    1.0830   -2.8080 c3        1 M23      0.299000
      7 C6          7.2700   -0.0390   -2.8970 c2        1 M23     -0.572000
      8 C7          7.0930   -1.1280   -2.0340 c2        1 M23     -0.242000
      9 C8          6.0910   -1.1040   -1.1120 c3        1 M23      0.543000
     10 C9          5.2310   -0.0010   -1.0140 c2        1 M23     -0.075000
     11 C10         5.3860    1.0890   -1.8540 c2        1 M23     -0.122000
     12 N12         7.7380    3.1600   -5.3820 n8        1 M23     -0.310000
     13 C13         5.9040   -2.2800   -0.1870 c3        1 M23      0.523000
     14 C14         4.1490    0.0000    0.0000 c3        1 M23     -0.072000
     15 C15         4.4630    0.0000    1.3630 c3        1 M23      0.103000
     16 C16         3.4450    0.0010    2.3030 c3        1 M23     -0.237000
     17 C17         2.1250    0.0010    1.8940 c2        1 M23      0.041000
     18 C18         1.8110    0.0000    0.5460 c3        1 M23     -0.128000
     19 C19         2.8150    0.0050   -0.4010 c2        1 M23     -0.043000
     20 C22         6.0050    0.0000    3.1710 DU        1 M23     -0.195000
     21 C23         7.5140   -0.0010    3.4270 c3        1 M23     -0.231000
     22 H7          6.7500   -0.7560   -1.0760 DU        1 M23      0.145000
     23 H10         6.2880    0.6460   -2.2570 DU        1 M23      0.119000
     24 HN11        8.6070   -1.4410   -3.2570 hn        1 M23      0.162000
     25 HN1A        8.3990   -0.5640   -3.6250 DU        1 M23      0.322000
     26 HN12        8.2630    2.3370   -5.1650 DU        1 M23      0.292000
     27 HN1B        8.0600    2.3200   -4.9430 DU        1 M23      0.292000
     28 H13         6.2230   -1.4690   -0.8310 hc        1 M23     -0.292333
     29 H13A        6.0810   -1.5650   -0.9820 hc        1 M23     -0.292333
     30 H13B        6.1190   -3.1970   -0.7210 hc        1 M23     -0.292333
     31 H16         3.8950   -0.7220    1.6330 DU        1 M23      0.089000
     32 H17         3.0690   -0.4620    1.6330 DU        1 M23     -0.025000
     33 H19         3.0590    0.0040    0.6540 DU        1 M23      0.116000
     34 H22         4.9480    0.0020    2.9320 ha        1 M23      0.328000
     35 H22A        5.1080    0.0110    3.7790 ha        1 M23      0.328000
     36 H23         6.5990    0.4980    3.1290 DU        1 M23      0.099000
     37 H23A        6.6350   -0.3690    2.9100 DU        1 M23      0.099000
     38 H23B        7.8740   -1.0100    3.2690 hc        1 M23     -0.042000
     39 O21         5.7610   -0.0010    1.7630 os        1 M23     -0.348000
     40 N11         9.1620   -1.0850   -4.0090 n8        1 M23     -0.316000
@<TRIPOS>BOND
     1    1   18 1   
     2    2    3 1   
     3    2    7 1   
     4    2   25 1   
     5    2   40 1   
     6    3    4 1   
     7    4    5 1   
     8    4   12 1   
     9    4   26 1   
    10    4   27 1   
    11    5    6 1   
    12    6    7 1   
    13    6   11 1   
    14    6   23 1   
    15    7    8 1   
    16    8    9 1   
    17    8   22 1   
    18    9   10 1   
    19    9   13 1   
    20    9   22 1   
    21   10   11 1   
    22   10   14 1   
    23   11   23 1   
    24   12   26 1   
    25   12   27 1   
    26   13   28 1   
    27   13   29 1   
    28   13   30 1   
    29   14   15 1   
    30   14   19 1   
    31   14   33 1   
    32   15   16 1   
    33   15   31 1   
    34   15   39 1   
    35   16   17 1   
    36   16   31 1   
    37   16   32 1   
    38   17   18 1   
    39   17   32 1   
    40   18   19 1   
    41   18   33 1   
    42   19   33 1   
    43   20   21 1   
    44   20   34 1   
    45   20   35 1   
    46   20   36 1   
    47   20   37 1   
    48   20   39 1   
    49   21   36 1   
    50   21   37 1   
    51   21   38 1   
    52   24   40 1   
    53   25   40 1   
    54   26   27 1   
@<TRIPOS>SUBSTRUCTURE
     1 M23         1 TEMP              0 ****  ****    0 ROOT
