@<TRIPOS>MOLECULE
M24
   64    69     1     0     0
SMALL
bcc


@<TRIPOS>ATOM
      1 P           0.0170    2.5670   -0.0410 p5        1 M24      1.519800
      2 N1          3.1570    6.1390   -1.1420 nb        1 M24     -0.706000
      3 C2          2.8140    6.1430   -2.4590 ca        1 M24      0.652900
      4 N3          1.5790    6.0520   -3.0240 nb        1 M24     -0.651000
      5 C4          0.5620    6.0370   -2.1300 ca        1 M24      0.456800
      6 C5          0.7880    6.2110   -0.6740 ca        1 M24     -0.095200
      7 C6          2.1250    6.1150   -0.2550 ca        1 M24      0.554200
      8 N6          2.3730    5.8290    1.1640 n4        1 M24     -0.832300
      9 N7         -0.4330    6.2780    0.0050 nc        1 M24     -0.579100
     10 C8         -1.3570    6.0530   -0.9440 cd        1 M24      0.548700
     11 N9         -0.8340    5.9120   -2.2610 na        1 M24     -0.277000
     12 C1'        -1.5770    5.2560   -3.3310 c3        1 M24      0.222800
     13 O1P         0.9170    3.5440    0.6100 o         1 M24     -0.842500
     14 C2'        -0.8180    4.1390   -4.1190 c3        1 M24      0.089100
     15 O2'        -1.0200    4.3290   -5.4990 oh        1 M24     -0.582800
     16 C24        -0.1830    1.0050    1.9570 c         1 M24      0.694700
     17 O25         1.0350    1.0150    1.7090 o         1 M24     -0.585000
     18 C26        -0.8920    0.2770    3.0150 ca        1 M24     -0.135600
     19 C27        -2.2870    0.3420    3.1140 ca        1 M24     -0.049000
     20 C28        -2.9400   -0.3620    4.1240 ca        1 M24     -0.163000
     21 C29        -2.2130   -1.1260    5.0360 ca        1 M24     -0.061000
     22 O2P        -0.8970    1.7770    1.1230 os        1 M24     -0.555500
     23 C3'        -1.4280    2.8110   -3.6080 c3        1 M24      0.065100
     24 O3'        -2.0320    2.1230   -4.6920 oh        1 M24     -0.603800
     25 C30        -0.8150   -1.1880    4.9410 ca        1 M24     -0.150500
     26 C31        -0.1520   -0.4870    3.9250 ca        1 M24     -0.040000
     27 C32        -0.0490   -1.9810    5.8980 cc        1 M24      0.589500
     28 N33         1.2680   -1.8150    6.2090 nd        1 M24     -0.360300
     29 O34         1.5790   -2.7210    7.1020 os        1 M24     -0.121100
     30 C35         0.4150   -3.5040    7.3820 cd        1 M24      0.562900
     31 N36        -0.6060   -3.0600    6.6470 nc        1 M24     -0.683000
     32 C37         0.5270   -4.5770    8.3460 ca        1 M24     -0.188500
     33 C38        -0.5740   -5.4130    8.5820 ca        1 M24     -0.056000
     34 C39        -0.4860   -6.4510    9.5040 ca        1 M24     -0.157000
     35 O3P         0.3020    1.6550   -1.1520 o         1 M24     -0.842500
     36 C4'        -2.5560    3.2160   -2.6450 c3        1 M24      0.107100
     37 O4'        -2.7380    4.6390   -2.7730 os        1 M24     -0.417600
     38 C40         0.7010   -6.6710   10.2050 ca        1 M24     -0.076000
     39 C41         1.8070   -5.8570    9.9900 ca        1 M24     -0.178000
     40 C42         1.7300   -4.8030    9.0590 ca        1 M24      0.174900
     41 F43         2.8090   -4.0170    8.8580 f         1 M24     -0.114900
     42 C5'        -2.3120    2.8020   -1.1890 c3        1 M24      0.180400
     43 O5'        -1.2450    3.4770   -0.5980 os        1 M24     -0.591200
     44 HN6         1.7690    6.4220    1.7350 hn        1 M24      0.486467
     45 HN6A        2.0890    4.8190    1.3070 hn        1 M24      0.486467
     46 H1'        -1.9560    6.0650   -4.0250 h2        1 M24      0.106700
     47 H2'         0.2930    4.1570   -3.9840 h1        1 M24      0.117700
     48 HO2'       -1.9220    4.0450   -5.7100 ho        1 M24      0.420000
     49 H27        -2.8520    0.9500    2.3880 ha        1 M24      0.161000
     50 H28        -4.0360   -0.3160    4.2020 ha        1 M24      0.140000
     51 H29        -2.7420   -1.6770    5.8290 ha        1 M24      0.152000
     52 H3'        -0.6550    2.1650   -3.1020 h1        1 M24      0.142700
     53 HO3'       -1.3200    1.6710   -5.1620 ho        1 M24      0.420000
     54 H31         0.9470   -0.5270    3.8230 ha        1 M24      0.174000
     55 H38        -1.5130   -5.2440    8.0300 ha        1 M24      0.162000
     56 H39        -1.3570   -7.1010    9.6800 ha        1 M24      0.146000
     57 H4'        -3.5390    2.7790   -2.9820 h1        1 M24      0.093700
     58 H40         0.7660   -7.4950   10.9330 ha        1 M24      0.144000
     59 H41         2.7470   -6.0210   10.5360 ha        1 M24      0.157000
     60 H5'        -2.1320    1.6910   -1.1650 h1        1 M24      0.048200
     61 H5'A       -3.2450    3.0550   -0.6060 h1        1 M24      0.048200
     62 H8         -2.4390    5.9500   -0.7650 h5        1 M24      0.104800
     63 H63         3.3530    5.9620    1.4130 hn        1 M24      0.486467
     64 H2          3.6660    6.1840   -3.1720 h5        1 M24      0.074100
@<TRIPOS>BOND
     1    1   13 1   
     2    1   22 1   
     3    1   35 1   
     4    1   43 1   
     5    2    3 ar  
     6    2    7 ar  
     7    3    4 ar  
     8    3   64 1   
     9    4    5 ar  
    10    5    6 ar  
    11    5   11 1   
    12    6    7 ar  
    13    6    9 1   
    14    7    8 1   
    15    8   44 1   
    16    8   45 1   
    17    8   63 1   
    18    9   10 2   
    19   10   11 1   
    20   10   62 1   
    21   11   12 1   
    22   12   14 1   
    23   12   37 1   
    24   12   46 1   
    25   14   15 1   
    26   14   23 1   
    27   14   47 1   
    28   15   48 1   
    29   16   17 2   
    30   16   18 1   
    31   16   22 1   
    32   18   19 ar  
    33   18   26 ar  
    34   19   20 ar  
    35   19   49 1   
    36   20   21 ar  
    37   20   50 1   
    38   21   25 ar  
    39   21   51 1   
    40   23   24 1   
    41   23   36 1   
    42   23   52 1   
    43   24   53 1   
    44   25   26 ar  
    45   25   27 1   
    46   26   54 1   
    47   27   28 2   
    48   27   31 1   
    49   28   29 1   
    50   29   30 1   
    51   30   31 2   
    52   30   32 1   
    53   32   33 ar  
    54   32   40 ar  
    55   33   34 ar  
    56   33   55 1   
    57   34   38 ar  
    58   34   56 1   
    59   36   37 1   
    60   36   42 1   
    61   36   57 1   
    62   38   39 ar  
    63   38   58 1   
    64   39   40 ar  
    65   39   59 1   
    66   40   41 1   
    67   42   43 1   
    68   42   60 1   
    69   42   61 1   
@<TRIPOS>SUBSTRUCTURE
     1 M24         1 TEMP              0 ****  ****    0 ROOT
