@<TRIPOS>MOLECULE
M24
   63    68     1     0     0
SMALL
bcc


@<TRIPOS>ATOM
      1 P           1.2060   -1.7660   -0.5140 p5        1 M24      1.455800
      2 N1         -7.2170   -1.9210   -2.9480 nb        1 M24     -0.801000
      3 C2         -6.7320   -3.0360   -3.5590 ca        1 M24      0.660900
      4 N3         -5.4590   -3.4570   -3.7290 nb        1 M24     -0.725000
      5 C4         -4.5410   -2.5990   -3.1890 ca        1 M24      0.450800
      6 C5         -4.9080   -1.3630   -2.5030 ca        1 M24     -0.215200
      7 C6         -6.3020   -1.0630   -2.3870 ca        1 M24      0.726200
      8 N6         -6.7130    0.0470   -1.6720 nv        1 M24     -0.946500
      9 N7         -3.7510   -0.6890   -2.0820 nc        1 M24     -0.569100
     10 C8         -2.7260   -1.4570   -2.4780 cd        1 M24      0.436700
     11 N9         -3.1370   -2.6270   -3.1760 na        1 M24     -0.281000
     12 C1'        -2.3260   -3.7170   -3.6660 c3        1 M24      0.214800
     13 O1P         2.6500   -1.6380   -0.3180 o         1 M24     -0.806500
     14 C2'        -1.0210   -3.2470   -4.3940 c3        1 M24      0.127100
     15 O2'        -0.9330   -3.8860   -5.6450 oh        1 M24     -0.586800
     16 C24         0.4070   -0.4460    1.5190 c         1 M24      0.684700
     17 O25         0.9840    0.4190    0.8380 o         1 M24     -0.577000
     18 C26        -0.2470   -0.2710    2.8260 ca        1 M24     -0.121600
     19 C27        -0.8720   -1.3540    3.4540 ca        1 M24     -0.046000
     20 C28        -1.4840   -1.1760    4.6940 ca        1 M24     -0.167000
     21 C29        -1.4750    0.0730    5.3120 ca        1 M24     -0.072000
     22 O2P         0.3990   -1.6630    0.9750 os        1 M24     -0.538500
     23 C3'         0.1120   -3.6000   -3.4130 c3        1 M24      0.070100
     24 O3'         1.0780   -4.3720   -4.1060 oh        1 M24     -0.615800
     25 C30        -0.8490    1.1610    4.6840 ca        1 M24     -0.164500
     26 C31        -0.2360    0.9890    3.4360 ca        1 M24     -0.039000
     27 C32        -0.8360    2.4700    5.3310 cc        1 M24      0.602500
     28 N33        -0.6170    3.6710    4.7240 nd        1 M24     -0.357300
     29 O34        -0.6820    4.5990    5.6480 os        1 M24     -0.125100
     30 C35        -0.9580    3.9740    6.9020 cd        1 M24      0.545900
     31 N36        -1.0590    2.6550    6.7300 nc        1 M24     -0.682000
     32 C37        -1.0740    4.8110    8.0770 ca        1 M24     -0.176500
     33 C38        -1.2800    4.2170    9.3310 ca        1 M24     -0.059000
     34 C39        -1.3930    5.0020   10.4750 ca        1 M24     -0.159000
     35 O3P         0.3120   -1.1660   -1.5250 o         1 M24     -0.806500
     36 C4'        -0.5400   -4.4230   -2.2850 c3        1 M24      0.076100
     37 O4'        -1.9280   -4.5980   -2.6080 os        1 M24     -0.419600
     38 C40        -1.3020    6.3910   10.3850 ca        1 M24     -0.084000
     39 C41        -1.0980    7.0050    9.1550 ca        1 M24     -0.181000
     40 C42        -0.9820    6.2200    7.9900 ca        1 M24      0.172900
     41 F43        -0.7840    6.8300    6.8020 f         1 M24     -0.112900
     42 C5'        -0.4210   -3.7590   -0.9050 c3        1 M24      0.183400
     43 O5'         0.8980   -3.3860   -0.6600 os        1 M24     -0.572200
     44 HN6        -6.0170    0.7280   -1.4770 hn        1 M24      0.427300
     45 HN6A       -7.6440    0.3670   -1.7900 hn        1 M24      0.427300
     46 H1'        -2.9650   -4.3500   -4.3520 h2        1 M24      0.112700
     47 H2'        -1.0280   -2.1480   -4.6260 h1        1 M24      0.106700
     48 HO2'       -0.5570   -4.7660   -5.5070 ho        1 M24      0.419000
     49 H27        -0.8690   -2.3380    2.9550 ha        1 M24      0.169000
     50 H28        -1.9770   -2.0250    5.1880 ha        1 M24      0.133000
     51 H29        -1.9620    0.1990    6.2900 ha        1 M24      0.142000
     52 H3'         0.5720   -2.6580   -2.9900 h1        1 M24      0.125700
     53 HO3'        1.8530   -4.4050   -3.5320 ho        1 M24      0.425000
     54 H31         0.2620    1.8270    2.9170 ha        1 M24      0.175000
     55 H38        -1.3520    3.1190    9.4070 ha        1 M24      0.163000
     56 H39        -1.5550    4.5230   11.4520 ha        1 M24      0.141000
     57 H4'        -0.1100   -5.4610   -2.2520 h1        1 M24      0.070700
     58 H40        -1.3920    7.0080   11.2920 ha        1 M24      0.138000
     59 H41        -1.0240    8.0990    9.0720 ha        1 M24      0.153000
     60 H5'        -0.7290   -4.5130   -0.1270 h1        1 M24      0.038700
     61 H5'A       -1.1070   -2.8680   -0.8510 h1        1 M24      0.038700
     62 H2         -7.5110   -3.7020   -3.9860 h5        1 M24      0.037100
     63 H8         -1.6490   -1.2290   -2.3010 h5        1 M24      0.155800
@<TRIPOS>BOND
     1    1   13 1   
     2    1   22 1   
     3    1   35 1   
     4    1   43 1   
     5    2    3 ar  
     6    2    7 ar  
     7    3    4 ar  
     8    3   62 1   
     9    4    5 ar  
    10    5    6 ar  
    11    5   11 1   
    12    6    7 ar  
    13    6    9 1   
    14    7    8 1   
    15    8   44 1   
    16    8   45 1   
    17    9   10 2   
    18   10   11 1   
    19   10   63 1   
    20   11   12 1   
    21   12   14 1   
    22   12   37 1   
    23   12   46 1   
    24   14   15 1   
    25   14   23 1   
    26   14   47 1   
    27   15   48 1   
    28   16   17 2   
    29   16   18 1   
    30   16   22 1   
    31   18   19 ar  
    32   18   26 ar  
    33   19   20 ar  
    34   19   49 1   
    35   20   21 ar  
    36   20   50 1   
    37   21   25 ar  
    38   21   51 1   
    39   23   24 1   
    40   23   36 1   
    41   23   52 1   
    42   24   53 1   
    43   25   26 ar  
    44   25   27 1   
    45   26   54 1   
    46   27   28 2   
    47   27   31 1   
    48   28   29 1   
    49   29   30 1   
    50   30   31 2   
    51   30   32 1   
    52   32   33 ar  
    53   32   40 ar  
    54   33   34 ar  
    55   33   55 1   
    56   34   38 ar  
    57   34   56 1   
    58   36   37 1   
    59   36   42 1   
    60   36   57 1   
    61   38   39 ar  
    62   38   58 1   
    63   39   40 ar  
    64   39   59 1   
    65   40   41 1   
    66   42   43 1   
    67   42   60 1   
    68   42   61 1   
@<TRIPOS>SUBSTRUCTURE
     1 M24         1 TEMP              0 ****  ****    0 ROOT
