@<TRIPOS>MOLECULE
M24
   63    53     1     0     0
SMALL
bcc


@<TRIPOS>ATOM
      1 P          -0.5670    1.9840   -1.0740 p3        1 M24      2.569000
      2 N1         -3.6710   -5.2070   -8.6920 n1        1 M24     -0.274000
      3 C2         -3.3660   -5.6440   -7.4320 c1        1 M24      0.005000
      4 N3         -2.6470   -4.8450   -6.5850 n1        1 M24     -0.191000
      5 C4         -2.2320   -3.6030   -7.0000 c1        1 M24     -0.084000
      6 C5         -2.5330   -3.1730   -8.2430 c1        1 M24     -0.084000
      7 C6         -3.2640   -3.9890   -9.1020 c1        1 M24      0.213000
      8 N6         -3.7400   -3.9400  -10.4770 n3        1 M24     -0.345000
      9 N7         -2.0100   -1.9250   -8.3960 n1        1 M24     -0.161000
     10 C8         -1.3900   -1.5910   -7.2510 c1        1 M24     -0.026000
     11 N9         -1.5250   -2.6260   -6.3820 n1        1 M24     -0.161000
     12 C1'        -1.1180   -2.6850   -5.0710 c2        1 M24      0.123000
     13 O1P         0.9690    2.0740   -1.1410 o         1 M24     -1.135500
     14 C2'         0.1820   -2.7580   -5.0090 c3        1 M24     -0.001000
     15 O2'         0.6250   -4.1870   -4.9120 oh        1 M24     -0.315000
     16 C24        -0.5530    2.9940    1.2820 c1        1 M24      0.382000
     17 O25         0.0600    3.9570    0.8100 o         1 M24     -0.390000
     18 C26        -0.8900    2.9590    2.7790 c1        1 M24     -0.102000
     19 C27        -2.1780    2.6250    3.1920 c2        1 M24     -0.046000
     20 C28        -2.4640    2.5120    4.5440 c1        1 M24     -0.168000
     21 C29        -1.4540    2.7340    5.4990 c1        1 M24     -0.073000
     22 O2P        -1.0270    1.9770    0.4320 os        1 M24     -0.665000
     23 C3'         0.5560   -2.0080   -3.7520 c3        1 M24      0.003000
     24 O3'         0.9430   -2.8720   -2.7840 oh        1 M24     -0.363000
     25 C30        -0.1720    3.0660    5.0870 c1        1 M24     -0.058000
     26 C31         0.1160    3.1800    3.7290 c1        1 M24     -0.041000
     27 C32         0.8660    3.3590    6.0790 c1        1 M24     -0.031000
     28 N33         1.3730    4.5790    6.3590 n2        1 M24     -0.022000
     29 O34         2.3250    4.4300    7.3490 os        1 M24     -0.068000
     30 C35         2.3950    3.1190    7.6690 c2        1 M24      0.046000
     31 N36         1.4940    2.4440    6.8870 n2        1 M24     -0.156000
     32 C37         3.2690    2.5460    8.5990 c1        1 M24     -0.069000
     33 C38         2.8480    2.3290    9.9240 c1        1 M24     -0.120750
     34 C39         3.7220    1.7600   10.8480 c1        1 M24     -0.120750
     35 O3P        -1.1750    3.1750   -1.7810 o         1 M24     -1.135500
     36 C4'        -0.7620   -1.2330   -3.3050 c3        1 M24     -0.048000
     37 O4'        -1.5360   -1.3290   -4.2980 os        1 M24     -0.275000
     38 C40         4.9930    1.4130   10.4660 c1        1 M24     -0.120750
     39 C41         5.4150    1.6320    9.1380 c1        1 M24     -0.120750
     40 C42         4.5410    2.1990    8.2160 c1        1 M24      0.138000
     41 F43         4.9020    2.2840    6.8990 f         1 M24     -0.078000
     42 C5'        -0.4380    0.2360   -3.0090 c3        1 M24      0.048000
     43 O5'        -1.0600    0.6180   -1.7990 o         1 M24     -0.725000
     44 H2         -3.7820   -6.5640   -7.2270 ha        1 M24      0.179000
     45 HN6        -4.3690   -4.5420  -10.7650 hn        1 M24      0.225000
     46 HN6A       -3.3610   -3.3370  -11.0820 hn        1 M24      0.225000
     47 H8         -0.9110   -0.7700   -7.0850 DU        1 M24      0.219000
     48 H1'        -1.5330   -3.4840   -4.6170 h4        1 M24      0.152000
     49 H2'         0.5800   -2.3290   -5.7870 h1        1 M24      0.126000
     50 HO2'        1.4450   -4.2810   -5.3160 ho        1 M24      0.226000
     51 H27        -2.8420    2.3760    2.5380 ha        1 M24      0.173000
     52 H28        -3.3260    2.2890    4.8210 ha        1 M24      0.133000
     53 H29        -1.6460    2.6080    6.4590 ha        1 M24      0.141000
     54 H3'         1.2860   -1.3610   -3.9450 h1        1 M24      0.130000
     55 HO3'        1.7760   -2.6410   -2.4870 ho        1 M24      0.280000
     56 H31         1.0010    3.4830    3.4410 ha        1 M24      0.175000
     57 H38         1.9620    2.5710   10.1890 ha        1 M24      0.149000
     58 H39         3.4330    1.6100   11.7630 ha        1 M24      0.149000
     59 H4'        -1.1750   -1.6760   -2.4930 h1        1 M24      0.135000
     60 H40         5.6030    1.0170   11.1120 ha        1 M24      0.149000
     61 H41         6.2680    1.3180    8.8530 ha        1 M24      0.149000
     62 H5'         0.5340    0.3460   -2.9250 h1        1 M24      0.064000
     63 H5'A       -0.7670    0.7990   -3.7390 h1        1 M24      0.064000
@<TRIPOS>BOND
     1    1   13 1   
     2    1   22 1   
     3    1   35 1   
     4    2    7 1   
     5    3    4 1   
     6    3   44 1   
     7    5    6 1   
     8    7    8 1   
     9    8   45 1   
    10    8   46 1   
    11    9   10 1   
    12   10   11 1   
    13   12   14 1   
    14   12   37 1   
    15   12   48 1   
    16   14   15 1   
    17   14   23 1   
    18   14   49 1   
    19   15   50 1   
    20   16   17 1   
    21   16   22 1   
    22   18   19 1   
    23   18   26 1   
    24   19   20 1   
    25   19   51 1   
    26   20   52 1   
    27   21   25 1   
    28   21   53 1   
    29   23   24 1   
    30   23   36 1   
    31   23   54 1   
    32   24   55 1   
    33   26   56 1   
    34   27   28 1   
    35   27   31 1   
    36   28   29 1   
    37   29   30 1   
    38   30   31 1   
    39   30   32 1   
    40   32   40 1   
    41   33   34 1   
    42   33   57 1   
    43   34   58 1   
    44   36   37 1   
    45   36   42 1   
    46   36   59 1   
    47   38   39 1   
    48   38   60 1   
    49   39   61 1   
    50   40   41 1   
    51   42   43 1   
    52   42   62 1   
    53   42   63 1   
@<TRIPOS>SUBSTRUCTURE
     1 M24         1 TEMP              0 ****  ****    0 ROOT
