@<TRIPOS>MOLECULE
M24
   63    68     1     0     0
SMALL
bcc


@<TRIPOS>ATOM
      1 P          -1.1900    1.0540   -1.0080 p5        1 M24      1.462800
      2 N1        -11.4080    0.3550   -0.1000 nb        1 M24     -0.800000
      3 C2        -10.7860   -0.4060    0.8440 ca        1 M24      0.667900
      4 N3         -9.4710   -0.6330    1.0560 nb        1 M24     -0.719000
      5 C4         -8.6690    0.0260    0.1640 ca        1 M24      0.455800
      6 C5         -9.1890    0.8770   -0.9050 ca        1 M24     -0.221200
      7 C6        -10.6120    1.0030   -1.0120 ca        1 M24      0.733200
      8 N6        -11.1660    1.7240   -2.0530 nh        1 M24     -0.946500
      9 N7         -8.1280    1.4270   -1.6380 nc        1 M24     -0.563100
     10 C8         -7.0190    0.9390   -1.0600 cd        1 M24      0.428700
     11 N9         -7.2750    0.0660    0.0240 na        1 M24     -0.267000
     12 C1'        -6.3050   -0.5660    0.8980 c3        1 M24      0.212800
     13 O1P        -1.5980   -0.3600   -1.1160 o         1 M24     -0.816500
     14 C2'        -5.5350   -1.7550    0.2270 c3        1 M24      0.111100
     15 O2'        -5.5920   -2.8710    1.0820 oh        1 M24     -0.588800
     16 C24         1.2660    0.7310   -0.4070 c         1 M24      0.681700
     17 O25         1.2100    0.2780   -1.5630 o         1 M24     -0.579000
     18 C26         2.4510    0.8320    0.4620 ca        1 M24     -0.122600
     19 C27         2.3400    1.3910    1.7400 ca        1 M24     -0.046000
     20 C28         3.4700    1.4880    2.5520 ca        1 M24     -0.168000
     21 C29         4.7060    1.0340    2.0970 ca        1 M24     -0.073000
     22 O2P         0.1040    1.1690    0.0770 os        1 M24     -0.521500
     23 C3'        -4.1170   -1.2020   -0.0240 c3        1 M24      0.113100
     24 O3'        -3.1800   -2.1310    0.4710 oh        1 M24     -0.634800
     25 C30         4.8190    0.4720    0.8160 ca        1 M24     -0.165500
     26 C31         3.6870    0.3700   -0.0040 ca        1 M24     -0.041000
     27 C32         6.1130   -0.0030    0.3380 cc        1 M24      0.602500
     28 N33         6.3250   -0.9010   -0.6660 nd        1 M24     -0.357300
     29 O34         7.6200   -1.0560   -0.7920 os        1 M24     -0.125100
     30 C35         8.2740   -0.2270    0.1710 cd        1 M24      0.545900
     31 N36         7.3590    0.4340    0.8830 nc        1 M24     -0.682000
     32 C37         9.7200   -0.2320    0.2140 ca        1 M24     -0.176500
     33 C38        10.3880    0.6350    1.0930 ca        1 M24     -0.059000
     34 C39        11.7780    0.6480    1.1510 ca        1 M24     -0.159000
     35 O3P        -1.0340    2.0690   -2.0510 o         1 M24     -0.816500
     36 C4'        -4.0410    0.1240    0.7610 c3        1 M24      0.063100
     37 O4'        -5.3380    0.3930    1.3260 os        1 M24     -0.418600
     38 C40        12.5240   -0.2030    0.3340 ca        1 M24     -0.084000
     39 C41        11.8870   -1.0710   -0.5450 ca        1 M24     -0.181000
     40 C42        10.4800   -1.0930   -0.6130 ca        1 M24      0.172900
     41 F43         9.8740   -1.9430   -1.4700 f         1 M24     -0.112900
     42 C5'        -3.6020    1.3270   -0.0950 c3        1 M24      0.199400
     43 O5'        -2.2660    1.6380    0.1180 os        1 M24     -0.564200
     44 HN6       -12.1240    1.9720   -2.0010 hn        1 M24      0.429300
     45 HN6A      -10.5580    2.3400   -2.5380 hn        1 M24      0.429300
     46 H1'        -6.8450   -0.9120    1.8290 h2        1 M24      0.115700
     47 H2'        -6.0220   -2.0910   -0.7270 h1        1 M24      0.086700
     48 HO2'       -4.8180   -2.8470    1.6620 ho        1 M24      0.428000
     49 H27         1.3550    1.7490    2.0850 ha        1 M24      0.173000
     50 H28         3.3850    1.9270    3.5570 ha        1 M24      0.133000
     51 H29         5.5890    1.1180    2.7480 ha        1 M24      0.141000
     52 H3'        -3.9500   -1.0340   -1.1230 h1        1 M24      0.089700
     53 HO3'       -2.3340   -1.9290    0.0290 ho        1 M24      0.481000
     54 H31         3.7450   -0.0670   -1.0160 ha        1 M24      0.175000
     55 H38         9.8020    1.3100    1.7390 ha        1 M24      0.163000
     56 H39        12.2890    1.3330    1.8440 ha        1 M24      0.142000
     57 H4'        -3.3490    0.0210    1.6420 h1        1 M24      0.096700
     58 H40        13.6230   -0.1890    0.3830 ha        1 M24      0.138000
     59 H41        12.4640   -1.7460   -1.1940 ha        1 M24      0.153000
     60 H5'        -3.7790    1.1140   -1.1870 h1        1 M24      0.024700
     61 H5'A       -4.2140    2.2220    0.2130 h1        1 M24      0.024700
     62 H2        -11.4740   -0.9150    1.5510 h5        1 M24      0.042100
     63 H8         -5.9850    1.1740   -1.3550 h5        1 M24      0.088800
@<TRIPOS>BOND
     1    1   13 1   
     2    1   22 1   
     3    1   35 1   
     4    1   43 1   
     5    2    3 ar  
     6    2    7 ar  
     7    3    4 ar  
     8    3   62 1   
     9    4    5 ar  
    10    5    6 ar  
    11    5   11 1   
    12    6    7 ar  
    13    6    9 1   
    14    7    8 1   
    15    8   44 1   
    16    8   45 1   
    17    9   10 2   
    18   10   11 1   
    19   10   63 1   
    20   11   12 1   
    21   12   14 1   
    22   12   37 1   
    23   12   46 1   
    24   14   15 1   
    25   14   23 1   
    26   14   47 1   
    27   15   48 1   
    28   16   17 2   
    29   16   18 1   
    30   16   22 1   
    31   18   19 ar  
    32   18   26 ar  
    33   19   20 ar  
    34   19   49 1   
    35   20   21 ar  
    36   20   50 1   
    37   21   25 ar  
    38   21   51 1   
    39   23   24 1   
    40   23   36 1   
    41   23   52 1   
    42   24   53 1   
    43   25   26 ar  
    44   25   27 1   
    45   26   54 1   
    46   27   28 2   
    47   27   31 1   
    48   28   29 1   
    49   29   30 1   
    50   30   31 2   
    51   30   32 1   
    52   32   33 ar  
    53   32   40 ar  
    54   33   34 ar  
    55   33   55 1   
    56   34   38 ar  
    57   34   56 1   
    58   36   37 1   
    59   36   42 1   
    60   36   57 1   
    61   38   39 ar  
    62   38   58 1   
    63   39   40 ar  
    64   39   59 1   
    65   40   41 1   
    66   42   43 1   
    67   42   60 1   
    68   42   61 1   
@<TRIPOS>SUBSTRUCTURE
     1 M24         1 TEMP              0 ****  ****    0 ROOT
