@<TRIPOS>MOLECULE
M25
   30    30     1     0     0
SMALL
bcc


@<TRIPOS>ATOM
      1 C1          1.8320   -1.1020    2.7610 ca        1 M25     -0.388500
      2 C2          0.8250   -0.4380    2.0510 ca        1 M25     -0.014000
      3 C3          0.8430   -0.3850    0.6610 ca        1 M25     -0.162000
      4 C4          1.8820   -0.9970   -0.0530 ca        1 M25     -0.017300
      5 C5          2.8990   -1.6540    0.6500 ca        1 M25     -0.162000
      6 C6          2.8710   -1.7010    2.0400 ca        1 M25     -0.014000
      7 S           1.8200   -1.1370    4.4510 sy        1 M25      1.528200
      8 O1          3.1520   -1.2470    4.9030 o         1 M25     -0.657300
      9 O2          1.0550   -0.0440    4.9120 o         1 M25     -0.657300
     10 N1          1.0400   -2.4970    4.7830 n3        1 M25     -1.027700
     11 C7          1.9070   -0.9440   -1.5390 c3        1 M25     -0.079100
     12 C8          1.1890   -2.1440   -2.1710 c3        1 M25      0.092000
     13 N2         -0.2070   -2.2400   -1.8580 n         1 M25     -0.574900
     14 C9         -1.1990   -2.0750   -2.8100 c         1 M25      0.654100
     15 C10        -2.6290   -2.1030   -2.3280 c3        1 M25     -0.175100
     16 O3         -0.9200   -1.9460   -4.0190 o         1 M25     -0.605100
     17 H2          0.0170    0.0690    2.6090 ha        1 M25      0.153500
     18 H3          0.0500    0.1530    0.1210 ha        1 M25      0.141500
     19 H5          3.7270   -2.1280    0.1000 ha        1 M25      0.141500
     20 H6          3.6900   -2.2000    2.5880 ha        1 M25      0.153500
     21 HN11        1.4880   -3.3700    4.9020 hn        1 M25      0.447300
     22 HN12        0.0630   -2.5460    4.9260 hn        1 M25      0.447300
     23 H71         2.9690   -0.9570   -1.9040 hc        1 M25      0.066700
     24 H72         1.4400    0.0120   -1.8970 hc        1 M25      0.066700
     25 H81         1.3090   -2.0800   -3.2910 h1        1 M25      0.067200
     26 H82         1.6940   -3.0880   -1.8130 h1        1 M25      0.067200
     27 HN2        -0.4550   -2.2030   -0.8980 hn        1 M25      0.307500
     28 H101       -2.8130   -1.2820   -1.5950 hc        1 M25      0.066033
     29 H102       -3.3050   -1.9640   -3.2070 hc        1 M25      0.066033
     30 H103       -2.8580   -3.0830   -1.8450 hc        1 M25      0.066033
@<TRIPOS>BOND
     1    1    2 ar  
     2    1    6 ar  
     3    1    7 1   
     4    2    3 ar  
     5    2   17 1   
     6    3    4 ar  
     7    3   18 1   
     8    4    5 ar  
     9    4   11 1   
    10    5    6 ar  
    11    5   19 1   
    12    6   20 1   
    13    7    8 2   
    14    7    9 2   
    15    7   10 1   
    16   10   21 1   
    17   10   22 1   
    18   11   12 1   
    19   11   23 1   
    20   11   24 1   
    21   12   13 1   
    22   12   25 1   
    23   12   26 1   
    24   13   14 1   
    25   13   27 1   
    26   14   15 1   
    27   14   16 2   
    28   15   28 1   
    29   15   29 1   
    30   15   30 1   
@<TRIPOS>SUBSTRUCTURE
     1 M25         1 TEMP              0 ****  ****    0 ROOT
