@<TRIPOS>MOLECULE
M25
   32    32     1     0     0
SMALL
bcc


@<TRIPOS>ATOM
      1 C1         -0.6870   -0.0060    0.0680 ca        1 M25     -0.515500
      2 C2          0.6130    0.5340    0.1660 ca        1 M25      0.019500
      3 C3          1.6320   -0.1540    0.8120 ca        1 M25     -0.140500
      4 C4          1.3830   -1.4100    1.3860 ca        1 M25      0.014700
      5 C5          0.1000   -1.9650    1.2920 ca        1 M25     -0.140500
      6 C6         -0.9160   -1.2720    0.6450 ca        1 M25      0.019500
      7 S          -1.9040    0.8570   -0.5670 sy        1 M25      1.476200
      8 O1         -3.1530    0.3810   -0.2400 o         1 M25     -0.547800
      9 O2         -1.6140    2.1930   -0.7270 o         1 M25     -0.547800
     10 N1         -1.7790    0.2670   -2.3680 n4        1 M25     -0.795500
     11 C7          2.4860   -2.1620    2.0530 c3        1 M25     -0.078100
     12 C8          2.7660   -1.5770    3.4380 c3        1 M25      0.110800
     13 N2          3.9050   -2.2340    4.1430 n4        1 M25     -0.692800
     14 C9          5.2920   -1.7640    3.6880 c         1 M25      0.562100
     15 C10         6.4150   -2.1970    4.5620 c3        1 M25     -0.194100
     16 O3          5.3160   -1.0870    2.6760 o         1 M25     -0.400100
     17 H2          0.8220    1.5350   -0.2610 ha        1 M25      0.183000
     18 H3          2.6410    0.2900    0.8660 ha        1 M25      0.175000
     19 H5         -0.1140   -2.9560    1.7290 ha        1 M25      0.175000
     20 H6         -1.9320   -1.7150    0.6040 ha        1 M25      0.183000
     21 HN11       -1.0350   -0.4070   -2.5250 hn        1 M25      0.465467
     22 HN12       -1.6130    1.0600   -2.9910 hn        1 M25      0.465467
     23 H71         2.2080   -3.2490    2.1390 hc        1 M25      0.095200
     24 H72         3.4110   -2.0930    1.4120 hc        1 M25      0.095200
     25 H81         1.8520   -1.6920    4.0910 hx        1 M25      0.116700
     26 H82         3.0090   -0.4770    3.3410 hx        1 M25      0.116700
     27 HN2         3.8240   -2.0460    5.1500 hn        1 M25      0.467300
     28 H101        7.3810   -2.0270    4.0090 hc        1 M25      0.127367
     29 H102        6.4340   -1.5770    5.4980 hc        1 M25      0.127367
     30 H103        6.3480   -3.2800    4.8380 hc        1 M25      0.127367
     31 H13        -2.6560   -0.1690   -2.6610 hn        1 M25      0.465467
     32 H22         3.8550   -3.2510    4.0050 hn        1 M25      0.467300
@<TRIPOS>BOND
     1    1    2 ar  
     2    1    6 ar  
     3    1    7 1   
     4    2    3 ar  
     5    2   17 1   
     6    3    4 ar  
     7    3   18 1   
     8    4    5 ar  
     9    4   11 1   
    10    5    6 ar  
    11    5   19 1   
    12    6   20 1   
    13    7    8 2   
    14    7    9 2   
    15    7   10 1   
    16   10   21 1   
    17   10   22 1   
    18   10   31 1   
    19   11   12 1   
    20   11   23 1   
    21   11   24 1   
    22   12   13 1   
    23   12   25 1   
    24   12   26 1   
    25   13   14 1   
    26   13   27 1   
    27   13   32 1   
    28   14   15 1   
    29   14   16 2   
    30   15   28 1   
    31   15   29 1   
    32   15   30 1   
@<TRIPOS>SUBSTRUCTURE
     1 M25         1 TEMP              0 ****  ****    0 ROOT
