@<TRIPOS>MOLECULE
M25
   32    32     1     0     0
SMALL
bcc


@<TRIPOS>ATOM
      1 C1         -0.4520    0.2810   -0.1230 ca        1 M25     -0.517500
      2 C2          0.7400    0.0920   -0.8530 ca        1 M25      0.021500
      3 C3          1.9050   -0.3430   -0.2320 ca        1 M25     -0.141500
      4 C4          1.9180   -0.5980    1.1460 ca        1 M25      0.017700
      5 C5          0.7330   -0.4480    1.8820 ca        1 M25     -0.141500
      6 C6         -0.4290   -0.0150    1.2560 ca        1 M25      0.021500
      7 S          -1.7470    0.9780   -0.8050 sy        1 M25      1.477200
      8 O1         -2.6740    1.4380    0.1010 o         1 M25     -0.546300
      9 O2         -1.4820    1.5920   -2.0080 o         1 M25     -0.546300
     10 N1         -2.6400   -0.5860   -1.4260 nz        1 M25     -0.794500
     11 C7          3.1980   -0.9300    1.8350 c3        1 M25     -0.079100
     12 C8          3.1830   -2.3580    2.3800 c3        1 M25      0.110800
     13 N2          4.3890   -2.6910    3.1960 ny        1 M25     -0.693800
     14 C9          4.3590   -2.1450    4.6290 c         1 M25      0.561100
     15 C10         5.5040   -2.5690    5.4800 c3        1 M25     -0.194100
     16 O3          3.4070   -1.4390    4.9070 o         1 M25     -0.398100
     17 H2          0.7620    0.3300   -1.9350 ha        1 M25      0.183000
     18 H3          2.8260   -0.4570   -0.8300 ha        1 M25      0.174500
     19 H5          0.7260   -0.6360    2.9690 ha        1 M25      0.174500
     20 H6         -1.3450    0.1370    1.8610 ha        1 M25      0.183000
     21 HN11       -2.7650   -0.5420   -2.4390 hn        1 M25      0.463800
     22 HN12       -2.1480   -1.4480   -1.2130 hn        1 M25      0.463800
     23 H71         3.3380   -0.1970    2.6810 hc        1 M25      0.096200
     24 H72         4.0600   -0.8000    1.1240 hc        1 M25      0.096200
     25 H81         3.1410   -3.0930    1.5240 hx        1 M25      0.114700
     26 H82         2.2730   -2.5070    3.0340 hx        1 M25      0.114700
     27 HN2         4.4790   -3.7130    3.2510 hn        1 M25      0.466800
     28 H101        5.4780   -1.9700    6.4320 hc        1 M25      0.127700
     29 H102        5.4090   -3.6550    5.7460 hc        1 M25      0.127700
     30 H103        6.4890   -2.3970    4.9770 hc        1 M25      0.127700
     31 H13        -3.5710   -0.6490   -1.0100 hn        1 M25      0.463800
     32 H22         5.2280   -2.3220    2.7330 hn        1 M25      0.466800
@<TRIPOS>BOND
     1    1    2 ar  
     2    1    6 ar  
     3    1    7 1   
     4    2    3 ar  
     5    2   17 1   
     6    3    4 ar  
     7    3   18 1   
     8    4    5 ar  
     9    4   11 1   
    10    5    6 ar  
    11    5   19 1   
    12    6   20 1   
    13    7    8 2   
    14    7    9 2   
    15    7   10 1   
    16   10   21 1   
    17   10   22 1   
    18   10   31 1   
    19   11   12 1   
    20   11   23 1   
    21   11   24 1   
    22   12   13 1   
    23   12   25 1   
    24   12   26 1   
    25   13   14 1   
    26   13   27 1   
    27   13   32 1   
    28   14   15 1   
    29   14   16 2   
    30   15   28 1   
    31   15   29 1   
    32   15   30 1   
@<TRIPOS>SUBSTRUCTURE
     1 M25         1 TEMP              0 ****  ****    0 ROOT
