@<TRIPOS>MOLECULE
M25
   32    32     1     0     0
SMALL
bcc


@<TRIPOS>ATOM
      1 C1         -0.7790   -0.0330    0.2050 ca        1 M25     -0.515500
      2 C2          0.4420    0.6290    0.4490 ca        1 M25      0.019500
      3 C3          1.5300   -0.0420    0.9920 ca        1 M25     -0.140500
      4 C4          1.4310   -1.4040    1.3120 ca        1 M25      0.014700
      5 C5          0.2280   -2.0810    1.0710 ca        1 M25     -0.140500
      6 C6         -0.8580   -1.4040    0.5270 ca        1 M25      0.019500
      7 S          -2.0850    0.7830   -0.3020 sy        1 M25      1.476200
      8 O1         -3.2700    0.1090   -0.1160 o         1 M25     -0.547800
      9 O2         -1.9610    2.1500   -0.2000 o         1 M25     -0.547800
     10 N1         -1.8640    0.5640   -2.1760 n4        1 M25     -0.795500
     11 C7          2.6100   -2.1320    1.8670 c3        1 M25     -0.078100
     12 C8          2.8000   -1.7870    3.3450 c3        1 M25      0.110800
     13 N2          4.0020   -2.4250    3.9570 n4        1 M25     -0.692800
     14 C9          5.3260   -1.7180    3.6430 c         1 M25      0.562100
     15 C10         6.4840   -2.1720    4.4610 c3        1 M25     -0.194100
     16 O3          5.2800   -0.8670    2.7740 o         1 M25     -0.400100
     17 H2          0.5310    1.7110    0.2230 ha        1 M25      0.182500
     18 H3          2.4750    0.5010    1.1640 ha        1 M25      0.175000
     19 H5          0.1330   -3.1550    1.3080 ha        1 M25      0.175000
     20 H6         -1.8100   -1.9490    0.3670 ha        1 M25      0.182500
     21 HN11       -1.7900    1.4740   -2.6350 hn        1 M25      0.465467
     22 HN12       -1.0400    0.0250   -2.4290 hn        1 M25      0.465467
     23 H71         3.5260   -1.8360    1.2820 hc        1 M25      0.095200
     24 H72         2.4660   -3.2410    1.7430 hc        1 M25      0.095200
     25 H81         1.8980   -2.1290    3.9340 hx        1 M25      0.116200
     26 H82         2.9070   -0.6680    3.4600 hx        1 M25      0.116200
     27 HN2         3.8860   -2.4390    4.9780 hn        1 M25      0.467300
     28 H101        6.4190   -1.7340    5.4920 hc        1 M25      0.127367
     29 H102        6.5420   -3.2870    4.5370 hc        1 M25      0.127367
     30 H103        7.4280   -1.7940    3.9780 hc        1 M25      0.127367
     31 H13        -2.6770    0.0900   -2.5770 hn        1 M25      0.465467
     32 H22         4.0780   -3.3970    3.6320 hn        1 M25      0.467300
@<TRIPOS>BOND
     1    1    2 ar  
     2    1    6 ar  
     3    1    7 1   
     4    2    3 ar  
     5    2   17 1   
     6    3    4 ar  
     7    3   18 1   
     8    4    5 ar  
     9    4   11 1   
    10    5    6 ar  
    11    5   19 1   
    12    6   20 1   
    13    7    8 2   
    14    7    9 2   
    15    7   10 1   
    16   10   21 1   
    17   10   22 1   
    18   10   31 1   
    19   11   12 1   
    20   11   23 1   
    21   11   24 1   
    22   12   13 1   
    23   12   25 1   
    24   12   26 1   
    25   13   14 1   
    26   13   27 1   
    27   13   32 1   
    28   14   15 1   
    29   14   16 2   
    30   15   28 1   
    31   15   29 1   
    32   15   30 1   
@<TRIPOS>SUBSTRUCTURE
     1 M25         1 TEMP              0 ****  ****    0 ROOT
