@<TRIPOS>MOLECULE
M28
   26    26     1     0     0
SMALL
bcc


@<TRIPOS>ATOM
      1 C1         -0.1460    0.2690   -0.0030 ca        1 M28     -0.384500
      2 C2          1.2350    0.1110   -0.1700 ca        1 M28     -0.016000
      3 C3          2.0840    0.0380    0.9280 ca        1 M28     -0.152500
      4 C4          1.5650    0.1220    2.2270 ca        1 M28     -0.025300
      5 C5          0.1870    0.2880    2.4040 ca        1 M28     -0.152500
      6 C6         -0.6540    0.3620    1.2970 ca        1 M28     -0.016000
      7 S          -1.1710    0.3830   -1.3430 sy        1 M28      1.527200
      8 O1         -2.3000    1.1460   -0.9770 o         1 M28     -0.657800
      9 O2         -0.4100    0.8250   -2.4470 o         1 M28     -0.657800
     10 N3         -1.6210   -1.1340   -1.5900 n3        1 M28     -1.026700
     11 C7          2.4770    0.0620    3.4030 c3        1 M28     -0.048100
     12 C8          3.0710   -1.3180    3.6130 c3        1 M28     -0.123400
     13 C9          2.1380   -2.2250    4.3500 c         1 M28      0.636100
     14 O4          2.2970   -3.5430    4.0370 oh        1 M28     -0.608100
     15 O5          1.2820   -1.9570    5.1970 o         1 M28     -0.551000
     16 H2          1.6530    0.0660   -1.1920 ha        1 M28      0.154000
     17 H3          3.1680   -0.0800    0.7780 ha        1 M28      0.145000
     18 H5         -0.2320    0.3590    3.4200 ha        1 M28      0.145000
     19 H6         -1.7380    0.5150    1.4440 ha        1 M28      0.154000
     20 HN31       -1.1370   -1.7590   -2.1840 hn        1 M28      0.447800
     21 HN32       -2.4260   -1.5390   -1.1840 hn        1 M28      0.447800
     22 H71         1.9290    0.3750    4.3340 hc        1 M28      0.073200
     23 H72         3.3180    0.7910    3.2440 hc        1 M28      0.073200
     24 H81         4.0050   -1.2370    4.2330 hc        1 M28      0.085700
     25 H82         3.3490   -1.7850    2.6310 hc        1 M28      0.085700
     26 H33         1.6800   -4.0800    4.5610 ho        1 M28      0.446000
@<TRIPOS>BOND
     1    1    2 ar  
     2    1    6 ar  
     3    1    7 1   
     4    2    3 ar  
     5    2   16 1   
     6    3    4 ar  
     7    3   17 1   
     8    4    5 ar  
     9    4   11 1   
    10    5    6 ar  
    11    5   18 1   
    12    6   19 1   
    13    7    8 2   
    14    7    9 2   
    15    7   10 1   
    16   10   20 1   
    17   10   21 1   
    18   11   12 1   
    19   11   22 1   
    20   11   23 1   
    21   12   13 1   
    22   12   24 1   
    23   12   25 1   
    24   13   14 1   
    25   13   15 2   
    26   14   26 1   
@<TRIPOS>SUBSTRUCTURE
     1 M28         1 TEMP              0 ****  ****    0 ROOT
