@<TRIPOS>MOLECULE
M28
   25    25     1     0     0
SMALL
bcc


@<TRIPOS>ATOM
      1 C1          1.7990   -1.0720    2.7110 ca        1 M28     -0.444500
      2 C2          0.7870   -0.3720    2.0380 ca        1 M28     -0.016000
      3 C3          0.7450   -0.3210    0.6510 ca        1 M28     -0.170500
      4 C4          1.7220   -0.9770   -0.1150 ca        1 M28      0.039700
      5 C5          2.7500   -1.6640    0.5520 ca        1 M28     -0.170500
      6 C6          2.7840   -1.7070    1.9370 ca        1 M28     -0.016000
      7 S           1.8310   -1.1500    4.3720 sy        1 M28      1.534200
      8 O1          3.1640   -1.3080    4.8230 o         1 M28     -0.674800
      9 O2          1.1110   -0.0570    4.9160 o         1 M28     -0.674800
     10 N3          1.0220   -2.5030    4.7010 n3        1 M28     -1.023700
     11 C7          1.6780   -0.9510   -1.5990 c3        1 M28     -0.057100
     12 C8          1.3180   -2.2990   -2.1870 c3        1 M28     -0.195400
     13 C9          1.6430   -2.3440   -3.6940 c         1 M28      0.910600
     14 O4          2.6830   -1.7480   -4.0990 o         1 M28     -0.842300
     15 O5          0.8570   -2.9940   -4.4380 o         1 M28     -0.842300
     16 H2          0.0200    0.1560    2.6300 ha        1 M28      0.137500
     17 H3         -0.0600    0.2310    0.1440 ha        1 M28      0.147000
     18 H5          3.5260   -2.1710   -0.0440 ha        1 M28      0.147000
     19 H6          3.6060   -2.2360    2.4510 ha        1 M28      0.137500
     20 HN31        1.4510   -3.3900    4.7710 hn        1 M28      0.439300
     21 HN32        0.0430   -2.5380    4.8160 hn        1 M28      0.439300
     22 H71         0.9410   -0.1830   -1.9530 hc        1 M28      0.070200
     23 H72         2.6880   -0.6570   -2.0060 hc        1 M28      0.070200
     24 H81         1.9090   -3.1070   -1.6890 hc        1 M28      0.026700
     25 H82         0.2330   -2.5170   -2.0340 hc        1 M28      0.026700
@<TRIPOS>BOND
     1    1    2 ar  
     2    1    6 ar  
     3    1    7 1   
     4    2    3 ar  
     5    2   16 1   
     6    3    4 ar  
     7    3   17 1   
     8    4    5 ar  
     9    4   11 1   
    10    5    6 ar  
    11    5   18 1   
    12    6   19 1   
    13    7    8 2   
    14    7    9 2   
    15    7   10 1   
    16   10   20 1   
    17   10   21 1   
    18   11   12 1   
    19   11   22 1   
    20   11   23 1   
    21   12   13 1   
    22   12   24 1   
    23   12   25 1   
    24   13   14 1   
    25   13   15 1   
@<TRIPOS>SUBSTRUCTURE
     1 M28         1 TEMP              0 ****  ****    0 ROOT
