@<TRIPOS>MOLECULE
M28
   26    26     1     0     0
SMALL
bcc


@<TRIPOS>ATOM
      1 C1         -0.1830    0.1030   -0.0570 ca        1 M28     -0.384500
      2 C2          1.2020   -0.0210   -0.2210 ca        1 M28     -0.016000
      3 C3          2.0580    0.0220    0.8740 ca        1 M28     -0.152500
      4 C4          1.5420    0.1940    2.1650 ca        1 M28     -0.025300
      5 C5          0.1600    0.3280    2.3380 ca        1 M28     -0.152500
      6 C6         -0.6880    0.2850    1.2350 ca        1 M28     -0.016000
      7 S          -1.2160    0.0750   -1.3950 sy        1 M28      1.527200
      8 O1         -2.3680    0.8280   -1.0840 o         1 M28     -0.657800
      9 O2         -0.4750    0.4490   -2.5360 o         1 M28     -0.657800
     10 N3         -1.6180   -1.4720   -1.5140 n3        1 M28     -1.026700
     11 C7          2.4600    0.2600    3.3370 c3        1 M28     -0.048100
     12 C8          3.1070   -1.0770    3.6490 c3        1 M28     -0.123400
     13 C9          2.2120   -1.9580    4.4600 c         1 M28      0.636100
     14 O4          2.4160   -3.2890    4.2460 oh        1 M28     -0.608100
     15 O5          1.3520   -1.6570    5.2930 o         1 M28     -0.551000
     16 H2          1.6170   -0.1360   -1.2380 ha        1 M28      0.154000
     17 H3          3.1450   -0.0720    0.7270 ha        1 M28      0.145000
     18 H5         -0.2570    0.4670    3.3480 ha        1 M28      0.145000
     19 H6         -1.7760    0.4140    1.3770 ha        1 M28      0.154000
     20 HN31        1.8220   -3.8070    4.8140 ho        1 M28      0.446000
     21 HN32       -1.1160   -2.1270   -2.0580 hn        1 M28      0.447800
     22 H71         1.9040    0.6240    4.2440 hc        1 M28      0.073700
     23 H72         3.2730    1.0050    3.1160 hc        1 M28      0.073700
     24 H81         4.0390   -0.9120    4.2550 hc        1 M28      0.085700
     25 H82         3.3980   -1.6080    2.7040 hc        1 M28      0.085700
     26 H33        -2.4080   -1.8670   -1.0710 hn        1 M28      0.447800
@<TRIPOS>BOND
     1    1    2 ar  
     2    1    6 ar  
     3    1    7 1   
     4    2    3 ar  
     5    2   16 1   
     6    3    4 ar  
     7    3   17 1   
     8    4    5 ar  
     9    4   11 1   
    10    5    6 ar  
    11    5   18 1   
    12    6   19 1   
    13    7    8 2   
    14    7    9 2   
    15    7   10 1   
    16   10   21 1   
    17   10   26 1   
    18   11   12 1   
    19   11   22 1   
    20   11   23 1   
    21   12   13 1   
    22   12   24 1   
    23   12   25 1   
    24   13   14 1   
    25   13   15 2   
    26   14   20 1   
@<TRIPOS>SUBSTRUCTURE
     1 M28         1 TEMP              0 ****  ****    0 ROOT
