@<TRIPOS>MOLECULE
M28
   26    26     1     0     0
SMALL
bcc


@<TRIPOS>ATOM
      1 C1         -0.0510    0.2220   -0.0860 ca        1 M28     -0.384500
      2 C2          1.3250   -0.0090   -0.1940 ca        1 M28     -0.016000
      3 C3          2.1330   -0.0570    0.9370 ca        1 M28     -0.152500
      4 C4          1.5760    0.1280    2.2090 ca        1 M28     -0.025300
      5 C5          0.2020    0.3680    2.3260 ca        1 M28     -0.152500
      6 C6         -0.5970    0.4150    1.1880 ca        1 M28     -0.016000
      7 S          -1.0240    0.3040   -1.4660 sy        1 M28      1.527200
      8 O1         -2.1260    1.1400   -1.1860 o         1 M28     -0.657800
      9 O2         -0.2060    0.6430   -2.5660 o         1 M28     -0.657800
     10 N3         -1.5400   -1.2020   -1.6410 n8        1 M28     -1.026700
     11 C7          2.4430    0.0960    3.4190 c3        1 M28     -0.048100
     12 C8          2.9640   -1.2950    3.7290 c3        1 M28     -0.123400
     13 C9          1.9650   -2.1150    4.4810 c         1 M28      0.636100
     14 O4          2.0720   -3.4540    4.2500 oh        1 M28     -0.608100
     15 O5          1.0960   -1.7580    5.2810 o         1 M28     -0.551000
     16 H2          1.7740   -0.1350   -1.1950 ha        1 M28      0.154000
     17 H3          3.2140   -0.2340    0.8340 ha        1 M28      0.145000
     18 H5         -0.2460    0.5190    3.3210 ha        1 M28      0.145000
     19 H6         -1.6770    0.6280    1.2860 ha        1 M28      0.154000
     20 HN31       -1.0670   -1.8840   -2.1790 hn        1 M28      0.447800
     21 HN32       -2.3770   -1.5440   -1.2410 hn        1 M28      0.447800
     22 H71         1.8800    0.4870    4.3110 hc        1 M28      0.073200
     23 H72         3.3240    0.7750    3.2500 hc        1 M28      0.073200
     24 H81         3.8800   -1.2200    4.3770 hc        1 M28      0.085700
     25 H82         3.2520   -1.8310    2.7850 hc        1 M28      0.085700
     26 H33         1.4120   -3.9310    4.7800 ho        1 M28      0.446000
@<TRIPOS>BOND
     1    1    2 ar  
     2    1    6 ar  
     3    1    7 1   
     4    2    3 ar  
     5    2   16 1   
     6    3    4 ar  
     7    3   17 1   
     8    4    5 ar  
     9    4   11 1   
    10    5    6 ar  
    11    5   18 1   
    12    6   19 1   
    13    7    8 2   
    14    7    9 2   
    15    7   10 1   
    16   10   20 1   
    17   10   21 1   
    18   11   12 1   
    19   11   22 1   
    20   11   23 1   
    21   12   13 1   
    22   12   24 1   
    23   12   25 1   
    24   13   14 1   
    25   13   15 2   
    26   14   26 1   
@<TRIPOS>SUBSTRUCTURE
     1 M28         1 TEMP              0 ****  ****    0 ROOT
