@<TRIPOS>MOLECULE
M29
   33    33     1     0     0
SMALL
bcc


@<TRIPOS>ATOM
      1 C1         -0.0600    0.0680   -0.0160 ca        1 M29     -0.576500
      2 C2          1.3500    0.1480   -0.1130 ca        1 M29      0.019000
      3 C3          2.1580    0.0330    1.0040 ca        1 M29     -0.155500
      4 C4          1.5920   -0.1630    2.2760 ca        1 M29      0.079700
      5 C5          0.1930   -0.2430    2.3920 ca        1 M29     -0.155500
      6 C6         -0.6120   -0.1280    1.2740 ca        1 M29      0.019000
      7 S          -0.9900    0.2980   -1.2860 sy        1 M29      1.498200
      8 O1         -2.3190    0.5420   -1.0150 o         1 M29     -0.567300
      9 O2         -0.3640    0.8210   -2.3960 o         1 M29     -0.567300
     10 N          -1.1250   -1.5480   -1.8490 n4        1 M29     -0.785500
     11 C7          2.4550   -0.2440    3.4820 c3        1 M29     -0.078100
     12 C8          2.3540   -1.5920    4.1720 c3        1 M29     -0.128400
     13 C9          2.9490   -1.5140    5.5480 c         1 M29      0.627100
     14 O3          3.3840   -2.7200    5.9990 os        1 M29     -0.435900
     15 O4          3.0570   -0.5180    6.2670 o         1 M29     -0.531000
     16 C10         3.9480   -2.7460    7.3300 c3        1 M29      0.139400
     17 C11         4.3460   -4.1780    7.5860 c3        1 M29     -0.103100
     18 H2          1.8110    0.3290   -1.1030 ha        1 M29      0.169000
     19 H3          3.2550    0.1090    0.8990 ha        1 M29      0.178000
     20 H5         -0.2640   -0.3810    3.3880 ha        1 M29      0.178000
     21 H6         -1.7130   -0.1640    1.3870 ha        1 M29      0.169000
     22 HN1        -0.7650   -1.6540   -2.7960 hn        1 M29      0.453800
     23 HN2        -0.6080   -2.1770   -1.2450 hn        1 M29      0.453800
     24 H71         2.1470    0.5660    4.2070 hc        1 M29      0.099700
     25 H72         3.5290   -0.0450    3.2130 hc        1 M29      0.099700
     26 H81         2.8850   -2.3840    3.5820 hc        1 M29      0.083200
     27 H82         1.2820   -1.9060    4.2870 hc        1 M29      0.083200
     28 H101        4.8260   -2.0500    7.3560 h1        1 M29      0.059200
     29 H102        3.1690   -2.3860    8.0520 h1        1 M29      0.059200
     30 H111        5.0980   -4.5190    6.8360 hc        1 M29      0.054367
     31 H112        4.7900   -4.2510    8.6080 hc        1 M29      0.054367
     32 H113        3.4580   -4.8520    7.5260 hc        1 M29      0.054367
     33 HN3        -2.0990   -1.8440   -1.8530 hn        1 M29      0.453800
@<TRIPOS>BOND
     1    1    2 ar  
     2    1    6 ar  
     3    1    7 1   
     4    2    3 ar  
     5    2   18 1   
     6    3    4 ar  
     7    3   19 1   
     8    4    5 ar  
     9    4   11 1   
    10    5    6 ar  
    11    5   20 1   
    12    6   21 1   
    13    7    8 2   
    14    7    9 2   
    15    7   10 1   
    16   10   22 1   
    17   10   23 1   
    18   10   33 1   
    19   11   12 1   
    20   11   24 1   
    21   11   25 1   
    22   12   13 1   
    23   12   26 1   
    24   12   27 1   
    25   13   14 1   
    26   13   15 2   
    27   14   16 1   
    28   16   17 1   
    29   16   28 1   
    30   16   29 1   
    31   17   30 1   
    32   17   31 1   
    33   17   32 1   
@<TRIPOS>SUBSTRUCTURE
     1 M29         1 TEMP              0 ****  ****    0 ROOT
