@<TRIPOS>MOLECULE
M29
   32    32     1     0     0
SMALL
bcc


@<TRIPOS>ATOM
      1 C1          3.7990   -3.6910    7.7820 ca        1 M29     -0.385500
      2 C2          2.9460   -2.6650    7.3620 ca        1 M29     -0.015000
      3 C3          2.7640   -2.3910    6.0090 ca        1 M29     -0.154500
      4 C4          3.4410   -3.1440    5.0430 ca        1 M29     -0.019300
      5 C5          4.3070   -4.1660    5.4550 ca        1 M29     -0.154500
      6 C6          4.4810   -4.4320    6.8090 ca        1 M29     -0.015000
      7 S           4.0350   -4.0030    9.4270 sy        1 M29      1.527200
      8 O1          5.3010   -4.6040    9.5880 o         1 M29     -0.657800
      9 O2          3.7720   -2.8170   10.1460 o         1 M29     -0.657800
     10 N           2.8970   -5.0800    9.7610 n3        1 M29     -1.026700
     11 C7          3.2650   -2.8490    3.5950 c3        1 M29     -0.048100
     12 C8          2.5130   -3.9650    2.8940 c3        1 M29     -0.125400
     13 C9          2.2440   -3.6060    1.4650 c         1 M29      0.630100
     14 O3          2.2430   -4.6960    0.6420 os        1 M29     -0.443900
     15 O4          2.0190   -2.4980    0.9750 o         1 M29     -0.542000
     16 C10         1.9620   -4.4520   -0.7490 c3        1 M29      0.138400
     17 C11         2.0160   -5.7960   -1.4330 c3        1 M29     -0.101100
     18 H2          2.4260   -2.0510    8.1200 ha        1 M29      0.154000
     19 H3          2.0920   -1.5760    5.7000 ha        1 M29      0.143000
     20 H5          4.8550   -4.7540    4.7030 ha        1 M29      0.143000
     21 H6          5.1820   -5.2240    7.1270 ha        1 M29      0.154000
     22 HN1         3.0330   -6.0570    9.6990 hn        1 M29      0.447800
     23 HN2         1.9920   -4.8390   10.0800 hn        1 M29      0.447800
     24 H71         2.7070   -1.8830    3.4530 hc        1 M29      0.072700
     25 H72         4.2740   -2.7200    3.1180 hc        1 M29      0.072700
     26 H81         1.5210   -4.1420    3.3890 hc        1 M29      0.082700
     27 H82         3.0950   -4.9230    2.9410 hc        1 M29      0.082700
     28 H101        0.9500   -3.9780   -0.8330 h1        1 M29      0.052700
     29 H102        2.7330   -3.7440   -1.1510 h1        1 M29      0.052700
     30 H111        1.8040   -5.6590   -2.5200 hc        1 M29      0.048700
     31 H112        3.0250   -6.2580   -1.3120 hc        1 M29      0.048700
     32 H113        1.2580   -6.4900   -0.9960 hc        1 M29      0.048700
@<TRIPOS>BOND
     1    1    2 ar  
     2    1    6 ar  
     3    1    7 1   
     4    2    3 ar  
     5    2   18 1   
     6    3    4 ar  
     7    3   19 1   
     8    4    5 ar  
     9    4   11 1   
    10    5    6 ar  
    11    5   20 1   
    12    6   21 1   
    13    7    8 2   
    14    7    9 2   
    15    7   10 1   
    16   10   22 1   
    17   10   23 1   
    18   11   12 1   
    19   11   24 1   
    20   11   25 1   
    21   12   13 1   
    22   12   26 1   
    23   12   27 1   
    24   13   14 1   
    25   13   15 2   
    26   14   16 1   
    27   16   17 1   
    28   16   28 1   
    29   16   29 1   
    30   17   30 1   
    31   17   31 1   
    32   17   32 1   
@<TRIPOS>SUBSTRUCTURE
     1 M29         1 TEMP              0 ****  ****    0 ROOT
