@<TRIPOS>MOLECULE
M29
   33    33     1     0     0
SMALL
bcc


@<TRIPOS>ATOM
      1 C1         -0.0420    0.0650   -0.0280 ca        1 M29     -0.576500
      2 C2          1.3690    0.1210   -0.1280 ca        1 M29      0.019000
      3 C3          2.1780    0.0040    0.9890 ca        1 M29     -0.155500
      4 C4          1.6110   -0.1700    2.2640 ca        1 M29      0.079700
      5 C5          0.2100   -0.2260    2.3830 ca        1 M29     -0.155500
      6 C6         -0.5950   -0.1080    1.2640 ca        1 M29      0.019000
      7 S          -0.9700    0.2980   -1.2980 sy        1 M29      1.498200
      8 O1         -2.2940    0.5680   -1.0280 o         1 M29     -0.567300
      9 O2         -0.3380    0.7990   -2.4150 o         1 M29     -0.567300
     10 N          -1.1370   -1.5520   -1.8430 n4        1 M29     -0.785500
     11 C7          2.4750   -0.2530    3.4690 c3        1 M29     -0.078100
     12 C8          2.3530   -1.5910    4.1730 c3        1 M29     -0.128400
     13 C9          2.9470   -1.5080    5.5490 c         1 M29      0.627100
     14 O3          3.3640   -2.7160    6.0130 os        1 M29     -0.435900
     15 O4          3.0690   -0.5060    6.2580 o         1 M29     -0.531000
     16 C10         3.9260   -2.7360    7.3450 c3        1 M29      0.139400
     17 C11         4.3040   -4.1700    7.6150 c3        1 M29     -0.103100
     18 H2          1.8310    0.2840   -1.1210 ha        1 M29      0.169000
     19 H3          3.2750    0.0600    0.8810 ha        1 M29      0.178000
     20 H5         -0.2470   -0.3440    3.3810 ha        1 M29      0.178000
     21 H6         -1.6960   -0.1250    1.3800 ha        1 M29      0.169000
     22 HN1        -0.7810   -1.6730   -2.7890 hn        1 M29      0.454133
     23 HN2        -0.6290   -2.1830   -1.2330 hn        1 M29      0.454133
     24 H71         2.1800    0.5700    4.1850 hc        1 M29      0.099700
     25 H72         3.5500   -0.0740    3.1960 hc        1 M29      0.099700
     26 H81         1.2760   -1.8880    4.2900 hc        1 M29      0.083200
     27 H82         2.8710   -2.3980    3.5920 hc        1 M29      0.083200
     28 H101        3.1520   -2.3580    8.0620 h1        1 M29      0.059200
     29 H102        4.8150   -2.0520    7.3640 h1        1 M29      0.059200
     30 H111        3.4070   -4.8320    7.5600 hc        1 M29      0.054367
     31 H112        4.7460   -4.2390    8.6390 hc        1 M29      0.054367
     32 H113        5.0530   -4.5290    6.8700 hc        1 M29      0.054367
     33 HN3        -2.1160   -1.8310   -1.8410 hn        1 M29      0.454133
@<TRIPOS>BOND
     1    1    2 ar  
     2    1    6 ar  
     3    1    7 1   
     4    2    3 ar  
     5    2   18 1   
     6    3    4 ar  
     7    3   19 1   
     8    4    5 ar  
     9    4   11 1   
    10    5    6 ar  
    11    5   20 1   
    12    6   21 1   
    13    7    8 2   
    14    7    9 2   
    15    7   10 1   
    16   10   22 1   
    17   10   23 1   
    18   10   33 1   
    19   11   12 1   
    20   11   24 1   
    21   11   25 1   
    22   12   13 1   
    23   12   26 1   
    24   12   27 1   
    25   13   14 1   
    26   13   15 2   
    27   14   16 1   
    28   16   17 1   
    29   16   28 1   
    30   16   29 1   
    31   17   30 1   
    32   17   31 1   
    33   17   32 1   
@<TRIPOS>SUBSTRUCTURE
     1 M29         1 TEMP              0 ****  ****    0 ROOT
