@<TRIPOS>MOLECULE
M29
   32    28     1     0     0
SMALL
bcc


@<TRIPOS>ATOM
      1 C1         -1.8650    0.8830   -2.9490 c1        1 M29     -0.831000
      2 C2         -0.4780    0.8680   -2.9690 c2        1 M29     -0.014000
      3 C3          0.2290    0.8240   -1.7820 c1        1 M29     -0.154000
      4 C4         -0.4450    0.7930   -0.5690 c1        1 M29     -0.011000
      5 C5         -1.8350    0.8080   -0.5470 c1        1 M29     -0.157000
      6 C6         -2.5450    0.8530   -1.7300 c1        1 M29     -0.015000
      7 S          -2.7590    0.7820   -4.4590 ss        1 M29      2.866000
      8 O1         -2.0440   -0.0300   -5.4370 o         1 M29     -0.937000
      9 O2         -3.9300    0.0530   -4.3080 o         1 M29     -0.937000
     10 N          -3.0710    2.3230   -5.0550 n2        1 M29     -0.953000
     11 C7          0.3540    0.8450    0.7630 c3        1 M29     -0.134000
     12 C8          0.5250   -0.6050    1.3340 c3        1 M29     -0.154000
     13 C9          1.3310   -0.5460    2.5760 c2        1 M29      0.301000
     14 O3          2.1030   -1.6570    2.9680 os        1 M29     -0.280000
     15 O4          1.3570    0.4840    3.2370 o         1 M29     -0.355000
     16 C10         2.6190   -1.5710    4.2980 c3        1 M29     -0.012000
     17 C11         3.5100   -2.8450    4.5970 c3        1 M29     -0.219000
     18 H2          0.0000    0.8890   -3.8220 ha        1 M29      0.154000
     19 H3          1.1970    0.8140   -1.7940 ha        1 M29      0.142000
     20 H5         -2.3000    0.7870    0.2900 ha        1 M29      0.142000
     21 H6         -3.5460    0.8640   -1.7130 ha        1 M29      0.154000
     22 HN1        -3.6280    2.8950   -4.5880 hn        1 M29      0.243000
     23 HN2        -2.6240    2.6280   -5.8350 hn        1 M29      0.243000
     24 H71        -0.1400    1.4030    1.4240 hc        1 M29      0.111000
     25 H72         1.2570    1.2460    0.5960 hc        1 M29      0.111000
     26 H81         0.9690   -1.1530    0.6910 hc        1 M29      0.124500
     27 H82        -0.3410   -0.9790    1.5290 hc        1 M29      0.124500
     28 H101        1.8600   -1.5320    4.9490 h1        1 M29      0.091000
     29 H102        3.1400   -0.8020    4.3820 h1        1 M29      0.091000
     30 H111        3.7800   -2.8370    5.5020 hc        1 M29      0.088333
     31 H112        2.9860   -3.6570    4.4190 hc        1 M29      0.088333
     32 H113        4.3320   -2.8330    3.9980 hc        1 M29      0.088333
@<TRIPOS>BOND
     1    1    2 1   
     2    1    6 1   
     3    2    3 1   
     4    2   18 1   
     5    3   19 1   
     6    4    5 1   
     7    4   11 1   
     8    5   20 1   
     9    6   21 1   
    10    7    8 1   
    11    7    9 1   
    12   10   22 1   
    13   10   23 1   
    14   11   12 1   
    15   11   24 1   
    16   11   25 1   
    17   12   13 1   
    18   12   26 1   
    19   12   27 1   
    20   13   14 1   
    21   13   15 1   
    22   14   16 1   
    23   16   17 1   
    24   16   28 1   
    25   16   29 1   
    26   17   30 1   
    27   17   31 1   
    28   17   32 1   
@<TRIPOS>SUBSTRUCTURE
     1 M29         1 TEMP              0 ****  ****    0 ROOT
