@<TRIPOS>MOLECULE
M29
   33    33     1     0     0
SMALL
bcc


@<TRIPOS>ATOM
      1 C1         -0.0500    0.0690   -0.0210 ca        1 M29     -0.576500
      2 C2          1.3610    0.1360   -0.1200 ca        1 M29      0.019000
      3 C3          2.1690    0.0190    0.9970 ca        1 M29     -0.155500
      4 C4          1.6030   -0.1660    2.2700 ca        1 M29      0.079700
      5 C5          0.2030   -0.2330    2.3880 ca        1 M29     -0.155500
      6 C6         -0.6020   -0.1160    1.2700 ca        1 M29      0.019000
      7 S          -0.9790    0.3010   -1.2910 sy        1 M29      1.498200
      8 O1         -2.3060    0.5580   -1.0210 o         1 M29     -0.567300
      9 O2         -0.3500    0.8130   -2.4050 o         1 M29     -0.567300
     10 N          -1.1310   -1.5470   -1.8460 nz        1 M29     -0.785500
     11 C7          2.4670   -0.2480    3.4750 c3        1 M29     -0.078100
     12 C8          2.3530   -1.5910    4.1730 c3        1 M29     -0.128400
     13 C9          2.9520   -1.5110    5.5480 c         1 M29      0.627100
     14 O3          3.3710   -2.7200    6.0060 os        1 M29     -0.435900
     15 O4          3.0740   -0.5120    6.2590 o         1 M29     -0.531000
     16 C10         3.9370   -2.7450    7.3360 c3        1 M29      0.139400
     17 C11         4.3160   -4.1800    7.6010 c3        1 M29     -0.103100
     18 H2          1.8220    0.3080   -1.1110 ha        1 M29      0.169000
     19 H3          3.2660    0.0850    0.8900 ha        1 M29      0.178000
     20 H5         -0.2540   -0.3610    3.3850 ha        1 M29      0.178000
     21 H6         -1.7030   -0.1420    1.3840 ha        1 M29      0.169000
     22 HN1        -0.7730   -1.6600   -2.7920 hn        1 M29      0.453800
     23 HN2        -0.6180   -2.1780   -1.2390 hn        1 M29      0.453800
     24 H71         2.1670    0.5690    4.1960 hc        1 M29      0.099700
     25 H72         3.5410   -0.0610    3.2040 hc        1 M29      0.099700
     26 H81         2.8750   -2.3920    3.5860 hc        1 M29      0.083200
     27 H82         1.2790   -1.8940    4.2910 hc        1 M29      0.083200
     28 H101        4.8250   -2.0610    7.3560 h1        1 M29      0.059200
     29 H102        3.1650   -2.3700    8.0570 h1        1 M29      0.059200
     30 H111        5.0630   -4.5360    6.8520 hc        1 M29      0.054367
     31 H112        4.7620   -4.2520    8.6230 hc        1 M29      0.054367
     32 H113        3.4190   -4.8420    7.5470 hc        1 M29      0.054367
     33 HN3        -2.1070   -1.8350   -1.8470 hn        1 M29      0.453800
@<TRIPOS>BOND
     1    1    2 ar  
     2    1    6 ar  
     3    1    7 1   
     4    2    3 ar  
     5    2   18 1   
     6    3    4 ar  
     7    3   19 1   
     8    4    5 ar  
     9    4   11 1   
    10    5    6 ar  
    11    5   20 1   
    12    6   21 1   
    13    7    8 2   
    14    7    9 2   
    15    7   10 1   
    16   10   22 1   
    17   10   23 1   
    18   10   33 1   
    19   11   12 1   
    20   11   24 1   
    21   11   25 1   
    22   12   13 1   
    23   12   26 1   
    24   12   27 1   
    25   13   14 1   
    26   13   15 2   
    27   14   16 1   
    28   16   17 1   
    29   16   28 1   
    30   16   29 1   
    31   17   30 1   
    32   17   31 1   
    33   17   32 1   
@<TRIPOS>SUBSTRUCTURE
     1 M29         1 TEMP              0 ****  ****    0 ROOT
