@<TRIPOS>MOLECULE
M2C
   31    31     1     0     0
SMALL
bcc


@<TRIPOS>ATOM
      1 OA         -1.4240   -1.5060   -0.5190 oh        1 M2C     -0.571800
      2 C7         -0.7800   -0.2740   -0.7720 c3        1 M2C      0.312300
      3 O8         -1.8930    0.5910   -0.6870 oh        1 M2C     -0.571800
      4 C9          0.2870    0.0220    0.3390 c3        1 M2C      0.121500
      5 C11        -0.4090   -0.0700    1.7060 c3        1 M2C     -0.107400
      6 C12         0.5840   -0.0080    2.8360 c3        1 M2C     -0.017300
      7 S13        -0.3210   -0.1950    4.3440 ss        1 M2C     -0.279200
      8 C14         0.9540   -0.1420    5.5430 c3        1 M2C     -0.047000
      9 N10         0.9630    1.2740    0.0710 n3        1 M2C     -0.911800
     10 C1         -0.1410   -0.2500   -2.1630 ca        1 M2C      0.366600
     11 C2         -0.6680    0.5900   -3.1650 ca        1 M2C     -0.216300
     12 C3         -0.0600    0.6050   -4.4220 ca        1 M2C     -0.092000
     13 C4          1.0440   -0.2150   -4.6500 ca        1 M2C     -0.241300
     14 C5          1.4930   -1.0330   -3.5950 ca        1 M2C      0.399200
     15 N6          0.9240   -1.0600   -2.3780 nb        1 M2C     -0.676000
     16 HOA        -0.7770   -2.2010   -0.6920 ho        1 M2C      0.419500
     17 HO8        -1.5470    1.4910   -0.7330 ho        1 M2C      0.419500
     18 H9          1.0470   -0.8130    0.2790 h1        1 M2C      0.077700
     19 H111       -0.9780   -1.0390    1.7430 hc        1 M2C      0.078200
     20 H112       -1.1650    0.7550    1.8000 hc        1 M2C      0.078200
     21 H121        1.1310    0.9660    2.8400 h1        1 M2C      0.053200
     22 H122        1.3440   -0.8210    2.7370 h1        1 M2C      0.053200
     23 H141        0.4550   -0.2620    6.5330 h1        1 M2C      0.062367
     24 H142        1.6900   -0.9650    5.4070 h1        1 M2C      0.062367
     25 H143        1.5000    0.8270    5.5290 h1        1 M2C      0.062367
     26 H101        0.4690    2.0420    0.4810 hn        1 M2C      0.353800
     27 H102        1.8950    1.2560    0.4340 hn        1 M2C      0.353800
     28 H2         -1.5540    1.2080   -2.9620 ha        1 M2C      0.153000
     29 H3         -0.4520    1.2520   -5.2200 ha        1 M2C      0.140000
     30 H4          1.5520   -0.2320   -5.6220 ha        1 M2C      0.144000
     31 H5          2.3580   -1.7070   -3.7310 h4        1 M2C      0.021100
@<TRIPOS>BOND
     1    1    2 1   
     2    1   16 1   
     3    2    3 1   
     4    2    4 1   
     5    2   10 1   
     6    3   17 1   
     7    4    5 1   
     8    4    9 1   
     9    4   18 1   
    10    5    6 1   
    11    5   19 1   
    12    5   20 1   
    13    6    7 1   
    14    6   21 1   
    15    6   22 1   
    16    7    8 1   
    17    8   23 1   
    18    8   24 1   
    19    8   25 1   
    20    9   26 1   
    21    9   27 1   
    22   10   11 ar  
    23   10   15 ar  
    24   11   12 ar  
    25   11   28 1   
    26   12   13 ar  
    27   12   29 1   
    28   13   14 ar  
    29   13   30 1   
    30   14   15 ar  
    31   14   31 1   
@<TRIPOS>SUBSTRUCTURE
     1 M2C         1 TEMP              0 ****  ****    0 ROOT
