@<TRIPOS>MOLECULE
M2C
   32    32     1     0     0
SMALL
bcc


@<TRIPOS>ATOM
      1 OA          0.5040    0.5890   -0.1710 oh        1 M2C     -0.608800
      2 C7          1.8240    0.1220   -0.0700 c3        1 M2C      0.311300
      3 O8          2.5730    1.1390   -0.6930 oh        1 M2C     -0.608800
      4 C9          2.2630    0.0890    1.4380 c3        1 M2C      0.115500
      5 C11         1.7440    1.3330    2.1620 c3        1 M2C     -0.101400
      6 C12         2.0430    1.3140    3.6390 c3        1 M2C     -0.055300
      7 S13         0.9320    2.4700    4.3760 ss        1 M2C     -0.230200
      8 C14         1.4000    2.4420    6.0600 c3        1 M2C     -0.055000
      9 N10         3.7550   -0.0150    1.5370 n4        1 M2C     -0.833600
     10 C1          2.0260   -1.2160   -0.7770 ca        1 M2C      0.309600
     11 C2          1.2300   -1.5110   -1.8980 ca        1 M2C     -0.208300
     12 C3          1.4350   -2.7240   -2.5670 ca        1 M2C     -0.069000
     13 C4          2.4210   -3.5930   -2.1050 ca        1 M2C     -0.202300
     14 C5          3.1780   -3.2090   -0.9780 ca        1 M2C      0.420200
     15 N6          2.9940   -2.0520   -0.3240 nb        1 M2C     -0.736000
     16 HOA        -0.1120   -0.1490   -0.0670 ho        1 M2C      0.460500
     17 HO8         2.0150    1.5820   -1.3530 ho        1 M2C      0.460500
     18 H9          1.8280   -0.8390    1.9130 hx        1 M2C      0.113700
     19 H111        2.1610    2.2580    1.6790 hc        1 M2C      0.109700
     20 H112        0.6270    1.3640    2.0000 hc        1 M2C      0.109700
     21 H121        3.1000    1.6110    3.8500 h1        1 M2C      0.055200
     22 H122        1.8840    0.2950    4.0710 h1        1 M2C      0.055200
     23 H141        0.7180    3.1640    6.5720 h1        1 M2C      0.077033
     24 H142        2.4510    2.7730    6.2140 h1        1 M2C      0.077033
     25 H143        1.2680    1.4370    6.5200 h1        1 M2C      0.077033
     26 H101        4.0640   -0.9300    1.1760 hn        1 M2C      0.468800
     27 H102        4.0430    0.0970    2.5110 hn        1 M2C      0.468800
     28 H2          0.4700   -0.7960   -2.2490 ha        1 M2C      0.165000
     29 H3          0.8250   -2.9800   -3.4490 ha        1 M2C      0.170000
     30 H4          2.6150   -4.5550   -2.6000 ha        1 M2C      0.174000
     31 H5          3.9740   -3.8680   -0.5810 h4        1 M2C      0.041100
     32 H103        4.1770    0.7280    0.9660 hn        1 M2C      0.468800
@<TRIPOS>BOND
     1    1    2 1   
     2    1   16 1   
     3    2    3 1   
     4    2    4 1   
     5    2   10 1   
     6    3   17 1   
     7    4    5 1   
     8    4    9 1   
     9    4   18 1   
    10    5    6 1   
    11    5   19 1   
    12    5   20 1   
    13    6    7 1   
    14    6   21 1   
    15    6   22 1   
    16    7    8 1   
    17    8   23 1   
    18    8   24 1   
    19    8   25 1   
    20    9   26 1   
    21    9   27 1   
    22    9   32 1   
    23   10   11 ar  
    24   10   15 ar  
    25   11   12 ar  
    26   11   28 1   
    27   12   13 ar  
    28   12   29 1   
    29   13   14 ar  
    30   13   30 1   
    31   14   15 ar  
    32   14   31 1   
@<TRIPOS>SUBSTRUCTURE
     1 M2C         1 TEMP              0 ****  ****    0 ROOT
