@<TRIPOS>MOLECULE
M2C
   32    32     1     0     0
SMALL
bcc


@<TRIPOS>ATOM
      1 OA          0.4860    0.5680   -0.1550 oh        1 M2C     -0.608800
      2 C7          1.8160    0.1270   -0.0700 c3        1 M2C      0.311300
      3 O8          2.5390    1.1620   -0.6960 oh        1 M2C     -0.608800
      4 C9          2.2710    0.0970    1.4340 c3        1 M2C      0.115500
      5 C11         1.7340    1.3260    2.1690 c3        1 M2C     -0.101400
      6 C12         2.0470    1.3060    3.6420 c3        1 M2C     -0.055300
      7 S13         0.9210    2.4370    4.3950 ss        1 M2C     -0.230200
      8 C14         1.4060    2.4100    6.0750 c3        1 M2C     -0.055000
      9 N10         3.7650    0.0220    1.5180 nz        1 M2C     -0.833600
     10 C1          2.0380   -1.2030   -0.7850 ca        1 M2C      0.309600
     11 C2          1.2380   -1.5090   -1.9000 ca        1 M2C     -0.208300
     12 C3          1.4600   -2.7140   -2.5770 ca        1 M2C     -0.069000
     13 C4          2.4670   -3.5650   -2.1280 ca        1 M2C     -0.202300
     14 C5          3.2280   -3.1720   -1.0070 ca        1 M2C      0.420200
     15 N6          3.0270   -2.0210   -0.3460 nb        1 M2C     -0.736000
     16 HOA        -0.1140   -0.1830   -0.0490 ho        1 M2C      0.460500
     17 HO8         1.9650    1.5970   -1.3480 ho        1 M2C      0.460500
     18 H9          1.8590   -0.8430    1.9080 hx        1 M2C      0.113700
     19 H111        2.1270    2.2620    1.6860 hc        1 M2C      0.109700
     20 H112        0.6150    1.3360    2.0180 hc        1 M2C      0.109700
     21 H121        3.1000    1.6230    3.8450 h1        1 M2C      0.055200
     22 H122        1.9130    0.2820    4.0710 h1        1 M2C      0.055200
     23 H141        2.4520    2.7610    6.2200 h1        1 M2C      0.077033
     24 H142        1.2990    1.4010    6.5310 h1        1 M2C      0.077033
     25 H143        0.7140    3.1160    6.5970 h1        1 M2C      0.077033
     26 H101        4.1670    0.7760    0.9460 hn        1 M2C      0.468800
     27 H102        4.0890   -0.8850    1.1490 hn        1 M2C      0.468800
     28 H2          0.4600   -0.8080   -2.2400 ha        1 M2C      0.165000
     29 H3          0.8470   -2.9790   -3.4540 ha        1 M2C      0.170000
     30 H4          2.6770   -4.5210   -2.6310 ha        1 M2C      0.174000
     31 H5          4.0410   -3.8160   -0.6210 h4        1 M2C      0.041100
     32 H103        4.0610    0.1350    2.4890 hn        1 M2C      0.468800
@<TRIPOS>BOND
     1    1    2 1   
     2    1   16 1   
     3    2    3 1   
     4    2    4 1   
     5    2   10 1   
     6    3   17 1   
     7    4    5 1   
     8    4    9 1   
     9    4   18 1   
    10    5    6 1   
    11    5   19 1   
    12    5   20 1   
    13    6    7 1   
    14    6   21 1   
    15    6   22 1   
    16    7    8 1   
    17    8   23 1   
    18    8   24 1   
    19    8   25 1   
    20    9   26 1   
    21    9   27 1   
    22    9   32 1   
    23   10   11 ar  
    24   10   15 ar  
    25   11   12 ar  
    26   11   28 1   
    27   12   13 ar  
    28   12   29 1   
    29   13   14 ar  
    30   13   30 1   
    31   14   15 ar  
    32   14   31 1   
@<TRIPOS>SUBSTRUCTURE
     1 M2C         1 TEMP              0 ****  ****    0 ROOT
