@<TRIPOS>MOLECULE
M2C
   32    32     1     0     0
SMALL
bcc


@<TRIPOS>ATOM
      1 OA          0.0030   -0.0180   -0.1170 oh        1 M2C     -0.610800
      2 C7          1.4060    0.0300   -0.0170 c3        1 M2C      0.306300
      3 O8          1.7360    1.2050   -0.7220 oh        1 M2C     -0.610800
      4 C9          1.8190    0.2700    1.4780 c3        1 M2C      0.125500
      5 C11         0.8980    1.3250    2.1050 c3        1 M2C     -0.100400
      6 C12         1.0480    1.4440    3.5970 c3        1 M2C     -0.037300
      7 S13         2.5580    2.3080    3.9700 ss        1 M2C     -0.311200
      8 C14         2.9340    1.7960    5.6110 c3        1 M2C     -0.038000
      9 N10         3.2550    0.6760    1.5720 n4        1 M2C     -0.864600
     10 C1          2.0680   -1.1900   -0.6490 ca        1 M2C      0.306600
     11 C2          1.4900   -1.7280   -1.8150 ca        1 M2C     -0.212300
     12 C3          2.0990   -2.8330   -2.4190 ca        1 M2C     -0.071000
     13 C4          3.2560   -3.3610   -1.8500 ca        1 M2C     -0.203300
     14 C5          3.7700   -2.7510   -0.6870 ca        1 M2C      0.417200
     15 N6          3.1990   -1.6910   -0.0940 nb        1 M2C     -0.724000
     16 HOA        -0.2960   -0.9360   -0.0540 ho        1 M2C      0.456000
     17 HO8         1.1000    1.3230   -1.4460 ho        1 M2C      0.456000
     18 H9          1.7010   -0.7080    2.0310 hx        1 M2C      0.107700
     19 H111       -0.1630    1.0210    1.8690 hc        1 M2C      0.107700
     20 H112        1.0600    2.3190    1.6050 hc        1 M2C      0.107700
     21 H121        1.0420    0.4420    4.0910 h1        1 M2C      0.092700
     22 H122        0.1850    2.0270    4.0090 h1        1 M2C      0.092700
     23 H141        3.0970    0.6990    5.6820 h1        1 M2C      0.086033
     24 H142        2.1260    2.0900    6.3180 h1        1 M2C      0.086033
     25 H143        3.8710    2.3330    5.8920 h1        1 M2C      0.086033
     26 H101        3.8630   -0.1430    1.4870 hn        1 M2C      0.467800
     27 H102        3.4700    1.3290    0.8110 hn        1 M2C      0.467800
     28 H2          0.5820   -1.2790   -2.2440 ha        1 M2C      0.162000
     29 H3          1.6680   -3.2740   -3.3330 ha        1 M2C      0.168000
     30 H4          3.7680   -4.2290   -2.2920 ha        1 M2C      0.173000
     31 H5          4.6890   -3.1360   -0.2060 h4        1 M2C      0.041100
     32 H103        3.4130    1.1610    2.5020 hn        1 M2C      0.467800
@<TRIPOS>BOND
     1    1    2 1   
     2    1   16 1   
     3    2    3 1   
     4    2    4 1   
     5    2   10 1   
     6    3   17 1   
     7    4    5 1   
     8    4    9 1   
     9    4   18 1   
    10    5    6 1   
    11    5   19 1   
    12    5   20 1   
    13    6    7 1   
    14    6   21 1   
    15    6   22 1   
    16    7    8 1   
    17    8   23 1   
    18    8   24 1   
    19    8   25 1   
    20    9   26 1   
    21    9   27 1   
    22    9   32 1   
    23   10   11 ar  
    24   10   15 ar  
    25   11   12 ar  
    26   11   28 1   
    27   12   13 ar  
    28   12   29 1   
    29   13   14 ar  
    30   13   30 1   
    31   14   15 ar  
    32   14   31 1   
@<TRIPOS>SUBSTRUCTURE
     1 M2C         1 TEMP              0 ****  ****    0 ROOT
