@<TRIPOS>MOLECULE
M2F
   37    38     1     0     0
SMALL
bcc


@<TRIPOS>ATOM
      1 O1B         0.2550    0.3200    0.1690 o         1 M2F     -0.191500
      2 N1B         1.4390    0.4760    0.0400 no        1 M2F      0.329200
      3 O2B         2.1350    0.9000    0.9190 o         1 M2F     -0.191500
      4 C6B         2.0520    0.1580   -1.2780 ca        1 M2F     -0.218200
      5 C1A         1.2380    0.1800   -2.4190 ca        1 M2F      0.010000
      6 C2B         1.8130   -0.0660   -3.6720 ca        1 M2F     -0.219200
      7 N1C         0.9600   -0.0260   -4.8880 no        1 M2F      0.321200
      8 O3C        -0.2080    0.2260   -4.7700 o         1 M2F     -0.199000
      9 O2C         1.4690   -0.2450   -5.9550 o         1 M2F     -0.199000
     10 C3B         3.1860   -0.3510   -3.7960 ca        1 M2F     -0.006000
     11 C4B         3.9830   -0.3990   -2.6630 ca        1 M2F     -0.203000
     12 C5B         3.4300   -0.1580   -1.3940 ca        1 M2F      0.226100
     13 O1          4.1280   -0.2750   -0.2170 os        1 M2F     -0.277900
     14 C1          5.5320   -0.0480   -0.2570 c3        1 M2F      0.309900
     15 O5          6.0290   -1.2290   -0.8580 os        1 M2F     -0.427600
     16 C2          5.9900    0.1040    1.2190 c3        1 M2F      0.131600
     17 F2          5.4670   -0.8780    2.0360 f         1 M2F     -0.210300
     18 C3          7.5370    0.0530    1.2250 c3        1 M2F      0.071100
     19 O3          8.0480    0.0820    2.5390 oh        1 M2F     -0.583800
     20 C4          8.0390   -1.2060    0.4920 c3        1 M2F      0.082100
     21 O4          9.4490   -1.1830    0.3720 oh        1 M2F     -0.590800
     22 C5          7.4600   -1.2510   -0.9300 c3        1 M2F      0.148100
     23 C6          7.8270   -2.5540   -1.6400 c3        1 M2F      0.135400
     24 O6          7.6390   -2.3230   -3.0270 oh        1 M2F     -0.605800
     25 H1A         0.1530    0.3940   -2.3270 ha        1 M2F      0.206000
     26 H3B         3.6230   -0.5480   -4.7930 ha        1 M2F      0.184000
     27 H4B         5.0520   -0.6640   -2.7550 ha        1 M2F      0.194000
     28 H1          5.7980    0.8630   -0.8600 h2        1 M2F      0.068700
     29 H2          5.6380    1.1050    1.6020 h1        1 M2F      0.096700
     30 H5          7.8220   -0.3700   -1.5290 h1        1 M2F      0.074700
     31 H3          7.9520    0.9790    0.7370 h1        1 M2F      0.101700
     32 HA          7.5930   -0.6050    3.0470 ho        1 M2F      0.420000
     33 H4          7.7210   -2.1220    1.0660 h1        1 M2F      0.064700
     34 HB          9.7980   -0.9330    1.2400 ho        1 M2F      0.427000
     35 H61C        8.9040   -2.7890   -1.4250 h1        1 M2F      0.055200
     36 H62C        7.1660   -3.3900   -1.2890 h1        1 M2F      0.055200
     37 H6          7.8490   -3.1510   -3.4740 ho        1 M2F      0.411000
@<TRIPOS>BOND
     1    1    2 1   
     2    2    3 1   
     3    2    4 1   
     4    4    5 ar  
     5    4   12 ar  
     6    5    6 ar  
     7    5   25 1   
     8    6    7 1   
     9    6   10 ar  
    10    7    8 1   
    11    7    9 1   
    12   10   11 ar  
    13   10   26 1   
    14   11   12 ar  
    15   11   27 1   
    16   12   13 1   
    17   13   14 1   
    18   14   15 1   
    19   14   16 1   
    20   14   28 1   
    21   15   22 1   
    22   16   17 1   
    23   16   18 1   
    24   16   29 1   
    25   18   19 1   
    26   18   20 1   
    27   18   31 1   
    28   19   32 1   
    29   20   21 1   
    30   20   22 1   
    31   20   33 1   
    32   21   34 1   
    33   22   23 1   
    34   22   30 1   
    35   23   24 1   
    36   23   35 1   
    37   23   36 1   
    38   24   37 1   
@<TRIPOS>SUBSTRUCTURE
     1 M2F         1 TEMP              0 ****  ****    0 ROOT
