@<TRIPOS>MOLECULE
M2F
   37    38     1     0     0
SMALL
bcc


@<TRIPOS>ATOM
      1 O1B         0.2600    0.3570    0.1630 o         1 M2F     -0.191500
      2 N1B         1.4450    0.5050    0.0330 no        1 M2F      0.329200
      3 O2B         2.1440    0.9320    0.9080 o         1 M2F     -0.191500
      4 C6B         2.0560    0.1740   -1.2830 ca        1 M2F     -0.218200
      5 C1A         1.2410    0.1910   -2.4240 ca        1 M2F      0.010000
      6 C2B         1.8150   -0.0680   -3.6750 ca        1 M2F     -0.219200
      7 N1C         0.9630   -0.0330   -4.8910 no        1 M2F      0.321200
      8 O3C        -0.2040    0.2260   -4.7750 o         1 M2F     -0.199000
      9 O2C         1.4690   -0.2630   -5.9560 o         1 M2F     -0.199000
     10 C3B         3.1860   -0.3620   -3.7970 ca        1 M2F     -0.006000
     11 C4B         3.9840   -0.4050   -2.6640 ca        1 M2F     -0.203000
     12 C5B         3.4320   -0.1510   -1.3970 ca        1 M2F      0.226100
     13 O1          4.1300   -0.2630   -0.2200 os        1 M2F     -0.277900
     14 C1          5.5350   -0.0440   -0.2610 c3        1 M2F      0.309900
     15 O5          6.0250   -1.2320   -0.8530 os        1 M2F     -0.427600
     16 C2          5.9950    0.1170    1.2130 c3        1 M2F      0.131600
     17 F2          5.4660   -0.8550    2.0380 f         1 M2F     -0.210300
     18 C3          7.5410    0.0580    1.2200 c3        1 M2F      0.071100
     19 O3          8.0530    0.0940    2.5340 oh        1 M2F     -0.583800
     20 C4          8.0360   -1.2100    0.4970 c3        1 M2F      0.082100
     21 O4          9.4460   -1.1960    0.3760 oh        1 M2F     -0.590800
     22 C5          7.4560   -1.2630   -0.9250 c3        1 M2F      0.148100
     23 C6          7.8160   -2.5730   -1.6250 c3        1 M2F      0.135400
     24 O6          7.6280   -2.3520   -3.0140 oh        1 M2F     -0.605800
     25 H1A         0.1580    0.4110   -2.3330 ha        1 M2F      0.206000
     26 H3B         3.6230   -0.5680   -4.7920 ha        1 M2F      0.184000
     27 H4B         5.0510   -0.6760   -2.7540 ha        1 M2F      0.194000
     28 H1          5.8060    0.8610   -0.8710 h2        1 M2F      0.068700
     29 H2          5.6490    1.1230    1.5890 h1        1 M2F      0.096700
     30 H5          7.8230   -0.3890   -1.5310 h1        1 M2F      0.074700
     31 H3          7.9620    0.9770    0.7240 h1        1 M2F      0.101700
     32 HA          7.5940   -0.5870    3.0470 ho        1 M2F      0.420000
     33 H4          7.7130   -2.1190    1.0780 h1        1 M2F      0.064700
     34 HB          9.7960   -0.9410    1.2420 ho        1 M2F      0.427000
     35 H61C        8.8910   -2.8130   -1.4080 h1        1 M2F      0.055200
     36 H62C        7.1500   -3.4030   -1.2680 h1        1 M2F      0.055200
     37 H6          7.8340   -3.1850   -3.4540 ho        1 M2F      0.411000
@<TRIPOS>BOND
     1    1    2 1   
     2    2    3 1   
     3    2    4 1   
     4    4    5 ar  
     5    4   12 ar  
     6    5    6 ar  
     7    5   25 1   
     8    6    7 1   
     9    6   10 ar  
    10    7    8 1   
    11    7    9 1   
    12   10   11 ar  
    13   10   26 1   
    14   11   12 ar  
    15   11   27 1   
    16   12   13 1   
    17   13   14 1   
    18   14   15 1   
    19   14   16 1   
    20   14   28 1   
    21   15   22 1   
    22   16   17 1   
    23   16   18 1   
    24   16   29 1   
    25   18   19 1   
    26   18   20 1   
    27   18   31 1   
    28   19   32 1   
    29   20   21 1   
    30   20   22 1   
    31   20   33 1   
    32   21   34 1   
    33   22   23 1   
    34   22   30 1   
    35   23   24 1   
    36   23   35 1   
    37   23   36 1   
    38   24   37 1   
@<TRIPOS>SUBSTRUCTURE
     1 M2F         1 TEMP              0 ****  ****    0 ROOT
