@<TRIPOS>MOLECULE
M2F
   37    38     1     0     0
SMALL
bcc


@<TRIPOS>ATOM
      1 O1B         0.2550    0.3260    0.1680 o         1 M2F     -0.191000
      2 N1B         1.4400    0.4810    0.0370 no        1 M2F      0.329200
      3 O2B         2.1360    0.9110    0.9120 o         1 M2F     -0.191000
      4 C6B         2.0510    0.1540   -1.2800 ca        1 M2F     -0.218200
      5 C1A         1.2360    0.1680   -2.4200 ca        1 M2F      0.010000
      6 C2B         1.8100   -0.0850   -3.6720 ca        1 M2F     -0.219200
      7 N1C         0.9570   -0.0540   -4.8880 no        1 M2F      0.321200
      8 O3C        -0.2110    0.1980   -4.7710 o         1 M2F     -0.199000
      9 O2C         1.4640   -0.2800   -5.9530 o         1 M2F     -0.199000
     10 C3B         3.1830   -0.3720   -3.7960 ca        1 M2F     -0.006000
     11 C4B         3.9810   -0.4120   -2.6630 ca        1 M2F     -0.203000
     12 C5B         3.4290   -0.1630   -1.3950 ca        1 M2F      0.226100
     13 O1          4.1280   -0.2720   -0.2180 os        1 M2F     -0.277900
     14 C1          5.5310   -0.0430   -0.2600 c3        1 M2F      0.309900
     15 O5          6.0300   -1.2270   -0.8550 os        1 M2F     -0.427600
     16 C2          5.9910    0.1180    1.2140 c3        1 M2F      0.131600
     17 F2          5.4700   -0.8600    2.0380 f         1 M2F     -0.210300
     18 C3          7.5380    0.0690    1.2200 c3        1 M2F      0.071100
     19 O3          8.0500    0.1070    2.5330 oh        1 M2F     -0.583800
     20 C4          8.0410   -1.1930    0.4940 c3        1 M2F      0.082100
     21 O4          9.4510   -1.1690    0.3720 oh        1 M2F     -0.590800
     22 C5          7.4610   -1.2470   -0.9270 c3        1 M2F      0.148100
     23 C6          7.8290   -2.5540   -1.6300 c3        1 M2F      0.135400
     24 O6          7.6390   -2.3320   -3.0180 oh        1 M2F     -0.605800
     25 H1A         0.1510    0.3820   -2.3290 ha        1 M2F      0.206000
     26 H3B         3.6200   -0.5740   -4.7910 ha        1 M2F      0.184000
     27 H4B         5.0500   -0.6770   -2.7530 ha        1 M2F      0.194000
     28 H1          5.7960    0.8640   -0.8690 h2        1 M2F      0.068700
     29 H2          5.6380    1.1210    1.5910 h1        1 M2F      0.096700
     30 H5          7.8220   -0.3700   -1.5320 h1        1 M2F      0.074700
     31 H3          7.9520    0.9930    0.7250 h1        1 M2F      0.101700
     32 HA          7.5960   -0.5780    3.0460 ho        1 M2F      0.420000
     33 H4          7.7250   -2.1060    1.0730 h1        1 M2F      0.064700
     34 HB          9.8000   -0.9130    1.2380 ho        1 M2F      0.427000
     35 H61C        8.9070   -2.7870   -1.4150 h1        1 M2F      0.055200
     36 H62C        7.1700   -3.3890   -1.2740 h1        1 M2F      0.055200
     37 H6          7.8510   -3.1630   -3.4610 ho        1 M2F      0.411000
@<TRIPOS>BOND
     1    1    2 1   
     2    2    3 1   
     3    2    4 1   
     4    4    5 ar  
     5    4   12 ar  
     6    5    6 ar  
     7    5   25 1   
     8    6    7 1   
     9    6   10 ar  
    10    7    8 1   
    11    7    9 1   
    12   10   11 ar  
    13   10   26 1   
    14   11   12 ar  
    15   11   27 1   
    16   12   13 1   
    17   13   14 1   
    18   14   15 1   
    19   14   16 1   
    20   14   28 1   
    21   15   22 1   
    22   16   17 1   
    23   16   18 1   
    24   16   29 1   
    25   18   19 1   
    26   18   20 1   
    27   18   31 1   
    28   19   32 1   
    29   20   21 1   
    30   20   22 1   
    31   20   33 1   
    32   21   34 1   
    33   22   23 1   
    34   22   30 1   
    35   23   24 1   
    36   23   35 1   
    37   23   36 1   
    38   24   37 1   
@<TRIPOS>SUBSTRUCTURE
     1 M2F         1 TEMP              0 ****  ****    0 ROOT
