@<TRIPOS>MOLECULE
M2F
   37    38     1     0     0
SMALL
bcc


@<TRIPOS>ATOM
      1 O1B        -2.9250    3.3120    0.4430 o         1 M2F     -0.191500
      2 N1B        -2.0150    2.6730   -0.0130 no        1 M2F      0.329200
      3 O2B        -1.0220    3.1820   -0.4490 o         1 M2F     -0.191500
      4 C6B        -2.1510    1.1920   -0.0640 ca        1 M2F     -0.218200
      5 C1A        -3.4390    0.6360   -0.0680 ca        1 M2F      0.010000
      6 C2B        -3.5800   -0.7530   -0.1690 ca        1 M2F     -0.219200
      7 N1C        -4.9420   -1.3490   -0.1920 no        1 M2F      0.321200
      8 O3C        -5.8950   -0.6220   -0.1330 o         1 M2F     -0.199000
      9 O2C        -5.0460   -2.5430   -0.2730 o         1 M2F     -0.199000
     10 C3B        -2.4540   -1.5940   -0.2470 ca        1 M2F     -0.006000
     11 C4B        -1.1820   -1.0430   -0.2160 ca        1 M2F     -0.203000
     12 C5B        -1.0120    0.3480   -0.1130 ca        1 M2F      0.226100
     13 O1          0.2080    0.9640    0.0160 os        1 M2F     -0.277900
     14 C1          1.3400    0.3140   -0.5480 c3        1 M2F      0.309900
     15 O5          1.5920   -0.7360    0.3670 os        1 M2F     -0.427600
     16 C2          2.4810    1.3660   -0.5720 c3        1 M2F      0.131600
     17 F2          2.5940    2.0470    0.6240 f         1 M2F     -0.210300
     18 C3          3.7930    0.6120   -0.8970 c3        1 M2F      0.071100
     19 O3          4.9090    1.4720   -0.8410 oh        1 M2F     -0.583800
     20 C4          3.9900   -0.5710    0.0700 c3        1 M2F      0.082100
     21 O4          5.1110   -1.3460   -0.3120 oh        1 M2F     -0.590800
     22 C5          2.7620   -1.4920    0.0290 c3        1 M2F      0.148100
     23 C6          2.8630   -2.6030    1.0750 c3        1 M2F      0.135400
     24 O6          1.9470   -3.6120    0.6810 oh        1 M2F     -0.605800
     25 H1A        -4.3300    1.2920    0.0040 ha        1 M2F      0.206000
     26 H3B        -2.5840   -2.6900   -0.3220 ha        1 M2F      0.184000
     27 H4B        -0.2970   -1.7050   -0.2350 ha        1 M2F      0.194000
     28 H1          1.1320   -0.0820   -1.5790 h2        1 M2F      0.068700
     29 H2          2.2590    2.1170   -1.3840 h1        1 M2F      0.096700
     30 H5          2.6410   -1.9390   -0.9960 h1        1 M2F      0.074700
     31 H3          3.7690    0.2440   -1.9610 h1        1 M2F      0.101700
     32 HA          4.8790    1.9380    0.0070 ho        1 M2F      0.420000
     33 H4          4.1400   -0.1750    1.1150 h1        1 M2F      0.064700
     34 HB          5.8280   -0.7230   -0.4990 ho        1 M2F      0.427000
     35 H61C        3.9130   -3.0040    1.0730 h1        1 M2F      0.055200
     36 H62C        2.5970   -2.2080    2.0910 h1        1 M2F      0.055200
     37 H6          1.9950   -4.3030    1.3520 ho        1 M2F      0.411000
@<TRIPOS>BOND
     1    1    2 1   
     2    2    3 1   
     3    2    4 1   
     4    4    5 ar  
     5    4   12 ar  
     6    5    6 ar  
     7    5   25 1   
     8    6    7 1   
     9    6   10 ar  
    10    7    8 1   
    11    7    9 1   
    12   10   11 ar  
    13   10   26 1   
    14   11   12 ar  
    15   11   27 1   
    16   12   13 1   
    17   13   14 1   
    18   14   15 1   
    19   14   16 1   
    20   14   28 1   
    21   15   22 1   
    22   16   17 1   
    23   16   18 1   
    24   16   29 1   
    25   18   19 1   
    26   18   20 1   
    27   18   31 1   
    28   19   32 1   
    29   20   21 1   
    30   20   22 1   
    31   20   33 1   
    32   21   34 1   
    33   22   23 1   
    34   22   30 1   
    35   23   24 1   
    36   23   35 1   
    37   23   36 1   
    38   24   37 1   
@<TRIPOS>SUBSTRUCTURE
     1 M2F         1 TEMP              0 ****  ****    0 ROOT
