@<TRIPOS>MOLECULE
M2G
   42    44     1     0     0
SMALL
bcc


@<TRIPOS>ATOM
      1 P           0.0200   -0.9810   -5.1160 p5        1 M2G      1.335900
      2 OP1        -1.0340   -1.9830   -4.7500 o         1 M2G     -0.929167
      3 OP2         0.0810   -0.4780   -6.5230 o         1 M2G     -0.929167
      4 OP3         1.3450   -1.1980   -4.4070 o         1 M2G     -0.929167
      5 O5'        -0.5020    0.4140   -4.2000 os        1 M2G     -0.553200
      6 C5'        -0.6450    0.1720   -2.8640 c3        1 M2G      0.229400
      7 C4'         0.5780    0.7140   -2.0830 c3        1 M2G      0.051100
      8 O4'         0.1520    1.2890   -0.8200 os        1 M2G     -0.431600
      9 C3'         1.6470   -0.3550   -1.7880 c3        1 M2G      0.131100
     10 O3'         2.8490   -0.0640   -2.4590 oh        1 M2G     -0.685800
     11 C2'         1.8980   -0.2890   -0.2650 c3        1 M2G      0.103100
     12 O2'         3.1320    0.2790    0.1190 oh        1 M2G     -0.618800
     13 C1'         0.7530    0.6320    0.2780 c3        1 M2G      0.214800
     14 N9         -0.2700   -0.0890    1.0330 na        1 M2G     -0.176900
     15 C8         -1.3950   -0.7720    0.5280 cc        1 M2G      0.449400
     16 N7         -2.1820   -1.2960    1.4980 nd        1 M2G     -0.631000
     17 C5         -1.5600   -0.9430    2.6930 cd        1 M2G      0.201800
     18 C6         -1.9240   -1.2180    4.0670 c         1 M2G      0.639000
     19 O6         -2.9050   -1.8480    4.5010 o         1 M2G     -0.644500
     20 N1         -1.0230   -0.6850    5.0220 n         1 M2G     -0.484400
     21 C2          0.1180    0.0510    4.6570 cd        1 M2G      0.588800
     22 N2          0.9280    0.5220    5.7850 nh        1 M2G     -0.687600
     23 N3          0.4830    0.3290    3.4010 nc        1 M2G     -0.595100
     24 C4         -0.3610   -0.1780    2.4220 cc        1 M2G      0.046800
     25 CM1         2.2430   -0.0890    5.7880 c3        1 M2G      0.154100
     26 CM2         0.9700    1.9690    5.8470 c3        1 M2G      0.154100
     27 H5'        -0.7690   -0.9320   -2.6620 h1        1 M2G     -0.002300
     28 H5''       -1.5520    0.7200   -2.4700 h1        1 M2G     -0.002300
     29 H4'         1.0280    1.5710   -2.6540 h1        1 M2G      0.082700
     30 H3'         1.2850   -1.3790   -2.0870 h1        1 M2G      0.118700
     31 HO3'        2.7020   -0.3590   -3.3920 ho        1 M2G      0.517000
     32 H2'         1.8780   -1.3090    0.2000 h1        1 M2G      0.067700
     33 HO2'        3.4930    0.7480   -0.6470 ho        1 M2G      0.432000
     34 H1'         1.1690    1.4320    0.9590 h2        1 M2G      0.086700
     35 H8         -1.5700   -0.8360   -0.5620 h5        1 M2G      0.116100
     36 HN1        -1.2150   -0.8470    5.9860 hn        1 M2G      0.327500
     37 HM11        2.7310    0.1600    6.7670 h1        1 M2G      0.042033
     38 HM12        2.1300   -1.2020    5.7070 h1        1 M2G      0.042033
     39 HM13        2.9050    0.2660    4.9520 h1        1 M2G      0.042033
     40 HM21        1.4280    2.2530    6.8320 h1        1 M2G      0.042033
     41 HM22        1.5720    2.4370    5.0210 h1        1 M2G      0.042033
     42 HM23       -0.0760    2.3690    5.8000 h1        1 M2G      0.042033
@<TRIPOS>BOND
     1    1    2 1   
     2    1    3 1   
     3    1    4 1   
     4    1    5 1   
     5    5    6 1   
     6    6    7 1   
     7    6   27 1   
     8    6   28 1   
     9    7    8 1   
    10    7    9 1   
    11    7   29 1   
    12    8   13 1   
    13    9   10 1   
    14    9   11 1   
    15    9   30 1   
    16   10   31 1   
    17   11   12 1   
    18   11   13 1   
    19   11   32 1   
    20   12   33 1   
    21   13   14 1   
    22   13   34 1   
    23   14   15 1   
    24   14   24 1   
    25   15   16 2   
    26   15   35 1   
    27   16   17 1   
    28   17   18 1   
    29   17   24 2   
    30   18   19 2   
    31   18   20 1   
    32   20   21 1   
    33   20   36 1   
    34   21   22 1   
    35   21   23 2   
    36   22   25 1   
    37   22   26 1   
    38   23   24 1   
    39   25   37 1   
    40   25   38 1   
    41   25   39 1   
    42   26   40 1   
    43   26   41 1   
    44   26   42 1   
@<TRIPOS>SUBSTRUCTURE
     1 M2G         1 TEMP              0 ****  ****    0 ROOT
