@<TRIPOS>MOLECULE
M2G
   42    40     1     0     0
SMALL
bcc


@<TRIPOS>ATOM
      1 P           5.6050    1.9910    2.4770 p3        1 M2G      2.528000
      2 OP1         6.4220    2.8200    1.4710 o         1 M2G     -1.260500
      3 OP2         6.5160    1.2490    3.3470 os        1 M2G     -1.225000
      4 OP3         4.7560    2.9090    3.3050 o         1 M2G     -1.260500
      5 O5'         4.6810    0.9800    1.6990 os        1 M2G     -0.715000
      6 C5'         3.7930    1.4980    0.7100 c3        1 M2G      0.079000
      7 C4'         2.9440    0.3800    0.1700 c3        1 M2G     -0.060000
      8 O4'         1.7860    0.3920    0.7310 os        1 M2G     -0.288000
      9 C3'         2.6820    0.5910   -1.4380 c3        1 M2G      0.020000
     10 O3'         3.8140    0.0560   -2.2040 oh        1 M2G     -0.413000
     11 C2'         1.6580   -0.0430   -1.7030 c3        1 M2G     -0.008000
     12 O2'         2.0080   -1.4440   -2.1400 oh        1 M2G     -0.346000
     13 C1'         0.8320   -0.0800   -0.3360 c3        1 M2G      0.123000
     14 N9         -0.2100    0.7250   -0.4070 n3        1 M2G     -0.132000
     15 C8         -0.1910    2.0940   -0.5280 c1        1 M2G     -0.039000
     16 N7         -1.4550    2.5480   -0.3560 n2        1 M2G     -0.105000
     17 C5         -2.2460    1.4990   -0.1350 c1        1 M2G     -0.216000
     18 C6         -3.7270    1.3910    0.0730 c1        1 M2G      0.386000
     19 O6         -4.4550    2.4450    0.0480 o         1 M2G     -0.369000
     20 N1         -4.3160    0.1520    0.1890 n3        1 M2G     -0.324000
     21 C2         -3.5010   -1.0510    0.1100 c2        1 M2G      0.142000
     22 N2         -4.1050   -2.3390    0.3000 n3        1 M2G     -0.219000
     23 N3         -2.0840   -0.9460   -0.0870 n1        1 M2G     -0.168000
     24 C4         -1.4620    0.3530   -0.1670 c1        1 M2G     -0.003000
     25 CM1        -3.8720   -3.0600    1.5090 c3        1 M2G     -0.122000
     26 CM2        -5.0280   -2.8420   -0.6630 c3        1 M2G     -0.122000
     27 H5'         4.3040    1.8900   -0.0100 h1        1 M2G      0.037000
     28 H5''        3.2000    2.2080    1.1260 h1        1 M2G      0.037000
     29 H4'         3.4000   -0.5060    0.3310 h1        1 M2G      0.122000
     30 H3'         2.5520    1.5590   -1.6440 h1        1 M2G      0.158000
     31 HO3'        4.1930    0.6980   -2.6460 ho        1 M2G      0.316000
     32 H2'         1.1340    0.4240   -2.4110 h1        1 M2G      0.107000
     33 HO2'        1.6350   -1.6100   -2.9640 ho        1 M2G      0.231000
     34 H1'         0.5190   -1.0560   -0.1290 h2        1 M2G      0.126000
     35 H8          0.5890    2.6380   -0.6460 DU        1 M2G      0.253000
     36 HN1        -5.1780    0.0910    0.3700 hn        1 M2G      0.241000
     37 HM11       -4.4210   -2.6960    2.2090 h1        1 M2G      0.081333
     38 HM12       -4.1070   -4.0460    1.3690 h1        1 M2G      0.081333
     39 HM13       -2.9710   -2.9850    1.7480 h1        1 M2G      0.081333
     40 HM21       -5.2390   -2.1310   -1.3180 h1        1 M2G      0.081333
     41 HM22       -4.6180   -3.6290   -1.1400 h1        1 M2G      0.081333
     42 HM23       -5.8340   -3.1180   -0.2200 h1        1 M2G      0.081333
@<TRIPOS>BOND
     1    1    2 1   
     2    1    4 1   
     3    1    5 1   
     4    5    6 1   
     5    6    7 1   
     6    6   27 1   
     7    6   28 1   
     8    7    8 1   
     9    7    9 1   
    10    7   29 1   
    11    8   13 1   
    12    9   10 1   
    13    9   11 1   
    14    9   30 1   
    15   10   31 1   
    16   11   12 1   
    17   11   13 1   
    18   11   32 1   
    19   12   33 1   
    20   13   14 1   
    21   13   34 1   
    22   14   15 1   
    23   14   24 1   
    24   15   16 1   
    25   16   17 1   
    26   17   24 1   
    27   18   19 1   
    28   18   20 1   
    29   20   21 1   
    30   20   36 1   
    31   21   22 1   
    32   21   23 1   
    33   22   25 1   
    34   22   26 1   
    35   25   37 1   
    36   25   38 1   
    37   25   39 1   
    38   26   40 1   
    39   26   41 1   
    40   26   42 1   
@<TRIPOS>SUBSTRUCTURE
     1 M2G         1 TEMP              0 ****  ****    0 ROOT
