@<TRIPOS>MOLECULE
M2L
   27    26     1     0     0
SMALL
bcc


@<TRIPOS>ATOM
      1 N           2.5910    1.2700    0.1430 n3        1 M2L     -0.881800
      2 CA          1.2880    0.6160    0.1300 c3        1 M2L      0.016500
      3 CB          0.9250    0.0350   -1.2320 c3        1 M2L      0.038700
      4 SG         -0.2370    1.0240   -2.1610 ss        1 M2L     -0.389200
      5 CD         -1.7940    0.2460   -1.8260 c3        1 M2L      0.014700
      6 CE         -2.2350    0.4740   -0.3880 c3        1 M2L      0.132800
      7 NZ         -3.4450   -0.2710   -0.0240 n3        1 M2L     -0.731600
      8 CM1        -3.1590   -1.6840    0.1580 c3        1 M2L      0.146600
      9 CM2        -4.0850    0.3050    1.1400 c3        1 M2L      0.146600
     10 C           1.1220   -0.4970    1.2240 c         1 M2L      0.885600
     11 O           2.0590   -0.6590    2.0540 o         1 M2L     -0.841800
     12 OXT         0.0440   -1.1580    1.2260 o         1 M2L     -0.841800
     13 HN          2.7850    1.5210    1.0990 hn        1 M2L      0.331300
     14 HNA         3.2880    0.5930   -0.1150 hn        1 M2L      0.331300
     15 HA          0.5300    1.4140    0.3890 h1        1 M2L      0.059700
     16 HB          1.8150   -0.0560   -1.9020 h1        1 M2L      0.072200
     17 HBA         0.4800   -0.9820   -1.0830 h1        1 M2L      0.072200
     18 HD         -2.5160    0.7050   -2.5440 h1        1 M2L      0.058200
     19 HDA        -1.7190   -0.8450   -2.0470 h1        1 M2L      0.058200
     20 HE         -1.3700    0.1930    0.2950 h1        1 M2L      0.071200
     21 HEA        -2.4420    1.5730   -0.2560 h1        1 M2L      0.071200
     22 HM1        -2.2600   -1.8700    0.8110 h1        1 M2L      0.030033
     23 HM1A       -4.0520   -2.1950    0.6030 h1        1 M2L      0.030033
     24 HM1B       -2.9620   -2.1310   -0.8510 h1        1 M2L      0.030033
     25 HM2        -4.3610    1.3690    0.9150 h1        1 M2L      0.030033
     26 HM2A       -5.0240   -0.2680    1.3580 h1        1 M2L      0.030033
     27 HM2B       -3.4390    0.2920    2.0600 h1        1 M2L      0.030033
@<TRIPOS>BOND
     1    1    2 1   
     2    1   13 1   
     3    1   14 1   
     4    2    3 1   
     5    2   10 1   
     6    2   15 1   
     7    3    4 1   
     8    3   16 1   
     9    3   17 1   
    10    4    5 1   
    11    5    6 1   
    12    5   18 1   
    13    5   19 1   
    14    6    7 1   
    15    6   20 1   
    16    6   21 1   
    17    7    8 1   
    18    7    9 1   
    19    8   22 1   
    20    8   23 1   
    21    8   24 1   
    22    9   25 1   
    23    9   26 1   
    24    9   27 1   
    25   10   11 1   
    26   10   12 1   
@<TRIPOS>SUBSTRUCTURE
     1 M2L         1 TEMP              0 ****  ****    0 ROOT
