@<TRIPOS>MOLECULE
M2M
   23    22     1     0     0
SMALL
bcc


@<TRIPOS>ATOM
      1 C1          0.6810    0.4300    4.2820 c3        1 M2M      0.117700
      2 O1         -0.2450    0.4300    3.2110 os        1 M2M     -0.425600
      3 C2         -0.0020   -0.6200    2.2760 c3        1 M2M      0.123400
      4 C3         -0.9650   -0.3970    1.1150 c3        1 M2M      0.127400
      5 O2         -0.1690    0.0000    0.0000 os        1 M2M     -0.429600
      6 C4         -0.9630    0.4010   -1.1150 c3        1 M2M      0.127400
      7 C5          0.0020    0.6190   -2.2760 c3        1 M2M      0.123400
      8 O3         -0.2460   -0.4290   -3.2120 os        1 M2M     -0.425600
      9 C6          0.6810   -0.4320   -4.2820 c3        1 M2M      0.117700
     10 H11         0.3640    1.2880    4.9270 h1        1 M2M      0.032700
     11 H12         0.6250   -0.5300    4.8530 h1        1 M2M      0.032700
     12 H13         1.7220    0.5870    3.9050 h1        1 M2M      0.032700
     13 H21         1.0630   -0.5860    1.9240 h1        1 M2M      0.042700
     14 H22        -0.2040   -1.6060    2.7700 h1        1 M2M      0.042700
     15 H31        -1.5030   -1.3490    0.8620 h1        1 M2M      0.043700
     16 H32        -1.7110    0.4030    1.3640 h1        1 M2M      0.043700
     17 H41        -1.7120   -0.3960   -1.3650 h1        1 M2M      0.043700
     18 H42        -1.4970    1.3540   -0.8620 h1        1 M2M      0.043700
     19 H51        -0.1950    1.6070   -2.7700 h1        1 M2M      0.042700
     20 H52         1.0660    0.5810   -1.9230 h1        1 M2M      0.042700
     21 H61         0.3600   -1.2880   -4.9270 h1        1 M2M      0.032700
     22 H62         0.6300    0.5280   -4.8520 h1        1 M2M      0.032700
     23 H63         1.7210   -0.5950   -3.9050 h1        1 M2M      0.032700
@<TRIPOS>BOND
     1    1    2 1   
     2    1   10 1   
     3    1   11 1   
     4    1   12 1   
     5    2    3 1   
     6    3    4 1   
     7    3   13 1   
     8    3   14 1   
     9    4    5 1   
    10    4   15 1   
    11    4   16 1   
    12    5    6 1   
    13    6    7 1   
    14    6   17 1   
    15    6   18 1   
    16    7    8 1   
    17    7   19 1   
    18    7   20 1   
    19    8    9 1   
    20    9   21 1   
    21    9   22 1   
    22    9   23 1   
@<TRIPOS>SUBSTRUCTURE
     1 M2M         1 TEMP              0 ****  ****    0 ROOT
