@<TRIPOS>MOLECULE
M2M
   23    22     1     0     0
SMALL
bcc


@<TRIPOS>ATOM
      1 C1         -0.0070   -0.7860   -0.0640 c3        1 M2M      0.117700
      2 O1          1.3500   -0.8160    0.3430 os        1 M2M     -0.425600
      3 C2          1.6940    0.2860    1.1830 c3        1 M2M      0.123400
      4 C3          3.2010    0.2070    1.4050 c3        1 M2M      0.127400
      5 O2          3.7720    1.3080    0.7000 os        1 M2M     -0.429600
      6 C4          5.1970    1.2600    0.6890 c3        1 M2M      0.127400
      7 C5          5.6680    2.5730    0.0700 c3        1 M2M      0.123400
      8 O3          6.2740    3.3220    1.1220 os        1 M2M     -0.425600
      9 C6          6.6330    4.6320    0.7200 c3        1 M2M      0.117700
     10 H11        -0.6860   -0.8310    0.8240 h1        1 M2M      0.032700
     11 H12        -0.1280   -1.7000   -0.6970 h1        1 M2M      0.032700
     12 H13        -0.2210    0.1350   -0.6590 h1        1 M2M      0.032700
     13 H21         1.4140    1.2530    0.6880 h1        1 M2M      0.042700
     14 H22         1.1480    0.1900    2.1570 h1        1 M2M      0.042700
     15 H31         3.6110   -0.7610    1.0120 h1        1 M2M      0.043700
     16 H32         3.4430    0.3030    2.4960 h1        1 M2M      0.043700
     17 H41         5.5310    0.3900    0.0650 h1        1 M2M      0.043700
     18 H42         5.5900    1.1490    1.7340 h1        1 M2M      0.043700
     19 H51         4.8030    3.1430   -0.3630 h1        1 M2M      0.042700
     20 H52         6.4300    2.3790   -0.7300 h1        1 M2M      0.042700
     21 H61         7.3710    4.5990   -0.1200 h1        1 M2M      0.032700
     22 H62         7.0970    5.0870    1.6310 h1        1 M2M      0.032700
     23 H63         5.7290    5.2120    0.4090 h1        1 M2M      0.032700
@<TRIPOS>BOND
     1    1    2 1   
     2    1   10 1   
     3    1   11 1   
     4    1   12 1   
     5    2    3 1   
     6    3    4 1   
     7    3   13 1   
     8    3   14 1   
     9    4    5 1   
    10    4   15 1   
    11    4   16 1   
    12    5    6 1   
    13    6    7 1   
    14    6   17 1   
    15    6   18 1   
    16    7    8 1   
    17    7   19 1   
    18    7   20 1   
    19    8    9 1   
    20    9   21 1   
    21    9   22 1   
    22    9   23 1   
@<TRIPOS>SUBSTRUCTURE
     1 M2M         1 TEMP              0 ****  ****    0 ROOT
