@<TRIPOS>MOLECULE
M2M
   23    22     1     0     0
SMALL
bcc


@<TRIPOS>ATOM
      1 C1         -0.0110   -0.7900   -0.0350 c3        1 M2M      0.117700
      2 O1          1.3470   -0.8170    0.3660 os        1 M2M     -0.425600
      3 C2          1.6950    0.2910    1.1960 c3        1 M2M      0.123400
      4 C3          3.2030    0.2130    1.4140 c3        1 M2M      0.127400
      5 O2          3.7710    1.3090    0.7000 os        1 M2M     -0.429600
      6 C4          5.1960    1.2610    0.6830 c3        1 M2M      0.127400
      7 C5          5.6660    2.5690    0.0560 c3        1 M2M      0.123400
      8 O3          6.2780    3.3230    1.1010 os        1 M2M     -0.425600
      9 C6          6.6380    4.6300    0.6900 c3        1 M2M      0.117700
     10 H11        -0.6860   -0.8280    0.8550 h1        1 M2M      0.032700
     11 H12        -0.1350   -1.7090   -0.6610 h1        1 M2M      0.032700
     12 H13        -0.2270    0.1270   -0.6370 h1        1 M2M      0.032700
     13 H21         1.4140    1.2540    0.6940 h1        1 M2M      0.042700
     14 H22         1.1520    0.2030    2.1730 h1        1 M2M      0.042700
     15 H31         3.6110   -0.7580    1.0250 h1        1 M2M      0.043700
     16 H32         3.4490    0.3160    2.5030 h1        1 M2M      0.043700
     17 H41         5.5280    0.3860    0.0640 h1        1 M2M      0.043700
     18 H42         5.5940    1.1550    1.7280 h1        1 M2M      0.043700
     19 H51         4.8000    3.1380   -0.3760 h1        1 M2M      0.042700
     20 H52         6.4230    2.3710   -0.7470 h1        1 M2M      0.042700
     21 H61         7.3710    4.5910   -0.1530 h1        1 M2M      0.032700
     22 H62         7.1060    5.0900    1.5960 h1        1 M2M      0.032700
     23 H63         5.7330    5.2100    0.3800 h1        1 M2M      0.032700
@<TRIPOS>BOND
     1    1    2 1   
     2    1   10 1   
     3    1   11 1   
     4    1   12 1   
     5    2    3 1   
     6    3    4 1   
     7    3   13 1   
     8    3   14 1   
     9    4    5 1   
    10    4   15 1   
    11    4   16 1   
    12    5    6 1   
    13    6    7 1   
    14    6   17 1   
    15    6   18 1   
    16    7    8 1   
    17    7   19 1   
    18    7   20 1   
    19    8    9 1   
    20    9   21 1   
    21    9   22 1   
    22    9   23 1   
@<TRIPOS>SUBSTRUCTURE
     1 M2M         1 TEMP              0 ****  ****    0 ROOT
