@<TRIPOS>MOLECULE
M2N
   38    41     1     0     0
SMALL
bcc


@<TRIPOS>ATOM
      1 CAK         0.0660   -0.0710    0.0430 ca        1 M2N     -0.121000
      2 CAG         1.4600   -0.1030    0.0610 ca        1 M2N     -0.135500
      3 CAD         2.1470   -0.0910    1.2740 ca        1 M2N     -0.130000
      4 CAH         1.4370   -0.0490    2.4740 ca        1 M2N     -0.135500
      5 CAL         0.0440   -0.0180    2.4630 ca        1 M2N     -0.121000
      6 CAR        -0.6540   -0.0280    1.2460 ca        1 M2N     -0.034800
      7 CAU        -2.1030   -0.0040    1.2330 cc        1 M2N     -0.026400
      8 C5         -2.9680   -1.0650    1.6850 ca        1 M2N     -0.404400
      9 C6         -2.8050   -2.3640    2.2620 ca        1 M2N      0.762200
     10 NAB        -1.5420   -2.8190    2.5930 nv        1 M2N     -0.951500
     11 N1         -3.8930   -3.1360    2.5460 nb        1 M2N     -0.839000
     12 C2         -5.1550   -2.6120    2.2700 ca        1 M2N      0.911900
     13 NAA        -6.2420   -3.4770    2.4830 nv        1 M2N     -0.922500
     14 N3         -5.4440   -1.3620    1.7570 nb        1 M2N     -0.802000
     15 C4         -4.3320   -0.6280    1.4600 ca        1 M2N      0.515800
     16 NAO        -4.2830    0.6440    0.8920 na        1 M2N     -0.280100
     17 CAT        -2.9310    1.0280    0.7620 cd        1 M2N     -0.018300
     18 CAQ        -2.5680    2.3290    0.2230 ca        1 M2N     -0.036800
     19 CAI        -3.2870    2.8920   -0.8420 ca        1 M2N     -0.115500
     20 CAE        -2.9320    4.1430   -1.3430 ca        1 M2N     -0.129500
     21 CAC        -1.8590    4.8430   -0.7900 ca        1 M2N     -0.125000
     22 CAF        -1.1390    4.2860    0.2670 ca        1 M2N     -0.129500
     23 CAJ        -1.4900    3.0370    0.7740 ca        1 M2N     -0.115500
     24 HAK        -0.4740   -0.0770   -0.9150 ha        1 M2N      0.144000
     25 HAG         2.0170   -0.1360   -0.8870 ha        1 M2N      0.134000
     26 HAD         3.2470   -0.1140    1.2850 ha        1 M2N      0.132000
     27 HAH         1.9760   -0.0370    3.4320 ha        1 M2N      0.134000
     28 HAL        -0.5160    0.0150    3.4100 ha        1 M2N      0.144000
     29 HAB1       -0.7770   -2.3460    2.1720 hn        1 M2N      0.432300
     30 HAB2       -1.4230   -3.7770    2.8200 hn        1 M2N      0.432300
     31 HAA1       -6.0780   -4.2370    3.1020 hn        1 M2N      0.420300
     32 HAA2       -7.1330   -3.0430    2.5600 hn        1 M2N      0.420300
     33 HAO        -5.0590    1.2120    0.6740 hn        1 M2N      0.311700
     34 HAI        -4.1250    2.3440   -1.2980 ha        1 M2N      0.139500
     35 HAJ        -0.9200    2.5940    1.6060 ha        1 M2N      0.139500
     36 HAE        -3.4990    4.5770   -2.1790 ha        1 M2N      0.134000
     37 HAC        -1.5820    5.8300   -1.1870 ha        1 M2N      0.133000
     38 HAF        -0.2910    4.8340    0.7040 ha        1 M2N      0.134000
@<TRIPOS>BOND
     1    1    2 ar  
     2    1    6 ar  
     3    1   24 1   
     4    2    3 ar  
     5    2   25 1   
     6    3    4 ar  
     7    3   26 1   
     8    4    5 ar  
     9    4   27 1   
    10    5    6 ar  
    11    5   28 1   
    12    6    7 1   
    13    7    8 1   
    14    7   17 2   
    15    8    9 ar  
    16    8   15 ar  
    17    9   10 1   
    18    9   11 ar  
    19   10   29 1   
    20   10   30 1   
    21   11   12 ar  
    22   12   13 1   
    23   12   14 ar  
    24   13   31 1   
    25   13   32 1   
    26   14   15 ar  
    27   15   16 1   
    28   16   17 1   
    29   16   33 1   
    30   17   18 1   
    31   18   19 ar  
    32   18   23 ar  
    33   19   20 ar  
    34   19   34 1   
    35   20   21 ar  
    36   20   36 1   
    37   21   22 ar  
    38   21   37 1   
    39   22   23 ar  
    40   22   38 1   
    41   23   35 1   
@<TRIPOS>SUBSTRUCTURE
     1 M2N         1 TEMP              0 ****  ****    0 ROOT
