@<TRIPOS>MOLECULE
M2N
   38    41     1     0     0
SMALL
bcc


@<TRIPOS>ATOM
      1 CAK         0.0740   -0.1690    0.0560 ca        1 M2N     -0.123500
      2 CAG         1.4680   -0.2050    0.0900 ca        1 M2N     -0.134000
      3 CAD         2.1440   -0.0980    1.3050 ca        1 M2N     -0.130000
      4 CAH         1.4230    0.0450    2.4910 ca        1 M2N     -0.134000
      5 CAL         0.0300    0.0810    2.4640 ca        1 M2N     -0.123500
      6 CAR        -0.6570   -0.0250    1.2440 ca        1 M2N     -0.029800
      7 CAU        -2.1060   -0.0030    1.2190 cc        1 M2N     -0.027400
      8 C5         -2.9670   -1.0750    1.6500 ca        1 M2N     -0.407400
      9 C6         -2.7990   -2.3930    2.1800 ca        1 M2N      0.769200
     10 NAB        -1.5330   -2.9200    2.3230 nh        1 M2N     -0.959500
     11 N1         -3.8850   -3.1530    2.5000 nb        1 M2N     -0.842000
     12 C2         -5.1500   -2.6080    2.2810 ca        1 M2N      0.912900
     13 NAA        -6.2380   -3.3770    2.7250 nh        1 M2N     -0.922500
     14 N3         -5.4420   -1.3750    1.7300 nb        1 M2N     -0.803000
     15 C4         -4.3320   -0.6350    1.4400 ca        1 M2N      0.516800
     16 NAO        -4.2870    0.6450    0.8870 na        1 M2N     -0.281100
     17 CAT        -2.9350    1.0350    0.7660 cd        1 M2N     -0.018300
     18 CAQ        -2.5720    2.3440    0.2460 ca        1 M2N     -0.035800
     19 CAI        -3.3030    2.9310   -0.7980 ca        1 M2N     -0.116000
     20 CAE        -2.9460    4.1890   -1.2810 ca        1 M2N     -0.129500
     21 CAC        -1.8620    4.8720   -0.7310 ca        1 M2N     -0.125000
     22 CAF        -1.1300    4.2910    0.3050 ca        1 M2N     -0.129500
     23 CAJ        -1.4820    3.0350    0.7940 ca        1 M2N     -0.116000
     24 HAK        -0.4570   -0.2540   -0.9030 ha        1 M2N      0.142000
     25 HAG         2.0340   -0.3170   -0.8460 ha        1 M2N      0.134000
     26 HAD         3.2430   -0.1250    1.3290 ha        1 M2N      0.133000
     27 HAH         1.9530    0.1330    3.4500 ha        1 M2N      0.134000
     28 HAL        -0.5380    0.2020    3.3980 ha        1 M2N      0.142000
     29 HAB1       -1.4080   -3.7700    2.8160 hn        1 M2N      0.437300
     30 HAB2       -0.7690   -2.2900    2.2630 hn        1 M2N      0.437300
     31 HAA1       -6.0630   -4.3480    2.8480 hn        1 M2N      0.419800
     32 HAA2       -7.1220   -3.1460    2.3320 hn        1 M2N      0.419800
     33 HAO        -5.0640    1.2200    0.6920 hn        1 M2N      0.310700
     34 HAI        -4.1510    2.3970   -1.2520 ha        1 M2N      0.139000
     35 HAJ        -0.9030    2.5720    1.6100 ha        1 M2N      0.139000
     36 HAE        -3.5220    4.6420   -2.1010 ha        1 M2N      0.134000
     37 HAC        -1.5830    5.8640   -1.1130 ha        1 M2N      0.133000
     38 HAF        -0.2730    4.8250    0.7400 ha        1 M2N      0.134000
@<TRIPOS>BOND
     1    1    2 ar  
     2    1    6 ar  
     3    1   24 1   
     4    2    3 ar  
     5    2   25 1   
     6    3    4 ar  
     7    3   26 1   
     8    4    5 ar  
     9    4   27 1   
    10    5    6 ar  
    11    5   28 1   
    12    6    7 1   
    13    7    8 1   
    14    7   17 2   
    15    8    9 ar  
    16    8   15 ar  
    17    9   10 1   
    18    9   11 ar  
    19   10   29 1   
    20   10   30 1   
    21   11   12 ar  
    22   12   13 1   
    23   12   14 ar  
    24   13   31 1   
    25   13   32 1   
    26   14   15 ar  
    27   15   16 1   
    28   16   17 1   
    29   16   33 1   
    30   17   18 1   
    31   18   19 ar  
    32   18   23 ar  
    33   19   20 ar  
    34   19   34 1   
    35   20   21 ar  
    36   20   36 1   
    37   21   22 ar  
    38   21   37 1   
    39   22   23 ar  
    40   22   38 1   
    41   23   35 1   
@<TRIPOS>SUBSTRUCTURE
     1 M2N         1 TEMP              0 ****  ****    0 ROOT
