@<TRIPOS>MOLECULE
M2P
   32    31     1     0     0
SMALL
bcc


@<TRIPOS>ATOM
      1 C1          3.2010   -0.4570   -0.1180 c3        1 M2P      0.187400
      2 C5         -1.9240   -0.2910   -0.3680 c3        1 M2P      0.089100
      3 C6         -3.1990    0.4670    0.0930 c3        1 M2P      0.187400
      4 C4         -0.6290    0.4550    0.0200 c3        1 M2P      0.111100
      5 C3          0.6300   -0.4240   -0.1530 c3        1 M2P      0.111100
      6 C2          1.9230    0.4150   -0.2560 c3        1 M2P      0.089100
      7 O1          4.2540    0.1510   -0.7580 os        1 M2P     -0.582200
      8 O2          1.8890    1.1030   -1.4970 oh        1 M2P     -0.646800
      9 O3          0.7120   -1.3320    0.9410 oh        1 M2P     -0.621800
     10 O4         -0.6970    0.8990    1.3710 oh        1 M2P     -0.621800
     11 O6         -4.2600    0.1330   -0.7140 os        1 M2P     -0.582200
     12 P6         -5.8000   -0.0850    0.0660 p5        1 M2P      1.324900
     13 O62        -6.3290    1.3210    0.1760 o         1 M2P     -0.939167
     14 O63        -6.5170   -0.9650   -0.9250 o         1 M2P     -0.939167
     15 O61        -5.4340   -0.7310    1.3770 o         1 M2P     -0.939167
     16 H11A        3.4280   -0.6110    0.9740 h1        1 M2P      0.007200
     17 H12         2.9670   -1.4560   -0.5950 h1        1 M2P      0.007200
     18 H5         -1.9030   -1.3130    0.1070 h1        1 M2P      0.027700
     19 H61        -3.4140    0.2100    1.1670 h1        1 M2P      0.007200
     20 H62A       -2.9690    1.5710    0.0120 h1        1 M2P      0.007200
     21 H4         -0.5120    1.3870   -0.5950 h1        1 M2P      0.081700
     22 H3          0.5050   -1.0680   -1.0660 h1        1 M2P      0.081700
     23 H2          1.9090    1.1910    0.5610 h1        1 M2P      0.027700
     24 HO2         2.8070    1.1390   -1.8130 ho        1 M2P      0.436000
     25 HO3         1.1180   -0.8450    1.6690 ho        1 M2P      0.397000
     26 HO4        -1.0960    0.1790    1.8750 ho        1 M2P      0.397000
     27 P1          5.8020    0.0720    0.0310 p5        1 M2P      1.324900
     28 O5         -1.9050   -0.4780   -1.7750 oh        1 M2P     -0.646800
     29 HO5        -2.8260   -0.3980   -2.0730 ho        1 M2P      0.436000
     30 O12         6.3300   -1.2760   -0.3860 o         1 M2P     -0.939167
     31 O13         6.5110    1.2540   -0.5770 o         1 M2P     -0.939167
     32 O11         5.4520    0.1930    1.4920 o         1 M2P     -0.939167
@<TRIPOS>BOND
     1    1    6 1   
     2    1    7 1   
     3    1   16 1   
     4    1   17 1   
     5    2    3 1   
     6    2    4 1   
     7    2   18 1   
     8    2   28 1   
     9    3   11 1   
    10    3   19 1   
    11    3   20 1   
    12    4    5 1   
    13    4   10 1   
    14    4   21 1   
    15    5    6 1   
    16    5    9 1   
    17    5   22 1   
    18    6    8 1   
    19    6   23 1   
    20    7   27 1   
    21    8   24 1   
    22    9   25 1   
    23   10   26 1   
    24   11   12 1   
    25   12   13 1   
    26   12   14 1   
    27   12   15 1   
    28   27   30 1   
    29   27   31 1   
    30   27   32 1   
    31   28   29 1   
@<TRIPOS>SUBSTRUCTURE
     1 M2P         1 TEMP              0 ****  ****    0 ROOT
