@<TRIPOS>MOLECULE
M2S
   26    25     1     0     0
SMALL
bcc


@<TRIPOS>ATOM
      1 N           1.5280    2.1010    0.0000 n3        1 M2S     -0.892800
      2 CA          1.2940    0.7720    0.5510 c3        1 M2S      0.031500
      3 CB          0.0570    0.0730   -0.0740 c3        1 M2S     -0.002000
      4 CG1         0.2390   -0.0910   -1.5750 c3        1 M2S     -0.099100
      5 CG2        -0.0810   -1.3000    0.5740 c3        1 M2S     -0.099100
      6 CG         -1.1950    0.9000    0.2120 c3        1 M2S     -0.071100
      7 SD         -2.6430    0.1140   -0.3970 s4        1 M2S      0.227600
      8 OE         -3.5480    1.2340   -0.8370 o         1 M2S     -0.540200
      9 CE         -3.3500   -0.4510    1.0990 c3        1 M2S     -0.113800
     10 C           2.5480   -0.1600    0.4280 c         1 M2S      0.884600
     11 O           3.2520   -0.0680   -0.6190 o         1 M2S     -0.839800
     12 OXT         2.7990   -0.9330    1.3930 o         1 M2S     -0.839800
     13 H           2.3420    2.4760    0.4540 hn        1 M2S      0.333800
     14 H2          1.7650    1.9980   -0.9720 hn        1 M2S      0.333800
     15 HA          1.0800    0.9000    1.6520 h1        1 M2S      0.043700
     16 HG11        1.2710   -0.4740   -1.7820 hc        1 M2S      0.038367
     17 HG12       -0.5110   -0.8120   -1.9840 hc        1 M2S      0.038367
     18 HG13        0.1100    0.8840   -2.1030 hc        1 M2S      0.038367
     19 HG21       -0.1820   -1.1970    1.6810 hc        1 M2S      0.038367
     20 HG22       -0.9770   -1.8360    0.1740 hc        1 M2S      0.038367
     21 HG23        0.8330   -1.9110    0.3690 hc        1 M2S      0.038367
     22 HG2        -1.2480    1.0980    1.3110 h1        1 M2S      0.094200
     23 HG3        -1.0940    1.9020   -0.2800 h1        1 M2S      0.094200
     24 HE1        -3.7340    0.3720    1.7420 h1        1 M2S      0.074033
     25 HE2        -4.2080   -1.1190    0.8580 h1        1 M2S      0.074033
     26 HE3        -2.6020   -1.0320    1.6850 h1        1 M2S      0.074033
@<TRIPOS>BOND
     1    1    2 1   
     2    1   13 1   
     3    1   14 1   
     4    2    3 1   
     5    2   10 1   
     6    2   15 1   
     7    3    4 1   
     8    3    5 1   
     9    3    6 1   
    10    4   16 1   
    11    4   17 1   
    12    4   18 1   
    13    5   19 1   
    14    5   20 1   
    15    5   21 1   
    16    6    7 1   
    17    6   22 1   
    18    6   23 1   
    19    7    8 2   
    20    7    9 1   
    21    9   24 1   
    22    9   25 1   
    23    9   26 1   
    24   10   11 1   
    25   10   12 1   
@<TRIPOS>SUBSTRUCTURE
     1 M2S         1 TEMP              0 ****  ****    0 ROOT
