@<TRIPOS>MOLECULE
M2T
   40    42     1     0     0
SMALL
bcc


@<TRIPOS>ATOM
      1 CG          3.3640   -2.1600   -0.9560 c3        1 M2T     -0.082800
      2 SD          4.0510   -1.0180    0.1550 s6        1 M2T     -0.507200
      3 CE          4.9710   -1.8330    1.3810 c3        1 M2T     -0.082800
      4 C5'         2.8850    0.1250    0.8220 c3        1 M2T     -0.078600
      5 C4'         2.4430    1.1950   -0.1440 c3        1 M2T      0.138100
      6 O4'         1.5640    0.6420   -1.1430 os        1 M2T     -0.418600
      7 C1'         0.2200    1.0810   -0.9570 c3        1 M2T      0.228800
      8 N9         -0.6190   -0.0150   -0.5210 na        1 M2T     -0.289000
      9 C4         -1.9910    0.0850   -0.2470 ca        1 M2T      0.449800
     10 N3         -2.8290    1.1670   -0.2520 nb        1 M2T     -0.759000
     11 C2         -4.1020    0.8350    0.0680 ca        1 M2T      0.689900
     12 N1         -4.6420   -0.3720    0.3820 nb        1 M2T     -0.796000
     13 C6         -3.8030   -1.4630    0.3960 ca        1 M2T      0.765200
     14 N6         -4.2680   -2.7060    0.7310 nh        1 M2T     -0.958500
     15 C5         -2.4170   -1.2730    0.0690 ca        1 M2T     -0.228200
     16 N7         -1.3270   -2.1510   -0.0230 nc        1 M2T     -0.550100
     17 C8         -0.2860   -1.3830   -0.3750 cd        1 M2T      0.419700
     18 C2'         0.2430    2.2860    0.0400 c3        1 M2T      0.083100
     19 O2'        -0.0380    3.4710   -0.6720 oh        1 M2T     -0.593800
     20 C3'         1.6960    2.3540    0.5580 c3        1 M2T      0.125100
     21 O3'         2.3220    3.5910    0.3270 oh        1 M2T     -0.576800
     22 HG          2.7360   -2.9020   -0.4150 h1        1 M2T      0.068700
     23 HGA         2.7240   -1.6300   -1.6980 h1        1 M2T      0.068700
     24 HGB         4.1520   -2.7170   -1.5090 h1        1 M2T      0.068700
     25 HE          4.3070   -2.4720    2.0040 h1        1 M2T      0.068700
     26 HEA         5.7530   -2.4840    0.9330 h1        1 M2T      0.068700
     27 HEB         5.4730   -1.1000    2.0510 h1        1 M2T      0.068700
     28 H5'         1.9980   -0.4490    1.1820 h1        1 M2T      0.076700
     29 H5'A        3.3620    0.6130    1.7070 h1        1 M2T      0.076700
     30 H4'         3.3170    1.5990   -0.7280 h1        1 M2T      0.081700
     31 H1'        -0.1370    1.4160   -1.9800 h2        1 M2T      0.100700
     32 H2         -4.8260    1.6790    0.0740 h5        1 M2T      0.051100
     33 HN6        -5.2300   -2.8560    0.9040 hn        1 M2T      0.449800
     34 HN6A       -3.6530   -3.4780    0.6660 hn        1 M2T      0.449800
     35 H8          0.7440   -1.7260   -0.5540 h5        1 M2T      0.087800
     36 H2'        -0.4740    2.1530    0.8910 h1        1 M2T      0.083700
     37 HO2'       -1.0000    3.5220   -0.7610 ho        1 M2T      0.433000
     38 H3'         1.7200    2.2300    1.6750 h1        1 M2T      0.094700
     39 HO3'        2.1230    3.8680   -0.5780 ho        1 M2T      0.422000
     40 HSD         4.9160   -0.3390   -0.5370 hs        1 M2T      0.203800
@<TRIPOS>BOND
     1    1    2 1   
     2    1   22 1   
     3    1   23 1   
     4    1   24 1   
     5    2    3 1   
     6    2    4 1   
     7    2   40 1   
     8    3   25 1   
     9    3   26 1   
    10    3   27 1   
    11    4    5 1   
    12    4   28 1   
    13    4   29 1   
    14    5    6 1   
    15    5   20 1   
    16    5   30 1   
    17    6    7 1   
    18    7    8 1   
    19    7   18 1   
    20    7   31 1   
    21    8    9 1   
    22    8   17 1   
    23    9   10 ar  
    24    9   15 ar  
    25   10   11 ar  
    26   11   12 ar  
    27   11   32 1   
    28   12   13 ar  
    29   13   14 1   
    30   13   15 ar  
    31   14   33 1   
    32   14   34 1   
    33   15   16 1   
    34   16   17 2   
    35   17   35 1   
    36   18   19 1   
    37   18   20 1   
    38   18   36 1   
    39   19   37 1   
    40   20   21 1   
    41   20   38 1   
    42   21   39 1   
@<TRIPOS>SUBSTRUCTURE
     1 M2T         1 TEMP              0 ****  ****    0 ROOT
