@<TRIPOS>MOLECULE
M2T
   41    43     1     0     0
SMALL
bcc


@<TRIPOS>ATOM
      1 CG          1.3800   -0.7330    0.0680 c3        1 M2T     -0.079300
      2 SD          1.9150    0.9090   -0.0220 s6        1 M2T     -0.504200
      3 CE          1.4100    1.7440    1.4080 c3        1 M2T     -0.079300
      4 C5'         3.6450    1.1220   -0.3540 c3        1 M2T     -0.087600
      5 C4'         4.1870    0.2270   -1.4330 c3        1 M2T      0.172100
      6 O4'         3.5810    0.5310   -2.7120 os        1 M2T     -0.413600
      7 C1'         4.4860    1.1970   -3.5760 c3        1 M2T      0.214800
      8 N9          4.0740    2.5950   -3.7120 na        1 M2T     -0.264000
      9 C4          4.6860    3.5640   -4.5190 ca        1 M2T      0.451800
     10 N3          5.8130    3.5530   -5.2710 nb        1 M2T     -0.608000
     11 C2          6.0600    4.7210   -5.9180 ca        1 M2T      0.666900
     12 N1          5.3330    5.8760   -5.9040 nb        1 M2T     -0.679000
     13 C6          4.2070    5.8770   -5.1480 ca        1 M2T      0.511200
     14 N6          3.3690    7.0890   -5.0940 n4        1 M2T     -0.814300
     15 C5          3.8010    4.7520   -4.4100 ca        1 M2T     -0.134200
     16 N7          2.7190    4.4690   -3.5760 nc        1 M2T     -0.597100
     17 C8          2.9080    3.1890   -3.1900 cd        1 M2T      0.513700
     18 C2'         5.9290    1.0060   -3.0050 c3        1 M2T      0.090100
     19 O2'         6.6750    0.1810   -3.8590 oh        1 M2T     -0.567800
     20 C3'         5.7140    0.3740   -1.6090 c3        1 M2T      0.080100
     21 O3'         6.2630   -0.9290   -1.5800 oh        1 M2T     -0.584800
     22 HG          1.9120   -1.2760    0.8810 h1        1 M2T      0.077033
     23 HGA         0.2880   -0.7950    0.2780 h1        1 M2T      0.077033
     24 HGB         1.5750   -1.2690   -0.8880 h1        1 M2T      0.077033
     25 HE          1.9200    1.3250    2.3050 h1        1 M2T      0.077033
     26 HEA         1.6600    2.8270    1.3480 h1        1 M2T      0.077033
     27 HEB         0.3130    1.6530    1.5680 h1        1 M2T      0.077033
     28 H5'         3.8200    2.1930   -0.6080 h1        1 M2T      0.072200
     29 H5'A        4.1900    0.9010    0.5970 h1        1 M2T      0.072200
     30 H4'         3.9140   -0.8520   -1.2480 h1        1 M2T      0.110700
     31 H1'         4.3800    0.7120   -4.5950 h2        1 M2T      0.122700
     32 H2          6.9800    4.7460   -6.5480 h5        1 M2T      0.100100
     33 HN6         2.4330    6.8520   -5.4450 hn        1 M2T      0.476800
     34 HN6A        3.2950    7.3900   -4.1140 hn        1 M2T      0.476800
     35 H8          2.2320    2.6150   -2.5260 h5        1 M2T      0.123800
     36 H2'         6.5070    1.9660   -2.9510 h1        1 M2T      0.105700
     37 HO2'        6.3390   -0.7260   -3.7780 ho        1 M2T      0.430000
     38 H3'         6.1600    1.0140   -0.8050 h1        1 M2T      0.075700
     39 HO3'        7.2250   -0.8330   -1.5500 ho        1 M2T      0.427000
     40 HSD         1.2450    1.4510   -1.0010 hs        1 M2T      0.178800
     41 H63         3.7720    7.8470   -5.6610 hn        1 M2T      0.476800
@<TRIPOS>BOND
     1    1    2 1   
     2    1   22 1   
     3    1   23 1   
     4    1   24 1   
     5    2    3 1   
     6    2    4 1   
     7    2   40 1   
     8    3   25 1   
     9    3   26 1   
    10    3   27 1   
    11    4    5 1   
    12    4   28 1   
    13    4   29 1   
    14    5    6 1   
    15    5   20 1   
    16    5   30 1   
    17    6    7 1   
    18    7    8 1   
    19    7   18 1   
    20    7   31 1   
    21    8    9 1   
    22    8   17 1   
    23    9   10 ar  
    24    9   15 ar  
    25   10   11 ar  
    26   11   12 ar  
    27   11   32 1   
    28   12   13 ar  
    29   13   14 1   
    30   13   15 ar  
    31   14   33 1   
    32   14   34 1   
    33   14   41 1   
    34   15   16 1   
    35   16   17 2   
    36   17   35 1   
    37   18   19 1   
    38   18   20 1   
    39   18   36 1   
    40   19   37 1   
    41   20   21 1   
    42   20   38 1   
    43   21   39 1   
@<TRIPOS>SUBSTRUCTURE
     1 M2T         1 TEMP              0 ****  ****    0 ROOT
