@<TRIPOS>MOLECULE
M2T
   40    42     1     0     0
SMALL
bcc


@<TRIPOS>ATOM
      1 CG          1.9510    1.6580    0.2300 c3        1 M2T     -0.082800
      2 SD          2.3220   -0.0240    0.4470 s6        1 M2T     -0.510200
      3 CE          2.7340   -0.3400    2.1020 c3        1 M2T     -0.082800
      4 C5'         3.4860   -0.6250   -0.7370 c3        1 M2T     -0.080600
      5 C4'         3.5720   -2.1270   -0.8050 c3        1 M2T      0.137100
      6 O4'         4.1720   -2.5260   -2.0550 os        1 M2T     -0.411600
      7 C1'         5.4810   -3.0530   -1.8580 c3        1 M2T      0.228800
      8 N9          6.4830   -2.1120   -2.3110 na        1 M2T     -0.290000
      9 C4          7.8620   -2.3610   -2.3520 ca        1 M2T      0.448800
     10 N3          8.5860   -3.4510   -1.9530 nb        1 M2T     -0.756000
     11 C2          9.9130   -3.2960   -2.1710 ca        1 M2T      0.687900
     12 N1         10.5990   -2.2520   -2.7060 nb        1 M2T     -0.796000
     13 C6          9.8770   -1.1480   -3.0990 ca        1 M2T      0.763200
     14 N6         10.5010   -0.0430   -3.6130 nv        1 M2T     -0.957500
     15 C5          8.4500   -1.1630   -2.9380 ca        1 M2T     -0.227200
     16 N7          7.4440   -0.2330   -3.2390 nc        1 M2T     -0.552100
     17 C8          6.2990   -0.8200   -2.8600 cd        1 M2T      0.425700
     18 C2'         5.6150   -3.4230   -0.3440 c3        1 M2T      0.082100
     19 O2'         5.4820   -4.8210   -0.2010 oh        1 M2T     -0.595800
     20 C3'         4.4080   -2.7450    0.3400 c3        1 M2T      0.123100
     21 O3'         3.6400   -3.6170    1.1330 oh        1 M2T     -0.581800
     22 HG          1.5900    1.8520   -0.8040 h1        1 M2T      0.070200
     23 HGA         2.8580    2.2790    0.4010 h1        1 M2T      0.070200
     24 HGB         1.1650    1.9930    0.9410 h1        1 M2T      0.070200
     25 HE          3.6950    0.1550    2.3650 h1        1 M2T      0.070200
     26 HEA         2.8500   -1.4350    2.2750 h1        1 M2T      0.070200
     27 HEB         1.9500    0.0400    2.7930 h1        1 M2T      0.070200
     28 H5'         3.1740   -0.2380   -1.7390 h1        1 M2T      0.073700
     29 H5'A        4.4880   -0.1870   -0.5120 h1        1 M2T      0.073700
     30 H4'         2.5430   -2.5860   -0.8350 h1        1 M2T      0.079700
     31 H1'         5.5430   -3.9800   -2.5060 h2        1 M2T      0.103700
     32 H2         10.5480   -4.1580   -1.8690 h5        1 M2T      0.051100
     33 HN6         9.9450    0.6980   -3.9620 hn        1 M2T      0.448800
     34 HN6A       11.4750   -0.0510   -3.7890 hn        1 M2T      0.448800
     35 H8          5.2890   -0.3940   -2.9410 h5        1 M2T      0.086800
     36 H2'         6.5810   -3.0690    0.1010 h1        1 M2T      0.082700
     37 HO2'        6.3410   -5.2070   -0.4180 ho        1 M2T      0.431000
     38 H3'         4.7600   -1.9510    1.0560 h1        1 M2T      0.093700
     39 HO3'        3.5020   -4.4360    0.6380 ho        1 M2T      0.426000
     40 HSD         1.2020   -0.6530    0.2520 hs        1 M2T      0.206800
@<TRIPOS>BOND
     1    1    2 1   
     2    1   22 1   
     3    1   23 1   
     4    1   24 1   
     5    2    3 1   
     6    2    4 1   
     7    2   40 1   
     8    3   25 1   
     9    3   26 1   
    10    3   27 1   
    11    4    5 1   
    12    4   28 1   
    13    4   29 1   
    14    5    6 1   
    15    5   20 1   
    16    5   30 1   
    17    6    7 1   
    18    7    8 1   
    19    7   18 1   
    20    7   31 1   
    21    8    9 1   
    22    8   17 1   
    23    9   10 ar  
    24    9   15 ar  
    25   10   11 ar  
    26   11   12 ar  
    27   11   32 1   
    28   12   13 ar  
    29   13   14 1   
    30   13   15 ar  
    31   14   33 1   
    32   14   34 1   
    33   15   16 1   
    34   16   17 2   
    35   17   35 1   
    36   18   19 1   
    37   18   20 1   
    38   18   36 1   
    39   19   37 1   
    40   20   21 1   
    41   20   38 1   
    42   21   39 1   
@<TRIPOS>SUBSTRUCTURE
     1 M2T         1 TEMP              0 ****  ****    0 ROOT
