@<TRIPOS>MOLECULE
M2T
   40    42     1     0     0
SMALL
bcc


@<TRIPOS>ATOM
      1 CG          1.3350   -1.1600    0.0140 c3        1 M2T     -0.081300
      2 SD          1.9020    0.1720   -0.9480 s6        1 M2T     -0.516200
      3 CE          0.9320    1.5890   -0.6830 c3        1 M2T     -0.081300
      4 C5'         3.6420    0.4780   -0.8630 c3        1 M2T     -0.080600
      5 C4'         4.4810   -0.6190   -1.4620 c3        1 M2T      0.136100
      6 O4'         4.2740   -0.7160   -2.8790 os        1 M2T     -0.409600
      7 C1'         5.3950   -0.1980   -3.6070 c3        1 M2T      0.211800
      8 N9          5.1150    1.1040   -4.1600 na        1 M2T     -0.279000
      9 C4          4.5420    1.3510   -5.4200 ca        1 M2T      0.475800
     10 N3          4.2780    0.5110   -6.4650 nb        1 M2T     -0.730000
     11 C2          3.7490    1.1570   -7.5310 ca        1 M2T      0.688900
     12 N1          3.4560    2.4730   -7.7040 nb        1 M2T     -0.795000
     13 C6          3.7160    3.3260   -6.6550 ca        1 M2T      0.761200
     14 N6          3.4170    4.6600   -6.7420 nh        1 M2T     -0.958500
     15 C5          4.2840    2.7870   -5.4530 ca        1 M2T     -0.238200
     16 N7          4.6700    3.3720   -4.2370 nc        1 M2T     -0.540100
     17 C8          5.1360    2.3590   -3.4960 cd        1 M2T      0.397700
     18 C2'         6.6200   -0.2120   -2.6310 c3        1 M2T      0.129100
     19 O2'         7.5160   -1.2250   -3.0060 oh        1 M2T     -0.565800
     20 C3'         5.9950   -0.4060   -1.2320 c3        1 M2T      0.071100
     21 O3'         6.5990   -1.5520   -0.6580 oh        1 M2T     -0.591800
     22 HG          1.4940   -0.9480    1.0940 h1        1 M2T      0.066200
     23 HGA         1.8810   -2.0940   -0.2430 h1        1 M2T      0.066200
     24 HGB         0.2490   -1.3390   -0.1450 h1        1 M2T      0.066200
     25 HE          1.0690    1.9580    0.3570 h1        1 M2T      0.066200
     26 HEA         1.2240    2.4040   -1.3820 h1        1 M2T      0.066200
     27 HEB        -0.1480    1.3740   -0.8340 h1        1 M2T      0.066200
     28 H5'         3.8420    1.4450   -1.3840 h1        1 M2T      0.069200
     29 H5'A        3.9110    0.6010    0.2130 h1        1 M2T      0.069200
     30 H4'         4.1640   -1.6240   -1.0610 h1        1 M2T      0.071700
     31 H1'         5.5470   -0.9200   -4.4670 h2        1 M2T      0.132700
     32 H2          3.5160    0.5130   -8.4070 h5        1 M2T      0.053100
     33 HN6         3.7020    5.2580   -6.0070 hn        1 M2T      0.446800
     34 HN6A        3.1000    5.0500   -7.5940 hn        1 M2T      0.446800
     35 H8          5.5330    2.4510   -2.4780 h5        1 M2T      0.068800
     36 H2'         7.2240    0.7340   -2.6820 h1        1 M2T      0.098700
     37 HO2'        7.1530   -2.0750   -2.7190 ho        1 M2T      0.426000
     38 H3'         6.1830    0.4920   -0.5860 h1        1 M2T      0.060700
     39 HO3'        6.2070   -1.6670    0.2160 ho        1 M2T      0.415000
     40 HSD         1.6360   -0.1760   -2.1700 hs        1 M2T      0.242800
@<TRIPOS>BOND
     1    1    2 1   
     2    1   22 1   
     3    1   23 1   
     4    1   24 1   
     5    2    3 1   
     6    2    4 1   
     7    2   40 1   
     8    3   25 1   
     9    3   26 1   
    10    3   27 1   
    11    4    5 1   
    12    4   28 1   
    13    4   29 1   
    14    5    6 1   
    15    5   20 1   
    16    5   30 1   
    17    6    7 1   
    18    7    8 1   
    19    7   18 1   
    20    7   31 1   
    21    8    9 1   
    22    8   17 1   
    23    9   10 ar  
    24    9   15 ar  
    25   10   11 ar  
    26   11   12 ar  
    27   11   32 1   
    28   12   13 ar  
    29   13   14 1   
    30   13   15 ar  
    31   14   33 1   
    32   14   34 1   
    33   15   16 1   
    34   16   17 2   
    35   17   35 1   
    36   18   19 1   
    37   18   20 1   
    38   18   36 1   
    39   19   37 1   
    40   20   21 1   
    41   20   38 1   
    42   21   39 1   
@<TRIPOS>SUBSTRUCTURE
     1 M2T         1 TEMP              0 ****  ****    0 ROOT
