@<TRIPOS>MOLECULE
M2W
   51    48     1     0     0
SMALL
bcc


@<TRIPOS>ATOM
      1 C8          0.4240   -0.7370   -0.1560 c         1 M2W      0.600100
      2 O27         0.2100   -0.8390   -1.3790 o         1 M2W     -0.667100
      3 O22        -1.1630    1.9130    1.1490 o         1 M2W     -0.625000
      4 C9          1.0730   -1.7730    0.6450 ce        1 M2W     -0.294200
      5 C20        -1.1550    1.9900    2.3860 c         1 M2W      0.665100
      6 C16         0.0130    1.9280    3.3580 c3        1 M2W      0.125500
      7 C13         0.2730    3.3520    3.8570 c3        1 M2W     -0.137100
      8 C10         1.4580   -2.9560    0.1610 c2        1 M2W     -0.097000
      9 N19         1.1440    1.2460    2.7620 n3        1 M2W     -0.914800
     10 N7         -0.7310   -2.7360   -3.5170 n3        1 M2W     -0.932800
     11 C3         -0.1870   -3.6890   -4.4100 cx        1 M2W      0.263600
     12 C1         -2.0430   -0.4310   -4.1710 c         1 M2W      0.584900
     13 O6         -2.9280   -0.7270   -3.3900 o         1 M2W     -0.420100
     14 C35        -1.0600   -4.6270   -5.1910 cx        1 M2W      0.010700
     15 S37        -0.0290   -5.4680   -4.0040 ss        1 M2W     -0.429200
     16 N2         -0.8580    0.3240   -3.6490 n4        1 M2W     -0.639800
     17 C4         -0.6890    1.6070   -4.3380 cx        1 M2W     -0.015500
     18 C23        -2.9080    2.3170   -0.7350 c1        1 M2W      0.945000
     19 O25        -3.5720    2.5850    0.2090 o         1 M2W     -0.471500
     20 C5          0.6990    2.0500   -4.8220 cx        1 M2W      0.130100
     21 O41         1.7100    1.0990   -4.6580 os        1 M2W     -0.415600
     22 C46        -0.3620    1.6680   -5.8170 cx        1 M2W     -0.126400
     23 C42         2.9660    1.6460   -4.2550 c3        1 M2W      0.116700
     24 O26        -2.2690    2.0530   -1.7100 o         1 M2W     -0.471500
     25 H91C       -3.0650    2.2340    2.3480 ho        1 M2W      0.460000
     26 H92C        1.2240   -1.5040    1.7060 ha        1 M2W      0.162000
     27 H16         1.0600    3.3400    4.6490 hc        1 M2W      0.060033
     28 H131       -0.3310    1.3010    4.2390 h1        1 M2W      0.105700
     29 H132       -0.6660    3.7710    4.2930 hc        1 M2W      0.060033
     30 H101        0.6120    4.0150    3.0260 hc        1 M2W      0.060033
     31 H102        1.3120   -3.2360   -0.8930 ha        1 M2W      0.128500
     32 H191        1.5090    1.7700    1.9900 hn        1 M2W      0.365800
     33 H192        1.8620    1.1160    3.4480 hn        1 M2W      0.365800
     34 H7         -1.5910   -3.0510   -3.1050 hn        1 M2W      0.387800
     35 H3         -0.0740   -2.5120   -2.7880 hn        1 M2W      0.387800
     36 H351        0.6960   -3.2710   -4.9450 h2        1 M2W      0.113700
     37 H352       -0.8300   -4.7620   -6.2630 h1        1 M2W      0.102200
     38 H37        -2.1500   -4.6230   -5.0090 h1        1 M2W      0.102200
     39 H2         -0.9550    0.4930   -2.6280 hn        1 M2W      0.489300
     40 H4         -0.0070   -0.2510   -3.7720 hn        1 M2W      0.489300
     41 H5         -1.3710    2.3740   -3.8990 hx        1 M2W      0.150700
     42 H461        1.0020    3.1040   -4.6740 h1        1 M2W      0.123700
     43 H462       -0.2270    0.7320   -6.3920 hc        1 M2W      0.110700
     44 H463       -0.8500    2.4610   -6.4170 hc        1 M2W      0.110700
     45 H421        2.8720    2.1410   -3.2580 h1        1 M2W      0.058700
     46 H422        3.6340    0.7490   -4.1950 h1        1 M2W      0.058700
     47 H423        3.3390    2.3670   -5.0210 h1        1 M2W      0.058700
     48 H193        1.9410   -3.7200    0.7890 ha        1 M2W      0.128500
     49 H72         0.1150    0.1850    0.3940 h4        1 M2W      0.048200
     50 H22        -1.9740   -0.6440   -5.2580 hx        1 M2W      0.115200
     51 O21        -2.3470    2.1670    3.0030 oh        1 M2W     -0.586100
@<TRIPOS>BOND
     1    1    2 2   
     2    1    4 1   
     3    1   49 1   
     4    3    5 2   
     5    4    8 2   
     6    4   26 1   
     7    5    6 1   
     8    5   51 1   
     9    6    7 1   
    10    6    9 1   
    11    6   28 1   
    12    7   27 1   
    13    7   29 1   
    14    7   30 1   
    15    8   31 1   
    16    8   48 1   
    17    9   32 1   
    18    9   33 1   
    19   10   11 1   
    20   10   34 1   
    21   10   35 1   
    22   11   14 1   
    23   11   15 1   
    24   11   36 1   
    25   12   13 2   
    26   12   16 1   
    27   12   50 1   
    28   14   15 1   
    29   14   37 1   
    30   14   38 1   
    31   16   17 1   
    32   16   39 1   
    33   16   40 1   
    34   17   20 1   
    35   17   22 1   
    36   17   41 1   
    37   18   19 2   
    38   18   24 2   
    39   20   21 1   
    40   20   22 1   
    41   20   42 1   
    42   21   23 1   
    43   22   43 1   
    44   22   44 1   
    45   23   45 1   
    46   23   46 1   
    47   23   47 1   
    48   25   51 1   
@<TRIPOS>SUBSTRUCTURE
     1 M2W         1 TEMP              0 ****  ****    0 ROOT
