@<TRIPOS>MOLECULE
M2W
   48    45     1     0     0
SMALL
bcc


@<TRIPOS>ATOM
      1 C8         -0.0460   -0.6190    1.6490 c1        1 M2W      0.305000
      2 O27         1.1710   -0.5880    1.6730 o         1 M2W     -0.395000
      3 O22        -1.0910    1.9970    7.7510 o         1 M2W     -0.583500
      4 C9         -0.8450   -0.3220    2.9210 c2        1 M2W     -0.181000
      5 C20         0.0260    1.7230    7.2200 c1        1 M2W      0.306000
      6 C16         0.2470    0.3500    6.5590 c2        1 M2W     -0.125000
      7 C13        -0.6970    0.1970    5.3920 c3        1 M2W     -0.144000
      8 C10         0.1190   -0.1380    4.1020 c3        1 M2W     -0.153000
      9 N19         0.0020   -0.6680    7.5010 n3        1 M2W     -0.324000
     10 O21         0.9440    2.5910    7.1980 o         1 M2W     -0.583500
     11 N7         -0.7300   -0.8470    0.4190 n3        1 M2W     -0.370000
     12 C3         -0.0100   -1.2920   -0.7280 c3        1 M2W      0.009000
     13 C1         -0.7470   -0.8590   -1.9880 c2        1 M2W      0.282000
     14 O6         -1.8760   -1.2690   -2.2050 o         1 M2W     -0.406000
     15 C35         0.0990   -2.8040   -0.7020 c3        1 M2W     -0.259000
     16 S37         1.7170   -3.2940   -1.2650 sh        1 M2W     -0.096000
     17 N2         -0.1070    0.0640   -2.9340 n         1 M2W     -0.323000
     18 C4         -0.5150    0.0820   -4.3020 c3        1 M2W     -0.060000
     19 C23        -2.0280    0.2850   -4.3800 c2        1 M2W      0.332000
     20 O25        -2.7620   -0.6030   -4.9160 o         1 M2W     -0.561000
     21 C5          0.1840    1.2120   -5.0180 c3        1 M2W      0.020000
     22 O41         1.5550    1.2310   -4.6470 os        1 M2W     -0.283000
     23 C46         0.0680    1.0120   -6.5200 c3        1 M2W     -0.245000
     24 C42         2.2480    2.4340   -5.0330 c3        1 M2W     -0.070000
     25 O26        -2.5490    1.3470   -3.9260 o         1 M2W     -0.561000
     26 H91C       -1.3650    0.4950    2.7950 ha        1 M2W      0.104500
     27 H92C       -1.4570   -1.0770    3.1090 ha        1 M2W      0.104500
     28 H16         1.1640    0.2860    6.2430 h4        1 M2W      0.081000
     29 H131       -1.1810    1.0240    5.2600 hc        1 M2W      0.086500
     30 H132       -1.3250   -0.5210    5.5740 hc        1 M2W      0.086500
     31 H101        0.6260   -0.9630    4.2430 hc        1 M2W      0.084000
     32 H102        0.7340    0.5910    3.9080 hc        1 M2W      0.084000
     33 H191        0.6760   -1.2940    7.4590 hn        1 M2W      0.125500
     34 H192       -0.0240   -0.3100    8.3290 hn        1 M2W      0.125500
     35 H7         -1.6500   -0.7300    0.3720 hn        1 M2W      0.241000
     36 H3          0.8650   -0.9090   -0.7240 h1        1 M2W      0.140000
     37 H351       -0.5790   -3.1880   -1.2880 h1        1 M2W      0.123000
     38 H352       -0.0400   -3.1250    0.2100 h1        1 M2W      0.123000
     39 H37         1.7850   -4.4610   -1.2820 hs        1 M2W      0.089000
     40 H2          0.5500    0.6400   -2.6420 hn        1 M2W      0.248000
     41 H4         -0.2780   -0.7670   -4.7250 h1        1 M2W      0.121000
     42 H5         -0.2270    2.0520   -4.7720 h1        1 M2W      0.084000
     43 H461        0.6860    0.3060   -6.8040 hc        1 M2W      0.083333
     44 H462       -0.8530    0.7530   -6.7460 hc        1 M2W      0.083333
     45 H463        0.2930    1.8510   -6.9810 hc        1 M2W      0.083333
     46 H421        1.6250    3.1930   -5.0140 h1        1 M2W      0.056667
     47 H422        2.9910    2.6030   -4.4040 h1        1 M2W      0.056667
     48 H423        2.6060    2.3270   -5.9410 h1        1 M2W      0.056667
@<TRIPOS>BOND
     1    1    2 1   
     2    1   11 1   
     3    3    5 1   
     4    4    8 1   
     5    4   26 1   
     6    4   27 1   
     7    5   10 1   
     8    6    7 1   
     9    6    9 1   
    10    6   28 1   
    11    7    8 1   
    12    7   29 1   
    13    7   30 1   
    14    8   31 1   
    15    8   32 1   
    16    9   33 1   
    17    9   34 1   
    18   11   12 1   
    19   11   35 1   
    20   12   13 1   
    21   12   15 1   
    22   12   36 1   
    23   13   14 1   
    24   13   17 1   
    25   15   16 1   
    26   15   37 1   
    27   15   38 1   
    28   16   39 1   
    29   17   18 1   
    30   17   40 1   
    31   18   19 1   
    32   18   21 1   
    33   18   41 1   
    34   19   20 1   
    35   19   25 1   
    36   21   22 1   
    37   21   23 1   
    38   21   42 1   
    39   22   24 1   
    40   23   43 1   
    41   23   44 1   
    42   23   45 1   
    43   24   46 1   
    44   24   47 1   
    45   24   48 1   
@<TRIPOS>SUBSTRUCTURE
     1 M2W         1 TEMP              0 ****  ****    0 ROOT
