@<TRIPOS>MOLECULE
M2W
   51    47     1     0     0
SMALL
bcc


@<TRIPOS>ATOM
      1 C8          3.2130    0.1370   -1.6800 c         1 M2W      0.584900
      2 O27         2.7310    0.9120   -2.5120 o         1 M2W     -0.574100
      3 O22        -2.6300   -2.6750    0.5570 o         1 M2W     -0.831300
      4 C9          2.4220   -0.4890   -0.5740 c3        1 M2W     -0.201400
      5 C20        -1.3880   -2.4910    0.7470 c         1 M2W      0.912600
      6 C16        -0.6150   -1.5520   -0.2130 c3        1 M2W      0.012500
      7 C13         0.1930   -0.5360    0.5900 c3        1 M2W     -0.091400
      8 C10         1.1560    0.2740   -0.2480 c3        1 M2W     -0.104400
      9 N19        -1.5560   -0.9040   -1.1800 n4        1 M2W     -0.826600
     10 N7         -3.0240   -4.7150    2.5850 nh        1 M2W     -0.321100
     11 C3         -2.3650   -5.1310    3.6270 c2        1 M2W      0.396200
     12 C1         -0.8530    2.1610   -3.5590 c         1 M2W      0.682900
     13 O6         -0.9400    1.1690   -2.7900 o         1 M2W     -0.768100
     14 C35        -1.1840   -4.4450    4.2130 c3        1 M2W     -0.119600
     15 S37         0.1690   -5.4500    3.6900 sh        1 M2W     -0.292900
     16 N2          0.3600    2.5680   -4.0310 n         1 M2W     -0.439100
     17 C4          0.5720    3.6370   -4.9050 c2        1 M2W     -0.099400
     18 C23         4.3120    1.8310   -4.2900 c1        1 M2W      0.908000
     19 O25         5.1840    1.1560   -3.8420 o         1 M2W     -0.456000
     20 C5         -0.3290    4.3450   -5.6320 c2        1 M2W      0.022900
     21 O41        -1.6800    4.0540   -5.5070 os        1 M2W     -0.363900
     22 C46         0.0840    5.4620   -6.5130 c3        1 M2W     -0.073900
     23 C42        -2.5130    4.5040   -6.5720 c3        1 M2W      0.118700
     24 O26         3.4410    2.5060   -4.7400 o         1 M2W     -0.456000
     25 H91C        3.0700   -0.5620    0.3410 hc        1 M2W      0.074200
     26 H92C        2.1820   -1.5410   -0.8900 hc        1 M2W      0.074200
     27 H16         1.4330    1.2010    0.3230 hc        1 M2W      0.074200
     28 H131        0.0880   -2.2010   -0.8140 hx        1 M2W      0.100700
     29 H132       -0.5020    0.1560    1.1360 hc        1 M2W      0.082200
     30 H101        0.7530   -1.1220    1.3720 hc        1 M2W      0.082200
     31 H102        0.6720    0.6220   -1.2030 hc        1 M2W      0.074200
     32 H191       -1.6930    0.0850   -0.9430 hn        1 M2W      0.466800
     33 H192       -2.4630   -1.3940   -1.1380 hn        1 M2W      0.466800
     34 H7         -3.7720   -5.2520    2.1890 hn        1 M2W      0.348200
     35 H3         -2.7720   -3.8560    2.0820 hn        1 M2W      0.348200
     36 H351       -2.6710   -6.0880    4.1160 h4        1 M2W      0.060800
     37 H352       -1.2360   -4.4760    5.3320 h1        1 M2W      0.139700
     38 H37        -1.0750   -3.3770    3.8860 h1        1 M2W      0.139700
     39 H2          1.1860    2.0790   -3.7390 hn        1 M2W      0.343500
     40 H4          0.5380   -4.7700    2.5990 hs        1 M2W      0.262800
     41 H5          1.6460    3.9070   -4.9900 h4        1 M2W      0.174000
     42 H461       -0.1840    5.2390   -7.5760 hc        1 M2W      0.060367
     43 H462        1.1880    5.6270   -6.4560 hc        1 M2W      0.060367
     44 H463       -0.4320    6.4060   -6.2050 hc        1 M2W      0.060367
     45 H421       -2.5230    5.6200   -6.6180 h1        1 M2W      0.048033
     46 H422       -2.1760    4.0740   -7.5460 h1        1 M2W      0.048033
     47 H423       -3.5250    4.1130   -6.2950 h1        1 M2W      0.048033
     48 H193       -1.1790   -0.9310   -2.1320 hn        1 M2W      0.466800
     49 H72         4.2890   -0.1530   -1.7270 h4        1 M2W      0.026200
     50 H22        -1.7510    2.7410   -3.8730 h5        1 M2W      0.081200
     51 O21        -0.7640   -3.0700    1.6760 o         1 M2W     -0.831300
@<TRIPOS>BOND
     1    1    2 2   
     2    1    4 1   
     3    1   49 1   
     4    3    5 1   
     5    4    8 1   
     6    4   25 1   
     7    4   26 1   
     8    5    6 1   
     9    5   51 1   
    10    6    7 1   
    11    6    9 1   
    12    6   28 1   
    13    7    8 1   
    14    7   29 1   
    15    7   30 1   
    16    8   27 1   
    17    8   31 1   
    18    9   32 1   
    19    9   33 1   
    20    9   48 1   
    21   10   11 2   
    22   10   34 1   
    23   10   35 1   
    24   11   14 1   
    25   11   36 1   
    26   12   13 2   
    27   12   16 1   
    28   12   50 1   
    29   14   15 1   
    30   14   37 1   
    31   14   38 1   
    32   15   40 1   
    33   16   17 1   
    34   16   39 1   
    35   17   20 2   
    36   17   41 1   
    37   18   19 2   
    38   18   24 2   
    39   20   21 1   
    40   20   22 1   
    41   21   23 1   
    42   22   42 1   
    43   22   43 1   
    44   22   44 1   
    45   23   45 1   
    46   23   46 1   
    47   23   47 1   
@<TRIPOS>SUBSTRUCTURE
     1 M2W         1 TEMP              0 ****  ****    0 ROOT
