@<TRIPOS>MOLECULE
M2W
   51    46     1     0     0
SMALL
bcc


@<TRIPOS>ATOM
      1 C8         -1.5230   -0.5450    0.8770 c         1 M2W      0.595900
      2 O27        -1.7020   -1.7580    0.6960 o         1 M2W     -0.638100
      3 O22         1.1080    0.1250   -1.0170 o         1 M2W     -0.857800
      4 C9         -2.3940    0.2650    1.7800 c3        1 M2W     -0.207400
      5 C20         1.4800   -0.9840   -1.5020 c         1 M2W      0.914600
      6 C16         2.8140   -1.6270   -1.1000 c3        1 M2W      0.284600
      7 C13        -2.5580    2.2840    3.2320 c3        1 M2W     -0.097100
      8 C10        -1.6560    1.4560    2.3530 c3        1 M2W     -0.074400
      9 N19         3.7380   -0.7720   -0.4940 n8        1 M2W     -0.900800
     10 N7         -0.6690   -4.3980    0.4250 nv        1 M2W     -0.354100
     11 C3          0.0510   -3.7420   -0.4500 c2        1 M2W      0.419200
     12 C1         -0.4270   -0.0140   -4.3600 c2        1 M2W      0.549500
     13 O6         -0.8380    0.1270   -5.6350 os        1 M2W     -0.317700
     14 C35         1.3860   -4.1500   -0.9450 c3        1 M2W     -0.101600
     15 S37         2.3900   -3.0860    0.0510 ss        1 M2W     -0.455200
     16 N2         -0.2650    0.9440   -3.4820 nv        1 M2W     -0.408100
     17 C4         -1.1220    1.4190   -6.1320 c2        1 M2W     -0.101900
     18 C23        -1.6420    4.5820   -3.1710 c1        1 M2W      0.920000
     19 O25        -1.7290    3.6000   -3.8480 o         1 M2W     -0.459500
     20 C5         -0.5530    1.8080   -7.2810 c2        1 M2W     -0.083200
     21 O41         0.3340    3.3000   -2.0570 o         1 M2W     -0.615100
     22 C46         0.4510    1.0570   -8.0510 c3        1 M2W     -0.088900
     23 C42         1.1970    3.2330   -1.1770 c         1 M2W      0.594700
     24 O26        -1.5760    5.5620   -2.5090 o         1 M2W     -0.459500
     25 H91C       -2.7970   -0.3760    2.6090 hc        1 M2W      0.081200
     26 H92C       -3.2790    0.6170    1.1800 hc        1 M2W      0.081200
     27 H16        -1.9950    3.1550    3.6480 hc        1 M2W      0.043367
     28 H131        3.2690   -2.1430   -1.9890 h2        1 M2W      0.093700
     29 H132       -3.4290    2.6720    2.6510 hc        1 M2W      0.043367
     30 H101       -2.9470    1.6760    4.0840 hc        1 M2W      0.043367
     31 H102       -0.7750    1.0980    2.9490 hc        1 M2W      0.043700
     32 H191       -1.2560    2.0890    1.5180 hc        1 M2W      0.043700
     33 H192        3.3430   -0.1130    0.1420 hn        1 M2W      0.407800
     34 H7         -0.3800   -5.2740    0.8130 hn        1 M2W      0.324200
     35 H3         -1.5130   -3.9870    0.7920 hn        1 M2W      0.324200
     36 H351       -0.3430   -2.7580   -0.8410 h4        1 M2W      0.122800
     37 H352        1.4770   -3.9070   -2.0380 h1        1 M2W      0.130700
     38 H37         1.6610   -5.2180   -0.7750 h1        1 M2W      0.130700
     39 H2         -0.4090    1.9190   -3.6840 hn        1 M2W      0.355700
     40 H4          0.0610    0.7220   -2.5400 hn        1 M2W      0.355700
     41 H5         -1.8870    1.9660   -5.5620 h4        1 M2W      0.179000
     42 H461       -0.8710    2.7760   -7.7120 ha        1 M2W      0.160000
     43 H462        0.7720    0.1230   -7.5280 hc        1 M2W      0.067033
     44 H463        0.0250    0.7730   -9.0480 hc        1 M2W      0.067033
     45 H421        1.3530    1.6970   -8.2310 hc        1 M2W      0.067033
     46 H422        1.7320    2.2820   -0.9570 h4        1 M2W      0.012700
     47 H423        1.4670    4.1200   -0.5660 h4        1 M2W      0.012700
     48 H193        4.5720   -1.2080   -0.1660 hn        1 M2W      0.407800
     49 H72        -0.6940   -0.0090    0.3530 h4        1 M2W      0.044200
     50 H22        -0.2290   -1.0930   -4.1030 h5        1 M2W      0.152800
     51 O21         0.7530   -1.6010   -2.3450 o         1 M2W     -0.857800
@<TRIPOS>BOND
     1    1    2 2   
     2    1    4 1   
     3    1   49 1   
     4    3    5 1   
     5    4    8 1   
     6    4   25 1   
     7    4   26 1   
     8    5    6 1   
     9    5   51 1   
    10    6    9 1   
    11    6   15 1   
    12    6   28 1   
    13    7    8 1   
    14    7   27 1   
    15    7   29 1   
    16    7   30 1   
    17    8   31 1   
    18    8   32 1   
    19    9   33 1   
    20    9   48 1   
    21   10   11 2   
    22   10   34 1   
    23   10   35 1   
    24   11   14 1   
    25   11   36 1   
    26   12   13 1   
    27   12   16 2   
    28   12   50 1   
    29   13   17 1   
    30   14   15 1   
    31   14   37 1   
    32   14   38 1   
    33   16   39 1   
    34   16   40 1   
    35   17   20 2   
    36   17   41 1   
    37   18   19 2   
    38   18   24 2   
    39   20   22 1   
    40   20   42 1   
    41   21   23 2   
    42   22   43 1   
    43   22   44 1   
    44   22   45 1   
    45   23   46 1   
    46   23   47 1   
@<TRIPOS>SUBSTRUCTURE
     1 M2W         1 TEMP              0 ****  ****    0 ROOT
