@<TRIPOS>MOLECULE
M2W
   48    47     1     0     0
SMALL
bcc


@<TRIPOS>ATOM
      1 C8          1.1920   -1.0040    1.1420 c         1 M2W      0.665100
      2 O27         0.8480   -1.4380    2.2620 o         1 M2W     -0.630100
      3 O22         7.8690    0.4720   -1.5470 o         1 M2W     -0.849300
      4 C9          2.5430   -1.3530    0.5450 c3        1 M2W     -0.150400
      5 C20         7.1920    0.0590   -0.5600 c         1 M2W      0.886600
      6 C16         5.7420    0.6160   -0.3720 c3        1 M2W      0.022500
      7 C13         4.7920   -0.5670   -0.1790 c3        1 M2W     -0.065400
      8 C10         3.4210   -0.1420    0.3070 c3        1 M2W     -0.074400
      9 N19         5.3160    1.5380   -1.4180 n3        1 M2W     -0.890800
     10 N7          0.3610   -0.1830    0.4010 n         1 M2W     -0.551900
     11 C3         -0.9970    0.1070    0.7750 c3        1 M2W      0.041700
     12 C1         -2.0140   -0.3820   -0.3070 c         1 M2W      0.635100
     13 O6         -1.6610   -0.4580   -1.5060 o         1 M2W     -0.652100
     14 C35        -1.2780    1.6110    0.9220 c3        1 M2W     -0.008300
     15 S37        -0.7360    2.1550    2.5210 sh        1 M2W     -0.366900
     16 N2         -3.2640   -0.7040    0.1390 n         1 M2W     -0.503900
     17 C4         -4.4300   -0.7880   -0.7040 c3        1 M2W     -0.061300
     18 C23        -5.6300   -1.4890    0.0360 c         1 M2W      0.915600
     19 O25        -6.4680   -2.0710   -0.7020 o         1 M2W     -0.830300
     20 C5         -4.9510    0.5740   -1.2420 c3        1 M2W      0.129100
     21 O41        -4.6320    1.6830   -0.3880 os        1 M2W     -0.448600
     22 C46        -4.3410    0.9110   -2.5910 c3        1 M2W     -0.099100
     23 C42        -5.4550    1.7620    0.7640 c3        1 M2W      0.097700
     24 O26        -5.7050   -1.3990    1.2930 o         1 M2W     -0.830300
     25 H91C        3.0510   -2.0530    1.2610 hc        1 M2W      0.063700
     26 H92C        2.3830   -1.9060   -0.4180 hc        1 M2W      0.063700
     27 H16         5.7570    1.2120    0.5870 h1        1 M2W      0.042700
     28 H131        4.6900   -1.1370   -1.1390 hc        1 M2W      0.046200
     29 H132        5.2700   -1.2530    0.5700 hc        1 M2W      0.046200
     30 H101        2.9440    0.5370   -0.4470 hc        1 M2W      0.046700
     31 H102        3.5250    0.4410    1.2590 hc        1 M2W      0.046700
     32 H191        6.1180    2.0930   -1.6700 hn        1 M2W      0.329300
     33 H192        5.0740    1.0070   -2.2350 hn        1 M2W      0.329300
     34 H7          0.6060    0.0220   -0.5410 hn        1 M2W      0.324500
     35 H3         -1.2050   -0.4040    1.7650 h1        1 M2W      0.112700
     36 H351       -0.7590    2.1920    0.1230 h1        1 M2W      0.080200
     37 H352       -2.3780    1.7950    0.8170 h1        1 M2W      0.080200
     38 H37        -1.2940    3.3500    2.5110 hs        1 M2W      0.175800
     39 H2         -3.4710   -0.6240    1.1130 hn        1 M2W      0.327500
     40 H4         -4.1690   -1.4200   -1.6020 h1        1 M2W      0.073700
     41 H5         -6.0710    0.4930   -1.3400 h1        1 M2W      0.053700
     42 H461       -4.6800    0.1610   -3.3430 hc        1 M2W      0.039033
     43 H462       -4.6620    1.9290   -2.9160 hc        1 M2W      0.039033
     44 H463       -3.2260    0.8850   -2.5300 hc        1 M2W      0.039033
     45 H421       -6.4760    2.1190    0.4750 h1        1 M2W      0.037033
     46 H422       -5.5300    0.7720    1.2840 h1        1 M2W      0.037033
     47 H423       -4.9540    2.5210    1.4160 h1        1 M2W      0.037033
     48 O21         7.6270   -0.7580    0.2990 o         1 M2W     -0.849300
@<TRIPOS>BOND
     1    1    2 2   
     2    1    4 1   
     3    1   10 1   
     4    3    5 1   
     5    4    8 1   
     6    4   25 1   
     7    4   26 1   
     8    5    6 1   
     9    5   48 1   
    10    6    7 1   
    11    6    9 1   
    12    6   27 1   
    13    7    8 1   
    14    7   28 1   
    15    7   29 1   
    16    8   30 1   
    17    8   31 1   
    18    9   32 1   
    19    9   33 1   
    20   10   11 1   
    21   10   34 1   
    22   11   12 1   
    23   11   14 1   
    24   11   35 1   
    25   12   13 2   
    26   12   16 1   
    27   14   15 1   
    28   14   36 1   
    29   14   37 1   
    30   15   38 1   
    31   16   17 1   
    32   16   39 1   
    33   17   18 1   
    34   17   20 1   
    35   17   40 1   
    36   18   19 1   
    37   18   24 1   
    38   20   21 1   
    39   20   22 1   
    40   20   41 1   
    41   21   23 1   
    42   22   42 1   
    43   22   43 1   
    44   22   44 1   
    45   23   45 1   
    46   23   46 1   
    47   23   47 1   
@<TRIPOS>SUBSTRUCTURE
     1 M2W         1 TEMP              0 ****  ****    0 ROOT
