@<TRIPOS>MOLECULE
M30
   25    25     1     0     0
SMALL
bcc


@<TRIPOS>ATOM
      1 OXT         2.8730   -1.9020    0.0350 o         1 M30     -0.848300
      2 C           2.2390   -0.8610    0.3650 c         1 M30      0.883600
      3 O           2.0520   -0.4870    1.5590 o         1 M30     -0.848300
      4 CA          1.6660    0.0100   -0.7830 c3        1 M30      0.022800
      5 N           0.5950    0.9240   -0.4290 n3        1 M30     -0.805200
      6 C3         -0.7360    0.3270   -0.4800 c3        1 M30      0.179500
      7 C4         -1.8280    1.3960   -0.2960 c3        1 M30     -0.095900
      8 C5         -3.2040    0.7930   -0.4830 c3        1 M30     -0.070400
      9 C6         -3.4450   -0.3520    0.4800 c3        1 M30     -0.074400
     10 C7         -2.3610   -1.4040    0.3550 c3        1 M30     -0.070400
     11 C8         -0.9850   -0.8030    0.5330 c3        1 M30     -0.095900
     12 HA1         2.5100    0.6500   -1.1650 h1        1 M30      0.031700
     13 HA2         1.3430   -0.6670   -1.6180 h1        1 M30      0.031700
     14 H2          0.7650    1.2460    0.5130 hn        1 M30      0.364800
     15 H4         -0.8620   -0.1100   -1.5170 h1        1 M30      0.034700
     16 H5         -1.7480    1.8410    0.7300 hc        1 M30      0.052950
     17 H6         -1.6810    2.2230   -1.0380 hc        1 M30      0.052950
     18 H7         -3.9840    1.5830   -0.3280 hc        1 M30      0.025450
     19 H8         -3.3090    0.4210   -1.5360 hc        1 M30      0.025450
     20 H9         -3.4610    0.0420    1.5300 hc        1 M30      0.024200
     21 H10        -4.4470   -0.8110    0.2770 hc        1 M30      0.024200
     22 H11        -2.5240   -2.2020    1.1260 hc        1 M30      0.025450
     23 H12        -2.4310   -1.8920   -0.6520 hc        1 M30      0.025450
     24 H13        -0.1960   -1.5930    0.4050 hc        1 M30      0.052950
     25 H14        -0.8700   -0.4020    1.5740 hc        1 M30      0.052950
@<TRIPOS>BOND
     1    1    2 1   
     2    2    3 1   
     3    2    4 1   
     4    4    5 1   
     5    4   12 1   
     6    4   13 1   
     7    5    6 1   
     8    5   14 1   
     9    6    7 1   
    10    6   11 1   
    11    6   15 1   
    12    7    8 1   
    13    7   16 1   
    14    7   17 1   
    15    8    9 1   
    16    8   18 1   
    17    8   19 1   
    18    9   10 1   
    19    9   20 1   
    20    9   21 1   
    21   10   11 1   
    22   10   22 1   
    23   10   23 1   
    24   11   24 1   
    25   11   25 1   
@<TRIPOS>SUBSTRUCTURE
     1 M30         1 TEMP              0 ****  ****    0 ROOT
