@<TRIPOS>MOLECULE
M31
   59    61     1     0     0
SMALL
bcc


@<TRIPOS>ATOM
      1 C7         -5.1420    0.8020    0.9230 c3        1 M31     -0.248300
      2 S8         -3.8900    0.5090   -0.2440 s6        1 M31      1.451900
      3 C6         -6.4600    1.0710    0.2990 ca        1 M31     -0.076300
      4 C1         -7.1400    0.0480   -0.3770 ca        1 M31     -0.114000
      5 C2         -8.3920    0.2920   -0.9370 ca        1 M31     -0.126500
      6 C30        -8.9760    1.5540   -0.8260 ca        1 M31     -0.120000
      7 C4         -8.3030    2.5740   -0.1550 ca        1 M31     -0.126500
      8 C5         -7.0510    2.3350    0.4080 ca        1 M31     -0.114000
      9 O13        -4.1970   -0.6850   -0.9300 o         1 M31     -0.643300
     10 O14        -3.6810    1.6770   -0.9950 o         1 M31     -0.643300
     11 N9         -2.6090    0.2630    0.7180 n3        1 M31     -0.921100
     12 C10        -2.1160   -1.0250    1.0880 c3        1 M31      0.165800
     13 C11        -0.5860   -1.0700    1.2300 c         1 M31      0.653100
     14 O15         0.0800   -0.0280    1.4160 o         1 M31     -0.625100
     15 N12         0.0330   -2.2980    1.1370 n         1 M31     -0.455800
     16 C16         1.4460   -2.4830    1.4490 c3        1 M31      0.032700
     17 C17         2.3740   -2.2120    0.2380 c         1 M31      0.652100
     18 O18         3.1750   -3.0830   -0.1600 o         1 M31     -0.621100
     19 C21         1.6040   -3.9350    1.9510 c3        1 M31     -0.088400
     20 C22         0.2850   -4.6410    1.6580 c3        1 M31     -0.089400
     21 C23        -0.6900   -3.5580    1.1690 c3        1 M31      0.085000
     22 N19         2.2670   -0.9820   -0.3660 n         1 M31     -0.549900
     23 C20         3.1500   -0.5660   -1.4240 c3        1 M31      0.123300
     24 C24         4.2960    0.2980   -0.9650 ca        1 M31     -0.084300
     25 C25         5.6200   -0.1600   -0.9390 ca        1 M31     -0.057300
     26 C26         5.9880   -1.5690   -1.3130 c3        1 M31      0.184100
     27 N32         6.1300   -1.7500   -2.7400 n3        1 M31     -0.912800
     28 C27         6.6400    0.7110   -0.5360 ca        1 M31     -0.126000
     29 C28         6.3590    2.0170   -0.1460 ca        1 M31     -0.122000
     30 C29         5.0330    2.4630   -0.1620 ca        1 M31      0.016400
     31 CL3         4.6720    4.0540    0.3150 cl        1 M31     -0.096400
     32 C31         4.0060    1.6100   -0.5690 ca        1 M31     -0.121000
     33 H7         -4.8720    1.6660    1.5890 h1        1 M31      0.111200
     34 H7A        -5.2600   -0.0800    1.6090 h1        1 M31      0.111200
     35 H1         -6.6710   -0.9440   -0.4810 ha        1 M31      0.142500
     36 H2         -8.9170   -0.5140   -1.4710 ha        1 M31      0.135500
     37 H30        -9.9640    1.7440   -1.2700 ha        1 M31      0.134000
     38 H4         -8.7590    3.5720   -0.0700 ha        1 M31      0.135500
     39 H5         -6.5240    3.1460    0.9340 ha        1 M31      0.142500
     40 HN9        -2.0240    1.0130    1.0200 hn        1 M31      0.470800
     41 H10        -2.5310   -1.3260    2.0960 h1        1 M31      0.073700
     42 H10A       -2.4530   -1.7850    0.3210 h1        1 M31      0.073700
     43 H16         1.7520   -1.7500    2.2550 h1        1 M31      0.085700
     44 H21         2.4580   -4.4430    1.4360 hc        1 M31      0.076700
     45 H21A        1.8150   -3.9250    3.0490 hc        1 M31      0.076700
     46 H22         0.4190   -5.4200    0.8680 hc        1 M31      0.059700
     47 H22A       -0.1160   -5.1420    2.5730 hc        1 M31      0.059700
     48 H23        -1.5780   -3.4860    1.8560 h1        1 M31      0.050700
     49 H23A       -1.0640   -3.7950    0.1340 h1        1 M31      0.050700
     50 HN19        1.7470   -0.2660    0.0930 hn        1 M31      0.332500
     51 H20         3.5330   -1.4800   -1.9620 h1        1 M31      0.082200
     52 H20A        2.5350    0.0350   -2.1590 h1        1 M31      0.082200
     53 H26         6.9340   -1.8390   -0.7500 h1        1 M31      0.050200
     54 H26A        5.1830   -2.2770   -0.9520 h1        1 M31      0.050200
     55 HN32        6.8100   -1.1220   -3.1190 hn        1 M31      0.350800
     56 HN3A        6.3980   -2.6920   -2.9420 hn        1 M31      0.350800
     57 H27         7.6830    0.3570   -0.5210 ha        1 M31      0.135000
     58 H28         7.1700    2.6890    0.1700 ha        1 M31      0.146000
     59 H31         2.9640    1.9670   -0.5860 ha        1 M31      0.148000
@<TRIPOS>BOND
     1    1    2 1   
     2    1    3 1   
     3    1   33 1   
     4    1   34 1   
     5    2    9 2   
     6    2   10 2   
     7    2   11 1   
     8    3    4 ar  
     9    3    8 ar  
    10    4    5 ar  
    11    4   35 1   
    12    5    6 ar  
    13    5   36 1   
    14    6    7 ar  
    15    6   37 1   
    16    7    8 ar  
    17    7   38 1   
    18    8   39 1   
    19   11   12 1   
    20   11   40 1   
    21   12   13 1   
    22   12   41 1   
    23   12   42 1   
    24   13   14 2   
    25   13   15 1   
    26   15   16 1   
    27   15   21 1   
    28   16   17 1   
    29   16   19 1   
    30   16   43 1   
    31   17   18 2   
    32   17   22 1   
    33   19   20 1   
    34   19   44 1   
    35   19   45 1   
    36   20   21 1   
    37   20   46 1   
    38   20   47 1   
    39   21   48 1   
    40   21   49 1   
    41   22   23 1   
    42   22   50 1   
    43   23   24 1   
    44   23   51 1   
    45   23   52 1   
    46   24   25 ar  
    47   24   32 ar  
    48   25   26 1   
    49   25   28 ar  
    50   26   27 1   
    51   26   53 1   
    52   26   54 1   
    53   27   55 1   
    54   27   56 1   
    55   28   29 ar  
    56   28   57 1   
    57   29   30 ar  
    58   29   58 1   
    59   30   31 1   
    60   30   32 ar  
    61   32   59 1   
@<TRIPOS>SUBSTRUCTURE
     1 M31         1 TEMP              0 ****  ****    0 ROOT
