@<TRIPOS>MOLECULE
M32
   62    64     1     0     0
SMALL
bcc


@<TRIPOS>ATOM
      1 C7         -4.9420    0.8880    0.7810 c3        1 M32     -0.249300
      2 S8         -3.6080    0.4100   -0.2240 s6        1 M32      1.450900
      3 C6         -6.1880    1.1280    0.0140 ca        1 M32     -0.076300
      4 C1         -6.8540    0.0580   -0.5980 ca        1 M32     -0.113500
      5 C2         -8.0410    0.2790   -1.2930 ca        1 M32     -0.127000
      6 C30        -8.5730    1.5650   -1.3820 ca        1 M32     -0.120000
      7 C4         -7.9130    2.6330   -0.7750 ca        1 M32     -0.127000
      8 C5         -6.7260    2.4170   -0.0770 ca        1 M32     -0.113500
      9 O13        -3.9190   -0.8360   -0.8080 o         1 M32     -0.642800
     10 O14        -3.2680    1.4790   -1.0690 o         1 M32     -0.642800
     11 N9         -2.4320    0.2150    0.8750 n3        1 M32     -0.918100
     12 C10        -2.0510   -1.0430    1.4540 c3        1 M32      0.184500
     13 C33        -2.4740   -1.2070    2.9170 c3        1 M32     -0.116100
     14 C11        -0.5080   -1.2080    1.4290 c         1 M32      0.652100
     15 O15         0.2270   -0.2470    1.7410 o         1 M32     -0.628100
     16 N12         0.0310   -2.4130    1.0380 n         1 M32     -0.452800
     17 C16         1.4610   -2.6900    1.1480 c3        1 M32      0.031700
     18 C17         2.2680   -2.2130   -0.0850 c         1 M32      0.652100
     19 O18         2.9880   -3.0090   -0.7230 o         1 M32     -0.622100
     20 C21         1.6040   -4.2150    1.3410 c3        1 M32     -0.088400
     21 C22         0.2370   -4.8190    1.0370 c3        1 M32     -0.090400
     22 C23        -0.7370   -3.6380    0.8950 c3        1 M32      0.085000
     23 N19         2.1520   -0.8880   -0.4330 n         1 M32     -0.549900
     24 C20         2.9340   -0.2990   -1.4880 c3        1 M32      0.122300
     25 C24         4.1560    0.4410   -1.0080 ca        1 M32     -0.083300
     26 C25         5.4560   -0.0410   -1.2100 ca        1 M32     -0.057300
     27 C26         5.7270   -1.3650   -1.8710 c3        1 M32      0.184100
     28 N32         5.7170   -1.2810   -3.3140 n3        1 M32     -0.912800
     29 C27         6.5470    0.7190   -0.7700 ca        1 M32     -0.126000
     30 C28         6.3600    1.9360   -0.1210 ca        1 M32     -0.122000
     31 C29         5.0590    2.4050    0.0880 ca        1 M32      0.016400
     32 CL3         4.8140    3.8880    0.8820 cl        1 M32     -0.097400
     33 C31         3.9620    1.6630   -0.3520 ca        1 M32     -0.121000
     34 H7         -4.6880    1.8160    1.3620 h1        1 M32      0.110200
     35 H7A        -5.1580    0.1010    1.5540 h1        1 M32      0.110200
     36 H1         -6.4240   -0.9560   -0.5450 ha        1 M32      0.142500
     37 H2         -8.5550   -0.5650   -1.7760 ha        1 M32      0.135500
     38 H30        -9.5100    1.7380   -1.9320 ha        1 M32      0.134000
     39 H4         -8.3270    3.6500   -0.8470 ha        1 M32      0.135500
     40 H5         -6.2080    3.2650    0.3970 ha        1 M32      0.142500
     41 HN9        -1.8490    0.9700    1.1650 hn        1 M32      0.466800
     42 H10        -2.5410   -1.8610    0.8390 h1        1 M32      0.092700
     43 H33        -1.9780   -0.4420    3.5610 hc        1 M32      0.053033
     44 H33A       -3.5810   -1.0990    3.0180 hc        1 M32      0.053033
     45 H33B       -2.1800   -2.2230    3.2730 hc        1 M32      0.053033
     46 H16         1.8830   -2.1370    2.0390 h1        1 M32      0.085700
     47 H21         2.3900   -4.6320    0.6620 hc        1 M32      0.076200
     48 H21A        1.9070   -4.4270    2.3960 hc        1 M32      0.076200
     49 H22         0.2660   -5.4070    0.0870 hc        1 M32      0.059700
     50 H22A       -0.0940   -5.5010    1.8570 hc        1 M32      0.059700
     51 H23        -1.5380   -3.6950    1.6820 h1        1 M32      0.052700
     52 H23A       -1.2320   -3.6480   -0.1160 h1        1 M32      0.052700
     53 HN19        1.7140   -0.2610    0.2050 hn        1 M32      0.332500
     54 H20         3.2220   -1.1040   -2.2250 h1        1 M32      0.082200
     55 H20A        2.2700    0.4400   -2.0280 h1        1 M32      0.082200
     56 H26         6.7120   -1.7560   -1.4700 h1        1 M32      0.049700
     57 H26A        4.9320   -2.1100   -1.5610 h1        1 M32      0.049700
     58 HN32        6.3850   -0.6120   -3.6420 hn        1 M32      0.350800
     59 HN3A        5.9200   -2.1760   -3.7120 hn        1 M32      0.350800
     60 H27         7.5700    0.3460   -0.9330 ha        1 M32      0.135000
     61 H28         7.2260    2.5210    0.2210 ha        1 M32      0.146000
     62 H31         2.9390    2.0390   -0.1900 ha        1 M32      0.148000
@<TRIPOS>BOND
     1    1    2 1   
     2    1    3 1   
     3    1   34 1   
     4    1   35 1   
     5    2    9 2   
     6    2   10 2   
     7    2   11 1   
     8    3    4 ar  
     9    3    8 ar  
    10    4    5 ar  
    11    4   36 1   
    12    5    6 ar  
    13    5   37 1   
    14    6    7 ar  
    15    6   38 1   
    16    7    8 ar  
    17    7   39 1   
    18    8   40 1   
    19   11   12 1   
    20   11   41 1   
    21   12   13 1   
    22   12   14 1   
    23   12   42 1   
    24   13   43 1   
    25   13   44 1   
    26   13   45 1   
    27   14   15 2   
    28   14   16 1   
    29   16   17 1   
    30   16   22 1   
    31   17   18 1   
    32   17   20 1   
    33   17   46 1   
    34   18   19 2   
    35   18   23 1   
    36   20   21 1   
    37   20   47 1   
    38   20   48 1   
    39   21   22 1   
    40   21   49 1   
    41   21   50 1   
    42   22   51 1   
    43   22   52 1   
    44   23   24 1   
    45   23   53 1   
    46   24   25 1   
    47   24   54 1   
    48   24   55 1   
    49   25   26 ar  
    50   25   33 ar  
    51   26   27 1   
    52   26   29 ar  
    53   27   28 1   
    54   27   56 1   
    55   27   57 1   
    56   28   58 1   
    57   28   59 1   
    58   29   30 ar  
    59   29   60 1   
    60   30   31 ar  
    61   30   61 1   
    62   31   32 1   
    63   31   33 ar  
    64   33   62 1   
@<TRIPOS>SUBSTRUCTURE
     1 M32         1 TEMP              0 ****  ****    0 ROOT
