@<TRIPOS>MOLECULE
M33
   42    44     1     0     0
SMALL
bcc


@<TRIPOS>ATOM
      1 PB          1.0470    0.9350   -0.1350 p5        1 M33      1.513600
      2 O1B         2.3450    1.4730    0.3310 o         1 M33     -0.901000
      3 O2B         0.5510   -0.3730    0.3470 o         1 M33     -0.901000
      4 C3B         1.0190    0.9430   -1.8310 c3        1 M33     -0.367300
      5 PA         -1.1960    3.2350    0.4160 p5        1 M33      1.621800
      6 O1A        -0.9630    4.4230   -0.4520 o         1 M33     -0.903500
      7 O2A        -1.6270    3.4070    1.8150 o         1 M33     -0.903500
      8 O3A        -0.1150    2.0990    0.1710 os        1 M33     -0.821800
      9 O5'        -2.5320    2.5680   -0.3850 os        1 M33     -0.569200
     10 C5'        -3.6320    3.3950   -0.4550 c3        1 M33      0.215400
     11 C4'        -3.7380    4.0480   -1.8490 c3        1 M33      0.055100
     12 O4'        -5.1260    4.1100   -2.2510 os        1 M33     -0.424600
     13 C3'        -3.1510    5.4720   -1.9200 c3        1 M33      0.123100
     14 O3'        -2.0380    5.5190   -2.7810 oh        1 M33     -0.657800
     15 C2'        -4.2700    6.3560   -2.5140 c3        1 M33      0.107100
     16 O2'        -4.0630    6.7630   -3.8470 oh        1 M33     -0.603800
     17 C1'        -5.5470    5.4490   -2.4690 c3        1 M33      0.213800
     18 N9         -6.5000    5.8380   -1.4400 na        1 M33     -0.260000
     19 C8         -6.4160    5.5820   -0.0510 cc        1 M33      0.446700
     20 N7         -7.4880    5.9990    0.6440 nd        1 M33     -0.578100
     21 C5         -8.3490    6.5500   -0.3150 ca        1 M33     -0.211200
     22 C6         -9.6440    7.1520   -0.2270 ca        1 M33      0.712200
     23 N6        -10.2220    7.3670    1.0190 nv        1 M33     -0.936500
     24 N1        -10.2700    7.5620   -1.3750 nb        1 M33     -0.803000
     25 C2         -9.5900    7.4020   -2.5460 ca        1 M33      0.652900
     26 N3         -8.3700    6.8770   -2.7840 nb        1 M33     -0.710000
     27 C4         -7.7460    6.4420   -1.6460 ca        1 M33      0.444800
     28 H3B1        1.7460    0.2080   -2.2380 hc        1 M33      0.045033
     29 H3B2        0.0100    0.6780   -2.2120 hc        1 M33      0.045033
     30 H3B3        1.2840    1.9470   -2.2280 hc        1 M33      0.045033
     31 H5'1       -3.5790    4.1900    0.3430 h1        1 M33      0.012200
     32 H5'2       -4.5610    2.7760   -0.2960 h1        1 M33      0.012200
     33 H4'        -3.2400    3.3810   -2.6060 h1        1 M33      0.095700
     34 H3'        -2.8610    5.8430   -0.8990 h1        1 M33      0.098700
     35 HO3'       -1.2800    5.1740   -2.2620 ho        1 M33      0.503000
     36 H2'        -4.4010    7.3040   -1.9300 h1        1 M33      0.075700
     37 HO2'       -3.4210    6.1610   -4.2490 ho        1 M33      0.431000
     38 H1'        -6.0870    5.4640   -3.4610 h2        1 M33      0.102700
     39 H8         -5.5330    5.0690    0.3690 h5        1 M33      0.108800
     40 HN61       -9.8450    6.8230    1.7600 hn        1 M33      0.417300
     41 HN62      -11.2030    7.5200    1.0440 hn        1 M33      0.417300
     42 H2        -10.1350    7.7600   -3.4450 h5        1 M33      0.034100
@<TRIPOS>BOND
     1    1    2 1   
     2    1    3 1   
     3    1    4 1   
     4    1    8 1   
     5    4   28 1   
     6    4   29 1   
     7    4   30 1   
     8    5    6 1   
     9    5    7 1   
    10    5    8 1   
    11    5    9 1   
    12    9   10 1   
    13   10   11 1   
    14   10   31 1   
    15   10   32 1   
    16   11   12 1   
    17   11   13 1   
    18   11   33 1   
    19   12   17 1   
    20   13   14 1   
    21   13   15 1   
    22   13   34 1   
    23   14   35 1   
    24   15   16 1   
    25   15   17 1   
    26   15   36 1   
    27   16   37 1   
    28   17   18 1   
    29   17   38 1   
    30   18   19 1   
    31   18   27 1   
    32   19   20 2   
    33   19   39 1   
    34   20   21 1   
    35   21   22 ar  
    36   21   27 ar  
    37   22   23 1   
    38   22   24 ar  
    39   23   40 1   
    40   23   41 1   
    41   24   25 ar  
    42   25   26 ar  
    43   25   42 1   
    44   26   27 ar  
@<TRIPOS>SUBSTRUCTURE
     1 M33         1 TEMP              0 ****  ****    0 ROOT
