@<TRIPOS>MOLECULE
M33
   42    44     1     0     0
SMALL
bcc


@<TRIPOS>ATOM
      1 PB          1.0210    0.9090   -0.1950 p5        1 M33      1.513600
      2 O1B         2.3330    1.4350    0.2440 o         1 M33     -0.901500
      3 O2B         0.5190   -0.3900    0.3030 o         1 M33     -0.901500
      4 C3B         0.9610    0.9100   -1.8900 c3        1 M33     -0.367300
      5 PA         -1.1860    3.2370    0.3880 p5        1 M33      1.621800
      6 O1A        -0.9560    4.4180   -0.4890 o         1 M33     -0.903500
      7 O2A        -1.5890    3.4200    1.7930 o         1 M33     -0.903500
      8 O3A        -0.1220    2.0880    0.1280 os        1 M33     -0.821800
      9 O5'        -2.5440    2.5820   -0.3850 os        1 M33     -0.569200
     10 C5'        -3.6360    3.4200   -0.4390 c3        1 M33      0.215400
     11 C4'        -3.7600    4.0690   -1.8340 c3        1 M33      0.055100
     12 O4'        -5.1540    4.1440   -2.2110 os        1 M33     -0.424600
     13 C3'        -3.1590    5.4860   -1.9220 c3        1 M33      0.123100
     14 O3'        -2.0620    5.5160   -2.8040 oh        1 M33     -0.657800
     15 C2'        -4.2790    6.3790   -2.5000 c3        1 M33      0.107100
     16 O2'        -4.0920    6.7780   -3.8380 oh        1 M33     -0.603800
     17 C1'        -5.5640    5.4860   -2.4270 c3        1 M33      0.213800
     18 N9         -6.4950    5.8900   -1.3820 na        1 M33     -0.260000
     19 C8         -6.3880    5.6390    0.0050 cc        1 M33      0.446700
     20 N7         -7.4430    6.0710    0.7180 nd        1 M33     -0.578100
     21 C5         -8.3150    6.6270   -0.2280 ca        1 M33     -0.211200
     22 C6         -9.6010    7.2440   -0.1180 ca        1 M33      0.712200
     23 N6        -10.1550    7.4710    1.1360 nh        1 M33     -0.936500
     24 N1        -10.2430    7.6560   -1.2560 nb        1 M33     -0.803000
     25 C2         -9.5870    7.4840   -2.4400 ca        1 M33      0.652900
     26 N3         -8.3770    6.9440   -2.6980 nb        1 M33     -0.710000
     27 C4         -7.7380    6.5070   -1.5680 ca        1 M33      0.444800
     28 H3B1        1.6710    0.1650   -2.3080 hc        1 M33      0.045033
     29 H3B2        1.2310    1.9090   -2.2960 hc        1 M33      0.045033
     30 H3B3       -0.0590    0.6570   -2.2510 hc        1 M33      0.045033
     31 H5'1       -3.5600    4.2180    0.3540 h1        1 M33      0.012200
     32 H5'2       -4.5690    2.8120   -0.2610 h1        1 M33      0.012200
     33 H4'        -3.2830    3.3920   -2.5970 h1        1 M33      0.095700
     34 H3'        -2.8460    5.8580   -0.9080 h1        1 M33      0.098700
     35 HO3'       -1.2980    5.1650   -2.2970 ho        1 M33      0.503000
     36 H2'        -4.3890    7.3310   -1.9170 h1        1 M33      0.075700
     37 HO2'       -3.4630    6.1680   -4.2480 ho        1 M33      0.431000
     38 H1'        -6.1230    5.5030   -3.4090 h2        1 M33      0.102700
     39 H8         -5.5030    5.1190    0.4120 h5        1 M33      0.108800
     40 HN61      -11.1330    7.6350    1.1790 hn        1 M33      0.417300
     41 HN62       -9.7700    6.9260    1.8730 hn        1 M33      0.417300
     42 H2        -10.1440    7.8430   -3.3300 h5        1 M33      0.034100
@<TRIPOS>BOND
     1    1    2 1   
     2    1    3 1   
     3    1    4 1   
     4    1    8 1   
     5    4   28 1   
     6    4   29 1   
     7    4   30 1   
     8    5    6 1   
     9    5    7 1   
    10    5    8 1   
    11    5    9 1   
    12    9   10 1   
    13   10   11 1   
    14   10   31 1   
    15   10   32 1   
    16   11   12 1   
    17   11   13 1   
    18   11   33 1   
    19   12   17 1   
    20   13   14 1   
    21   13   15 1   
    22   13   34 1   
    23   14   35 1   
    24   15   16 1   
    25   15   17 1   
    26   15   36 1   
    27   16   37 1   
    28   17   18 1   
    29   17   38 1   
    30   18   19 1   
    31   18   27 1   
    32   19   20 2   
    33   19   39 1   
    34   20   21 1   
    35   21   22 ar  
    36   21   27 ar  
    37   22   23 1   
    38   22   24 ar  
    39   23   40 1   
    40   23   41 1   
    41   24   25 ar  
    42   25   26 ar  
    43   25   42 1   
    44   26   27 ar  
@<TRIPOS>SUBSTRUCTURE
     1 M33         1 TEMP              0 ****  ****    0 ROOT
