@<TRIPOS>MOLECULE
M33
   42    44     1     0     0
SMALL
bcc


@<TRIPOS>ATOM
      1 PB          5.8910    0.2160   -0.0230 p5        1 M33      1.513600
      2 O1B         6.7400   -0.6440   -0.8770 o         1 M33     -0.901500
      3 O2B         6.2410    1.6350    0.2090 o         1 M33     -0.901500
      4 C3B         5.6580   -0.5450    1.4750 c3        1 M33     -0.367300
      5 PA          2.8500    0.0060   -1.1750 p5        1 M33      1.621800
      6 O1A         2.2980   -1.3630   -0.9730 o         1 M33     -0.903500
      7 O2A         2.5680    0.7460   -2.4180 o         1 M33     -0.903500
      8 O3A         4.3330    0.1360   -0.6260 os        1 M33     -0.821800
      9 O5'         1.9980    0.8270    0.0380 os        1 M33     -0.569200
     10 C5'         0.6260    0.7850   -0.0930 c3        1 M33      0.215400
     11 C4'         0.0170   -0.2610    0.8650 c3        1 M33      0.055100
     12 O4'        -1.2210    0.2470    1.4110 os        1 M33     -0.424600
     13 C3'        -0.2700   -1.6230    0.2030 c3        1 M33      0.123100
     14 O3'         0.5280   -2.6370    0.7670 oh        1 M33     -0.657800
     15 C2'        -1.7500   -1.9340    0.5130 c3        1 M33      0.107100
     16 O2'        -1.9600   -2.9410    1.4760 oh        1 M33     -0.603800
     17 C1'        -2.3200   -0.5880    1.0770 c3        1 M33      0.213800
     18 N9         -3.2000    0.1060    0.1460 na        1 M33     -0.260000
     19 C8         -2.8240    0.8760   -0.9780 cc        1 M33      0.446700
     20 N7         -3.8580    1.4600   -1.6070 nd        1 M33     -0.578100
     21 C5         -4.9890    1.0860   -0.8690 ca        1 M33     -0.211200
     22 C6         -6.3810    1.3800   -1.0090 ca        1 M33      0.712200
     23 N6         -6.8290    2.0980   -2.1120 nh        1 M33     -0.936500
     24 N1         -7.2640    0.8950   -0.0790 nb        1 M33     -0.803000
     25 C2         -6.7530    0.1170    0.9180 ca        1 M33      0.652900
     26 N3         -5.4820   -0.2600    1.1680 nb        1 M33     -0.710000
     27 C4         -4.5890    0.2390    0.2580 ca        1 M33      0.444800
     28 H3B1        6.6090   -0.5870    2.0460 hc        1 M33      0.045033
     29 H3B2        4.9120    0.0050    2.0870 hc        1 M33      0.045033
     30 H3B3        5.2900   -1.5850    1.3380 hc        1 M33      0.045033
     31 H5'1        0.2050    1.7930    0.1880 h1        1 M33      0.012200
     32 H5'2        0.3390    0.5500   -1.1580 h1        1 M33      0.012200
     33 H4'         0.7000   -0.3900    1.7490 h1        1 M33      0.095700
     34 H3'        -0.1040   -1.5790   -0.9080 h1        1 M33      0.098700
     35 HO3'        1.4090   -2.5550    0.3420 ho        1 M33      0.503000
     36 H2'        -2.3000   -2.2790   -0.4020 h1        1 M33      0.075700
     37 HO2'       -1.1480   -3.0330    1.9950 ho        1 M33      0.431000
     38 H1'        -2.9000   -0.7640    2.0310 h2        1 M33      0.102700
     39 H8         -1.7600    0.9670   -1.2620 h5        1 M33      0.108800
     40 HN61       -6.1310    2.6250   -2.5850 hn        1 M33      0.417300
     41 HN62       -7.7250    2.5190   -2.0480 hn        1 M33      0.417300
     42 H2         -7.5090   -0.2590    1.6390 h5        1 M33      0.034100
@<TRIPOS>BOND
     1    1    2 1   
     2    1    3 1   
     3    1    4 1   
     4    1    8 1   
     5    4   28 1   
     6    4   29 1   
     7    4   30 1   
     8    5    6 1   
     9    5    7 1   
    10    5    8 1   
    11    5    9 1   
    12    9   10 1   
    13   10   11 1   
    14   10   31 1   
    15   10   32 1   
    16   11   12 1   
    17   11   13 1   
    18   11   33 1   
    19   12   17 1   
    20   13   14 1   
    21   13   15 1   
    22   13   34 1   
    23   14   35 1   
    24   15   16 1   
    25   15   17 1   
    26   15   36 1   
    27   16   37 1   
    28   17   18 1   
    29   17   38 1   
    30   18   19 1   
    31   18   27 1   
    32   19   20 2   
    33   19   39 1   
    34   20   21 1   
    35   21   22 ar  
    36   21   27 ar  
    37   22   23 1   
    38   22   24 ar  
    39   23   40 1   
    40   23   41 1   
    41   24   25 ar  
    42   25   26 ar  
    43   25   42 1   
    44   26   27 ar  
@<TRIPOS>SUBSTRUCTURE
     1 M33         1 TEMP              0 ****  ****    0 ROOT
