@<TRIPOS>MOLECULE
M33
   42    44     1     0     0
SMALL
bcc


@<TRIPOS>ATOM
      1 PB          1.1020    1.0230   -0.2240 p5        1 M33      1.513600
      2 O1B         2.4090    1.5780    0.1940 o         1 M33     -0.901000
      3 O2B         0.6320   -0.2810    0.2930 o         1 M33     -0.901000
      4 C3B         1.0210    1.0070   -1.9180 c3        1 M33     -0.367300
      5 PA         -1.1420    3.3130    0.3650 p5        1 M33      1.621800
      6 O1A        -0.9460    4.4900   -0.5260 o         1 M33     -0.903500
      7 O2A        -1.5300    3.5030    1.7740 o         1 M33     -0.903500
      8 O3A        -0.0590    2.1830    0.1020 os        1 M33     -0.821800
      9 O5'        -2.4960    2.6240   -0.3840 os        1 M33     -0.569200
     10 C5'        -3.6050    3.4420   -0.4320 c3        1 M33      0.215400
     11 C4'        -3.7590    4.0730   -1.8330 c3        1 M33      0.055100
     12 O4'        -5.1590    4.1170   -2.1920 os        1 M33     -0.424600
     13 C3'        -3.1870    5.5000   -1.9420 c3        1 M33      0.123100
     14 O3'        -2.1010    5.5420   -2.8380 oh        1 M33     -0.657800
     15 C2'        -4.3300    6.3660   -2.5160 c3        1 M33      0.107100
     16 O2'        -4.1670    6.7540   -3.8600 oh        1 M33     -0.603800
     17 C1'        -5.5970    5.4490   -2.4170 c3        1 M33      0.213800
     18 N9         -6.5220    5.8470   -1.3650 na        1 M33     -0.260000
     19 C8         -6.3940    5.6120    0.0230 cc        1 M33      0.446700
     20 N7         -7.4470    6.0330    0.7450 nd        1 M33     -0.578100
     21 C5         -8.3410    6.5630   -0.1960 ca        1 M33     -0.211200
     22 C6         -9.6370    7.1570   -0.0760 ca        1 M33      0.712200
     23 N6        -10.1790    7.3870    1.1830 nh        1 M33     -0.936500
     24 N1        -10.3000    7.5460   -1.2110 nb        1 M33     -0.803000
     25 C2         -9.6550    7.3730   -2.4000 ca        1 M33      0.652900
     26 N3         -8.4390    6.8530   -2.6680 nb        1 M33     -0.710000
     27 C4         -7.7780    6.4390   -1.5420 ca        1 M33      0.444800
     28 H3B1        1.7440    0.2760   -2.3370 hc        1 M33      0.045033
     29 H3B2        0.0040    0.7230   -2.2630 hc        1 M33      0.045033
     30 H3B3        1.2590    2.0080   -2.3360 hc        1 M33      0.045033
     31 H5'1       -3.5340    4.2500    0.3510 h1        1 M33      0.012200
     32 H5'2       -4.5240    2.8180   -0.2360 h1        1 M33      0.012200
     33 H4'        -3.2790    3.3980   -2.5940 h1        1 M33      0.095700
     34 H3'        -2.8680    5.8890   -0.9360 h1        1 M33      0.098700
     35 HO3'       -1.3240    5.2110   -2.3370 ho        1 M33      0.503000
     36 H2'        -4.4510    7.3220   -1.9420 h1        1 M33      0.075700
     37 HO2'       -3.5320    6.1510   -4.2720 ho        1 M33      0.431000
     38 H1'        -6.1680    5.4460   -3.3920 h2        1 M33      0.102700
     39 H8         -5.4950    5.1120    0.4240 h5        1 M33      0.108800
     40 HN61      -11.1590    7.5340    1.2360 hn        1 M33      0.417300
     41 HN62       -9.7750    6.8570    1.9200 hn        1 M33      0.417300
     42 H2        -10.2300    7.7140   -3.2870 h5        1 M33      0.034100
@<TRIPOS>BOND
     1    1    2 1   
     2    1    3 1   
     3    1    4 1   
     4    1    8 1   
     5    4   28 1   
     6    4   29 1   
     7    4   30 1   
     8    5    6 1   
     9    5    7 1   
    10    5    8 1   
    11    5    9 1   
    12    9   10 1   
    13   10   11 1   
    14   10   31 1   
    15   10   32 1   
    16   11   12 1   
    17   11   13 1   
    18   11   33 1   
    19   12   17 1   
    20   13   14 1   
    21   13   15 1   
    22   13   34 1   
    23   14   35 1   
    24   15   16 1   
    25   15   17 1   
    26   15   36 1   
    27   16   37 1   
    28   17   18 1   
    29   17   38 1   
    30   18   19 1   
    31   18   27 1   
    32   19   20 2   
    33   19   39 1   
    34   20   21 1   
    35   21   22 ar  
    36   21   27 ar  
    37   22   23 1   
    38   22   24 ar  
    39   23   40 1   
    40   23   41 1   
    41   24   25 ar  
    42   25   26 ar  
    43   25   42 1   
    44   26   27 ar  
@<TRIPOS>SUBSTRUCTURE
     1 M33         1 TEMP              0 ****  ****    0 ROOT
