@<TRIPOS>MOLECULE
M33
   42    37     1     0     0
SMALL
bcc


@<TRIPOS>ATOM
      1 PB          5.9040   -3.3690   -1.1140 p3        1 M33      2.794000
      2 O1B         6.9200   -2.5350   -0.4050 o         1 M33     -1.221000
      3 O2B         5.7590   -4.7030   -0.4020 o         1 M33     -1.221000
      4 C3B         6.4270   -3.6450   -2.7820 c3        1 M33     -0.893000
      5 PA          3.7500   -2.1790    0.2020 p3        1 M33      2.728000
      6 O1A         4.5110   -1.0580    0.8770 os        1 M33     -1.246000
      7 O2A         3.6520   -3.3460    1.1360 o         1 M33     -1.244500
      8 O3A         4.5140   -2.6170   -1.1160 o         1 M33     -1.244500
      9 O5'         2.3050   -1.6860   -0.1690 os        1 M33     -0.731000
     10 C5'         1.7730   -0.5900    0.5250 c3        1 M33      0.065000
     11 C4'         0.7120    0.0950   -0.3400 c3        1 M33     -0.056000
     12 O4'        -0.4470   -0.2260    0.0560 os        1 M33     -0.281000
     13 C3'         0.7920    1.6630   -0.1660 c3        1 M33      0.012000
     14 O3'         1.2660    2.2450   -1.3100 oh        1 M33     -0.385000
     15 C2'        -0.6090    2.1080    0.1000 c3        1 M33     -0.004000
     16 O2'        -0.9660    3.2430   -0.7880 oh        1 M33     -0.331000
     17 C1'        -1.3640    1.0450   -0.1800 c3        1 M33      0.122000
     18 N9         -2.4890    1.0000    0.6870 n3        1 M33     -0.177000
     19 C8         -2.4410    0.7170    2.0140 c1        1 M33     -0.009000
     20 N7         -3.7030    0.7240    2.4860 n2        1 M33     -0.151000
     21 C5         -4.5380    1.0120    1.4520 c1        1 M33     -0.220000
     22 C6         -5.9150    1.1390    1.3810 c1        1 M33      0.191000
     23 N6         -6.9930    1.0300    2.3460 n2        1 M33     -0.334000
     24 N1         -6.5050    1.4320    0.2040 n1        1 M33     -0.277000
     25 C2         -5.7520    1.6030   -0.9080 c1        1 M33     -0.010000
     26 N3         -4.3880    1.4780   -0.8420 n1        1 M33     -0.184000
     27 C4         -3.7880    1.1820    0.3440 c1        1 M33      0.053000
     28 H3B1        7.3510   -3.9140   -2.7870 hc        1 M33      0.084333
     29 H3B2        6.3230   -2.8130   -3.3010 hc        1 M33      0.084333
     30 H3B3        5.8830   -4.3450   -3.1800 hc        1 M33      0.084333
     31 H5'1        1.3560   -0.9060    1.3760 h1        1 M33      0.051500
     32 H5'2        2.4790    0.0370    0.7260 h1        1 M33      0.051500
     33 H4'         0.8280   -0.1470   -1.2690 h1        1 M33      0.135000
     34 H3'         1.3600    1.8860    0.5820 h1        1 M33      0.138000
     35 HO3'        2.0200    2.6960   -1.1260 ho        1 M33      0.302000
     36 H2'        -0.7150    2.3680    1.0580 h1        1 M33      0.115000
     37 HO2'       -1.1110    3.9690   -0.2960 ho        1 M33      0.230000
     38 H1'        -1.6650    1.0800   -1.1340 h2        1 M33      0.142000
     39 H8         -1.6390    0.4780    2.5220 DU        1 M33      0.238000
     40 HN61       -7.8680    1.1210    2.0710 hn        1 M33      0.212500
     41 HN62       -6.8020    0.9090    3.2320 hn        1 M33      0.212500
     42 H2         -6.1840    1.8160   -1.7630 ha        1 M33      0.171000
@<TRIPOS>BOND
     1    1    2 1   
     2    1    3 1   
     3    1    4 1   
     4    4   28 1   
     5    4   29 1   
     6    4   30 1   
     7    5    7 1   
     8    5    8 1   
     9    5    9 1   
    10    9   10 1   
    11   10   11 1   
    12   10   31 1   
    13   10   32 1   
    14   11   12 1   
    15   11   13 1   
    16   11   33 1   
    17   12   17 1   
    18   13   14 1   
    19   13   15 1   
    20   13   34 1   
    21   14   35 1   
    22   15   16 1   
    23   15   17 1   
    24   15   36 1   
    25   16   37 1   
    26   17   18 1   
    27   17   38 1   
    28   18   19 1   
    29   18   27 1   
    30   19   20 1   
    31   20   21 1   
    32   21   27 1   
    33   22   24 1   
    34   23   40 1   
    35   23   41 1   
    36   25   26 1   
    37   25   42 1   
@<TRIPOS>SUBSTRUCTURE
     1 M33         1 TEMP              0 ****  ****    0 ROOT
