@<TRIPOS>MOLECULE
M34
   71    73     1     0     0
SMALL
bcc


@<TRIPOS>ATOM
      1 C7         -4.5730    0.8860    0.6620 c3        1 M34     -0.250300
      2 S8         -3.0890    0.8950   -0.2400 s6        1 M34      1.448900
      3 C4         -5.5080    1.9560    0.2380 ca        1 M34     -0.074300
      4 C5         -6.1170    1.8960   -1.0230 ca        1 M34     -0.115000
      5 C6         -7.0170    2.8850   -1.4130 ca        1 M34     -0.126000
      6 C1         -7.3210    3.9370   -0.5480 ca        1 M34     -0.121000
      7 C2         -6.7190    4.0000    0.7080 ca        1 M34     -0.126000
      8 C34        -5.8170    3.0130    1.1030 ca        1 M34     -0.115000
      9 O7         -2.4490    2.1320   -0.0610 o         1 M34     -0.643800
     10 O19        -3.3800    0.4760   -1.5580 o         1 M34     -0.643800
     11 N9         -2.2390   -0.2600    0.5190 n3        1 M34     -0.913100
     12 C10        -1.9450   -1.5550   -0.0260 c3        1 M34      0.185500
     13 C20        -2.4750   -2.7400    0.7990 c3        1 M34     -0.092400
     14 C21        -3.9880   -2.7730    0.9350 c3        1 M34     -0.067700
     15 C22        -4.6790   -2.8290   -0.4100 c3        1 M34     -0.098100
     16 C23        -4.3890   -3.9680    1.7800 c3        1 M34     -0.098100
     17 C11        -0.4070   -1.7680   -0.1050 c         1 M34      0.645100
     18 O24         0.3160   -1.4550    0.8660 o         1 M34     -0.628100
     19 N12         0.1430   -2.2770   -1.2600 n         1 M34     -0.452800
     20 C13         1.5530   -2.6480   -1.3440 c3        1 M34      0.030700
     21 C14         2.4730   -1.4630   -1.7280 c         1 M34      0.653100
     22 O28         3.2420   -1.5430   -2.7070 o         1 M34     -0.623100
     23 C27         1.6530   -3.7810   -2.3890 c3        1 M34     -0.088400
     24 C26         0.3060   -3.8320   -3.1000 c3        1 M34     -0.090400
     25 C25        -0.6310   -2.8930   -2.3240 c3        1 M34      0.084000
     26 N15         2.4000   -0.3360   -0.9440 n         1 M34     -0.548900
     27 C16         3.2750    0.7920   -1.1330 c3        1 M34      0.122300
     28 C17         4.4520    0.8200   -0.1920 ca        1 M34     -0.082300
     29 C29         5.7620    0.5640   -0.6180 ca        1 M34     -0.057300
     30 C35         6.0840    0.1840   -2.0380 c3        1 M34      0.184100
     31 N36         6.2130    1.3310   -2.9070 n3        1 M34     -0.912800
     32 C33         6.8130    0.6450    0.3040 ca        1 M34     -0.127000
     33 C32         6.5750    0.9590    1.6390 ca        1 M34     -0.122000
     34 C31         5.2630    1.2010    2.0590 ca        1 M34      0.016400
     35 CL28        4.9560    1.5830    3.6880 cl        1 M34     -0.098400
     36 C30         4.2060    1.1330    1.1510 ca        1 M34     -0.120000
     37 H7         -4.3830    0.9820    1.7640 h1        1 M34      0.113200
     38 H7A        -5.0990   -0.1010    0.5300 h1        1 M34      0.113200
     39 H5         -5.8640    1.0740   -1.7120 ha        1 M34      0.142000
     40 H6         -7.4860    2.8350   -2.4060 ha        1 M34      0.135500
     41 H1         -8.0320    4.7160   -0.8580 ha        1 M34      0.134000
     42 H2         -6.9520    4.8300    1.3900 ha        1 M34      0.135500
     43 H34        -5.3430    3.0700    2.0940 ha        1 M34      0.142000
     44 HN9        -1.7600   -0.0850    1.3750 hn        1 M34      0.462800
     45 H10        -2.4000   -1.6010   -1.0640 h1        1 M34      0.097700
     46 H20        -2.1310   -3.6820    0.2950 hc        1 M34      0.059200
     47 H20A       -2.0120   -2.7130    1.8220 hc        1 M34      0.059200
     48 H21        -4.3220   -1.8410    1.4740 hc        1 M34      0.045700
     49 H22        -4.2730   -3.6670   -1.0270 hc        1 M34      0.039700
     50 H22A       -5.7760   -2.9920   -0.2730 hc        1 M34      0.039700
     51 H22B       -4.5370   -1.8730   -0.9740 hc        1 M34      0.039700
     52 H23        -3.8890   -3.9270    2.7770 hc        1 M34      0.039700
     53 H23A       -5.4950   -3.9750    1.9360 hc        1 M34      0.039700
     54 H23B       -4.0970   -4.9200    1.2760 hc        1 M34      0.039700
     55 H13         1.9070   -3.0100   -0.3320 h1        1 M34      0.085700
     56 H27         2.4850   -3.5850   -3.1110 hc        1 M34      0.075700
     57 H27A        1.8640   -4.7470   -1.8660 hc        1 M34      0.075700
     58 H26        -0.1050   -4.8710   -3.1120 hc        1 M34      0.059200
     59 H26A        0.4030   -3.4860   -4.1590 hc        1 M34      0.059200
     60 H25        -1.4980   -3.4700   -1.8970 h1        1 M34      0.053700
     61 H25A       -1.0380   -2.0880   -2.9980 h1        1 M34      0.053700
     62 HN15        1.9090   -0.3840   -0.0770 hn        1 M34      0.332500
     63 H16         3.6240    0.8100   -2.2050 h1        1 M34      0.082700
     64 H16A        2.6640    1.7260   -0.9540 h1        1 M34      0.082700
     65 H35         7.0230   -0.4500   -2.0200 h1        1 M34      0.050200
     66 H35A        5.2580   -0.4720   -2.4480 h1        1 M34      0.050200
     67 HN36        6.9150    1.9600   -2.5740 hn        1 M34      0.350800
     68 HN3A        6.4440    1.0350   -3.8340 hn        1 M34      0.350800
     69 H33         7.8440    0.4510   -0.0290 ha        1 M34      0.134000
     70 H32         7.4100    1.0170    2.3530 ha        1 M34      0.146000
     71 H30         3.1750    1.3290    1.4850 ha        1 M34      0.149000
@<TRIPOS>BOND
     1    1    2 1   
     2    1    3 1   
     3    1   37 1   
     4    1   38 1   
     5    2    9 2   
     6    2   10 2   
     7    2   11 1   
     8    3    4 ar  
     9    3    8 ar  
    10    4    5 ar  
    11    4   39 1   
    12    5    6 ar  
    13    5   40 1   
    14    6    7 ar  
    15    6   41 1   
    16    7    8 ar  
    17    7   42 1   
    18    8   43 1   
    19   11   12 1   
    20   11   44 1   
    21   12   13 1   
    22   12   17 1   
    23   12   45 1   
    24   13   14 1   
    25   13   46 1   
    26   13   47 1   
    27   14   15 1   
    28   14   16 1   
    29   14   48 1   
    30   15   49 1   
    31   15   50 1   
    32   15   51 1   
    33   16   52 1   
    34   16   53 1   
    35   16   54 1   
    36   17   18 2   
    37   17   19 1   
    38   19   20 1   
    39   19   25 1   
    40   20   21 1   
    41   20   23 1   
    42   20   55 1   
    43   21   22 2   
    44   21   26 1   
    45   23   24 1   
    46   23   56 1   
    47   23   57 1   
    48   24   25 1   
    49   24   58 1   
    50   24   59 1   
    51   25   60 1   
    52   25   61 1   
    53   26   27 1   
    54   26   62 1   
    55   27   28 1   
    56   27   63 1   
    57   27   64 1   
    58   28   29 ar  
    59   28   36 ar  
    60   29   30 1   
    61   29   32 ar  
    62   30   31 1   
    63   30   65 1   
    64   30   66 1   
    65   31   67 1   
    66   31   68 1   
    67   32   33 ar  
    68   32   69 1   
    69   33   34 ar  
    70   33   70 1   
    71   34   35 1   
    72   34   36 ar  
    73   36   71 1   
@<TRIPOS>SUBSTRUCTURE
     1 M34         1 TEMP              0 ****  ****    0 ROOT
