@<TRIPOS>MOLECULE
M34
   74    75     1     0     0
SMALL
bcc


@<TRIPOS>ATOM
      1 C7          0.7260   -0.7860    0.6290 c3        1 M34     -0.358800
      2 S8          0.4850    0.8270    0.5370 s4        1 M34      1.571500
      3 C4         -0.2670   -1.3130    1.6140 ca        1 M34     -0.217300
      4 C5         -1.5160   -1.7740    1.1700 ca        1 M34     -0.092500
      5 C6         -2.4180   -2.3150    2.0830 ca        1 M34     -0.111000
      6 C1         -2.0750   -2.4170    3.4330 ca        1 M34     -0.049000
      7 C2         -0.8230   -1.9780    3.8720 ca        1 M34     -0.111000
      8 C34         0.0860   -1.4360    2.9670 ca        1 M34     -0.092500
      9 O7          1.0940    1.6240    1.4500 o         1 M34     -0.416400
     10 O19        -0.4620    1.2940   -0.3140 o         1 M34     -0.416400
     11 N9          2.2510    1.2350   -1.0190 n3        1 M34     -1.000800
     12 C10         1.8150    1.7900   -2.3070 c3        1 M34      0.090500
     13 C20         2.0020    0.8190   -3.4870 c3        1 M34     -0.102400
     14 C21         1.0730   -0.3860   -3.4280 c3        1 M34     -0.059700
     15 C22        -0.3770    0.0110   -3.6080 c3        1 M34     -0.109100
     16 C23         1.4810   -1.3820   -4.4980 c3        1 M34     -0.109100
     17 C11         2.5630    3.0900   -2.6740 c         1 M34      0.670100
     18 O24         3.7210    3.3200   -2.2470 o         1 M34     -0.681100
     19 N12         1.9490    4.0230   -3.4790 n         1 M34     -0.457800
     20 C13         2.6990    5.0590   -4.1620 c3        1 M34      0.060700
     21 C14         3.2150    6.1330   -3.1830 c         1 M34      0.529100
     22 O28         2.5980    7.0580   -2.6900 o         1 M34     -0.389100
     23 C27         1.7450    5.7250   -5.1880 c3        1 M34     -0.086400
     24 C26         0.4020    5.0150   -5.0490 c3        1 M34     -0.094400
     25 C25         0.5670    3.9590   -3.9480 c3        1 M34      0.078000
     26 N15         4.6800    6.0020   -2.8040 n4        1 M34     -0.689800
     27 C16         5.1700    7.0920   -1.9000 c3        1 M34      0.161100
     28 C17         6.6620    7.0850   -1.7510 ca        1 M34     -0.108300
     29 C29         7.4830    8.1960   -2.0080 ca        1 M34     -0.150300
     30 C35         6.9860    9.5480   -2.4140 c3        1 M34      0.165100
     31 N36         7.3620   10.6080   -1.4220 n4        1 M34     -0.842600
     32 C33         8.8770    8.0510   -1.9030 ca        1 M34     -0.104000
     33 C32         9.4570    6.8550   -1.4950 ca        1 M34     -0.071000
     34 C31         8.6330    5.7650   -1.1750 ca        1 M34      0.060400
     35 CL28        9.3030    4.3200   -0.6430 cl        1 M34      0.028600
     36 C30         7.2440    5.8890   -1.3100 ca        1 M34     -0.135000
     37 H7          1.7580   -1.1020    0.9740 h1        1 M34      0.185700
     38 H7A         0.5870   -1.3510   -0.3430 h1        1 M34      0.185700
     39 H5         -1.7850   -1.7250    0.1030 ha        1 M34      0.145500
     40 H6         -3.4010   -2.6760    1.7340 ha        1 M34      0.175000
     41 H1         -2.7890   -2.8560    4.1520 ha        1 M34      0.178000
     42 H2         -0.5470   -2.0720    4.9360 ha        1 M34      0.175000
     43 H34         1.0800   -1.1190    3.3170 ha        1 M34      0.145500
     44 HN9         2.8530    1.8910   -0.5400 hn        1 M34      0.411300
     45 H10         0.7090    2.0250   -2.1950 h1        1 M34      0.121700
     46 H20         1.8060    1.3710   -4.4440 hc        1 M34      0.077200
     47 H20A        3.0700    0.4680   -3.5210 hc        1 M34      0.077200
     48 H21         1.1880   -0.8880   -2.4250 hc        1 M34      0.013700
     49 H22        -0.7470    0.6110   -2.7400 hc        1 M34      0.056367
     50 H22A       -1.0150   -0.9030   -3.6980 hc        1 M34      0.056367
     51 H22B       -0.5080    0.6120   -4.5410 hc        1 M34      0.056367
     52 H23         1.3750   -0.9310   -5.5140 hc        1 M34      0.056367
     53 H23A        0.8280   -2.2870   -4.4470 hc        1 M34      0.056367
     54 H23B        2.5410   -1.7030   -4.3570 hc        1 M34      0.056367
     55 H13         3.5850    4.5960   -4.6900 h1        1 M34      0.093700
     56 H27         2.1650    5.5930   -6.2170 hc        1 M34      0.094700
     57 H27A        1.6350    6.8210   -4.9910 hc        1 M34      0.094700
     58 H26        -0.4070    5.7390   -4.7730 hc        1 M34      0.099200
     59 H26A        0.1070    4.5300   -6.0150 hc        1 M34      0.099200
     60 H25        -0.1220    4.1690   -3.0820 h1        1 M34      0.080700
     61 H25A        0.3410    2.9290   -4.3450 h1        1 M34      0.080700
     62 HN15        4.7960    5.0800   -2.3410 hn        1 M34      0.478800
     63 H16         4.6840    6.9360   -0.8900 hx        1 M34      0.113700
     64 H16A        4.7820    8.0630   -2.3200 hx        1 M34      0.113700
     65 H35         7.4550    9.8380   -3.4050 hx        1 M34      0.116200
     66 H35A        5.8670    9.5930   -2.5270 hx        1 M34      0.116200
     67 HN36        7.0720   11.5310   -1.7690 hn        1 M34      0.472467
     68 HN3A        6.9110   10.4340   -0.5170 hn        1 M34      0.472467
     69 H33         9.5450    8.8890   -2.1690 ha        1 M34      0.158000
     70 H32        10.5580    6.7640   -1.4220 ha        1 M34      0.203000
     71 H30         6.6110    5.0270   -1.0380 ha        1 M34      0.158000
     72 H92         2.7810    0.3900   -1.1750 hn        1 M34      0.411300
     73 H152        5.2430    5.9900   -3.6620 hn        1 M34      0.478800
     74 H363        8.3810   10.6140   -1.2770 hn        1 M34      0.472467
@<TRIPOS>BOND
     1    1    2 1   
     2    1    3 1   
     3    1   37 1   
     4    1   38 1   
     5    2    9 1   
     6    2   10 1   
     7    3    4 ar  
     8    3    8 ar  
     9    4    5 ar  
    10    4   39 1   
    11    5    6 ar  
    12    5   40 1   
    13    6    7 ar  
    14    6   41 1   
    15    7    8 ar  
    16    7   42 1   
    17    8   43 1   
    18   11   12 1   
    19   11   44 1   
    20   11   72 1   
    21   12   13 1   
    22   12   17 1   
    23   12   45 1   
    24   13   14 1   
    25   13   46 1   
    26   13   47 1   
    27   14   15 1   
    28   14   16 1   
    29   14   48 1   
    30   15   49 1   
    31   15   50 1   
    32   15   51 1   
    33   16   52 1   
    34   16   53 1   
    35   16   54 1   
    36   17   18 2   
    37   17   19 1   
    38   19   20 1   
    39   19   25 1   
    40   20   21 1   
    41   20   23 1   
    42   20   55 1   
    43   21   22 2   
    44   21   26 1   
    45   23   24 1   
    46   23   56 1   
    47   23   57 1   
    48   24   25 1   
    49   24   58 1   
    50   24   59 1   
    51   25   60 1   
    52   25   61 1   
    53   26   27 1   
    54   26   62 1   
    55   26   73 1   
    56   27   28 1   
    57   27   63 1   
    58   27   64 1   
    59   28   29 ar  
    60   28   36 ar  
    61   29   30 1   
    62   29   32 ar  
    63   30   31 1   
    64   30   65 1   
    65   30   66 1   
    66   31   67 1   
    67   31   68 1   
    68   31   74 1   
    69   32   33 ar  
    70   32   69 1   
    71   33   34 ar  
    72   33   70 1   
    73   34   35 1   
    74   34   36 ar  
    75   36   71 1   
@<TRIPOS>SUBSTRUCTURE
     1 M34         1 TEMP              0 ****  ****    0 ROOT
