@<TRIPOS>MOLECULE
M34
   74    75     1     0     0
SMALL
bcc


@<TRIPOS>ATOM
      1 C7          0.7460   -0.8030    0.6130 c3        1 M34     -0.358800
      2 S8          0.5000    0.8090    0.5290 s4        1 M34      1.571500
      3 C4         -0.2440   -1.3370    1.5980 ca        1 M34     -0.217300
      4 C5         -1.4920   -1.8010    1.1560 ca        1 M34     -0.092500
      5 C6         -2.3910   -2.3480    2.0680 ca        1 M34     -0.111000
      6 C1         -2.0430   -2.4550    3.4180 ca        1 M34     -0.049000
      7 C2         -0.7920   -2.0140    3.8550 ca        1 M34     -0.111000
      8 C34         0.1130   -1.4650    2.9490 ca        1 M34     -0.092500
      9 O7          1.1090    1.6030    1.4440 o         1 M34     -0.416400
     10 O19        -0.4510    1.2780   -0.3170 o         1 M34     -0.416400
     11 N9          2.2600    1.2290   -1.0300 n3        1 M34     -1.000800
     12 C10         1.8200    1.7890   -2.3140 c3        1 M34      0.090500
     13 C20         2.0070    0.8240   -3.4990 c3        1 M34     -0.102400
     14 C21         1.0810   -0.3830   -3.4430 c3        1 M34     -0.059700
     15 C22        -0.3710    0.0110   -3.6190 c3        1 M34     -0.109100
     16 C23         1.4890   -1.3720   -4.5200 c3        1 M34     -0.109100
     17 C11         2.5620    3.0930   -2.6760 c         1 M34      0.670100
     18 O24         3.7210    3.3250   -2.2510 o         1 M34     -0.681100
     19 N12         1.9440    4.0280   -3.4740 n         1 M34     -0.457800
     20 C13         2.6890    5.0700   -4.1540 c3        1 M34      0.060700
     21 C14         3.2050    6.1400   -3.1700 c         1 M34      0.529100
     22 O28         2.5860    7.0610   -2.6710 o         1 M34     -0.389100
     23 C27         1.7310    5.7390   -5.1740 c3        1 M34     -0.086400
     24 C26         0.3900    5.0240   -5.0360 c3        1 M34     -0.094400
     25 C25         0.5610    3.9630   -3.9410 c3        1 M34      0.078000
     26 N15         4.6710    6.0120   -2.7960 n4        1 M34     -0.690800
     27 C16         5.1600    7.0980   -1.8860 c3        1 M34      0.161100
     28 C17         6.6520    7.0950   -1.7420 ca        1 M34     -0.108300
     29 C29         7.4690    8.2110   -1.9940 ca        1 M34     -0.150300
     30 C35         6.9660    9.5640   -2.3880 c3        1 M34      0.165100
     31 N36         7.3410   10.6180   -1.3900 n4        1 M34     -0.842600
     32 C33         8.8640    8.0700   -1.8930 ca        1 M34     -0.104000
     33 C32         9.4490    6.8730   -1.4960 ca        1 M34     -0.071000
     34 C31         8.6300    5.7790   -1.1810 ca        1 M34      0.060400
     35 CL28        9.3060    4.3320   -0.6610 cl        1 M34      0.028600
     36 C30         7.2400    5.8980   -1.3110 ca        1 M34     -0.135000
     37 H7          0.6050   -1.3650   -0.3620 h1        1 M34      0.185700
     38 H7A         1.7790   -1.1180    0.9540 h1        1 M34      0.185700
     39 H5         -1.7640   -1.7470    0.0900 ha        1 M34      0.145500
     40 H6         -3.3740   -2.7100    1.7210 ha        1 M34      0.175000
     41 H1         -2.7550   -2.8990    4.1370 ha        1 M34      0.178000
     42 H2         -0.5120   -2.1120    4.9180 ha        1 M34      0.175000
     43 H34         1.1080   -1.1470    3.2990 ha        1 M34      0.145500
     44 HN9         2.7920    0.3860   -1.1910 hn        1 M34      0.411300
     45 H10         0.7130    2.0200   -2.1970 h1        1 M34      0.121700
     46 H20         1.8060    1.3810   -4.4530 hc        1 M34      0.077200
     47 H20A        3.0750    0.4770   -3.5370 hc        1 M34      0.077200
     48 H21         1.1990   -0.8900   -2.4440 hc        1 M34      0.013700
     49 H22        -0.7400    0.6050   -2.7470 hc        1 M34      0.056367
     50 H22A       -1.0070   -0.9040   -3.7110 hc        1 M34      0.056367
     51 H22B       -0.5060    0.6170   -4.5480 hc        1 M34      0.056367
     52 H23         2.5500   -1.6910   -4.3840 hc        1 M34      0.056367
     53 H23A        0.8380   -2.2800   -4.4710 hc        1 M34      0.056367
     54 H23B        1.3790   -0.9170   -5.5340 hc        1 M34      0.056367
     55 H13         3.5760    4.6130   -4.6870 h1        1 M34      0.093700
     56 H27         2.1490    5.6140   -6.2050 hc        1 M34      0.094700
     57 H27A        1.6190    6.8330   -4.9710 hc        1 M34      0.094700
     58 H26        -0.4200    5.7450   -4.7550 hc        1 M34      0.099200
     59 H26A        0.0950    4.5440   -6.0030 hc        1 M34      0.099200
     60 H25         0.3370    2.9340   -4.3420 h1        1 M34      0.080700
     61 H25A       -0.1260    4.1670   -3.0720 h1        1 M34      0.080700
     62 HN15        4.7910    5.0880   -2.3380 hn        1 M34      0.478800
     63 H16         4.7680    8.0700   -2.2990 hx        1 M34      0.113700
     64 H16A        4.6770    6.9340   -0.8760 hx        1 M34      0.113700
     65 H35         7.4300    9.8630   -3.3780 hx        1 M34      0.116200
     66 H35A        5.8460    9.6060   -2.4970 hx        1 M34      0.116200
     67 HN36        6.8940   10.4370   -0.4850 hn        1 M34      0.472467
     68 HN3A        7.0470   11.5430   -1.7300 hn        1 M34      0.472467
     69 H33         9.5280    8.9120   -2.1560 ha        1 M34      0.158000
     70 H32        10.5500    6.7860   -1.4270 ha        1 M34      0.203000
     71 H30         6.6110    5.0320   -1.0430 ha        1 M34      0.158000
     72 H92         2.8630    1.8840   -0.5490 hn        1 M34      0.411300
     73 H152        5.2320    6.0070   -3.6550 hn        1 M34      0.478800
     74 H363        8.3600   10.6270   -1.2480 hn        1 M34      0.472467
@<TRIPOS>BOND
     1    1    2 1   
     2    1    3 1   
     3    1   37 1   
     4    1   38 1   
     5    2    9 1   
     6    2   10 1   
     7    3    4 ar  
     8    3    8 ar  
     9    4    5 ar  
    10    4   39 1   
    11    5    6 ar  
    12    5   40 1   
    13    6    7 ar  
    14    6   41 1   
    15    7    8 ar  
    16    7   42 1   
    17    8   43 1   
    18   11   12 1   
    19   11   44 1   
    20   11   72 1   
    21   12   13 1   
    22   12   17 1   
    23   12   45 1   
    24   13   14 1   
    25   13   46 1   
    26   13   47 1   
    27   14   15 1   
    28   14   16 1   
    29   14   48 1   
    30   15   49 1   
    31   15   50 1   
    32   15   51 1   
    33   16   52 1   
    34   16   53 1   
    35   16   54 1   
    36   17   18 2   
    37   17   19 1   
    38   19   20 1   
    39   19   25 1   
    40   20   21 1   
    41   20   23 1   
    42   20   55 1   
    43   21   22 2   
    44   21   26 1   
    45   23   24 1   
    46   23   56 1   
    47   23   57 1   
    48   24   25 1   
    49   24   58 1   
    50   24   59 1   
    51   25   60 1   
    52   25   61 1   
    53   26   27 1   
    54   26   62 1   
    55   26   73 1   
    56   27   28 1   
    57   27   63 1   
    58   27   64 1   
    59   28   29 ar  
    60   28   36 ar  
    61   29   30 1   
    62   29   32 ar  
    63   30   31 1   
    64   30   65 1   
    65   30   66 1   
    66   31   67 1   
    67   31   68 1   
    68   31   74 1   
    69   32   33 ar  
    70   32   69 1   
    71   33   34 ar  
    72   33   70 1   
    73   34   35 1   
    74   34   36 ar  
    75   36   71 1   
@<TRIPOS>SUBSTRUCTURE
     1 M34         1 TEMP              0 ****  ****    0 ROOT
