@<TRIPOS>MOLECULE
M34
   74    75     1     0     0
SMALL
bcc


@<TRIPOS>ATOM
      1 C7          0.7230   -0.7800    0.6410 c3        1 M34     -0.358800
      2 S8          0.4930    0.8350    0.5560 s4        1 M34      1.571500
      3 C4         -0.2630   -1.3020    1.6350 ca        1 M34     -0.217300
      4 C5         -1.5200   -1.7530    1.2030 ca        1 M34     -0.092000
      5 C6         -2.4170   -2.2900    2.1240 ca        1 M34     -0.111000
      6 C1         -2.0600   -2.3980    3.4700 ca        1 M34     -0.049000
      7 C2         -0.8000   -1.9690    3.8970 ca        1 M34     -0.111000
      8 C34         0.1030   -1.4310    2.9830 ca        1 M34     -0.092000
      9 O7          1.1170    1.6250    1.4640 o         1 M34     -0.416400
     10 O19        -0.4600    1.3120   -0.2840 o         1 M34     -0.416400
     11 N9          2.2440    1.2350   -1.0190 n8        1 M34     -1.000800
     12 C10         1.7980    1.7960   -2.3000 c3        1 M34      0.090500
     13 C20         1.9660    0.8260   -3.4850 c3        1 M34     -0.102400
     14 C21         1.0280   -0.3710   -3.4180 c3        1 M34     -0.059700
     15 C22        -0.4210    0.0370   -3.5820 c3        1 M34     -0.109100
     16 C23         1.4170   -1.3680   -4.4950 c3        1 M34     -0.109100
     17 C11         2.5510    3.0920   -2.6730 c         1 M34      0.670100
     18 O24         3.7150    3.3130   -2.2580 o         1 M34     -0.681100
     19 N12         1.9350    4.0310   -3.4680 n         1 M34     -0.457800
     20 C13         2.6840    5.0630   -4.1570 c3        1 M34      0.060700
     21 C14         3.2200    6.1310   -3.1810 c         1 M34      0.529100
     22 O28         2.6150    7.0590   -2.6790 o         1 M34     -0.389100
     23 C27         1.7240    5.7390   -5.1700 c3        1 M34     -0.086400
     24 C26         0.3770    5.0390   -5.0180 c3        1 M34     -0.094400
     25 C25         0.5470    3.9780   -3.9220 c3        1 M34      0.078000
     26 N15         4.6890    5.9890   -2.8190 ny        1 M34     -0.689800
     27 C16         5.1970    7.0730   -1.9190 c3        1 M34      0.161100
     28 C17         6.6900    7.0550   -1.7880 ca        1 M34     -0.108300
     29 C29         7.5160    8.1620   -2.0520 ca        1 M34     -0.150300
     30 C35         7.0230    9.5180   -2.4470 c3        1 M34      0.165100
     31 N36         7.4190   10.5720   -1.4570 nz        1 M34     -0.842600
     32 C33         8.9100    8.0060   -1.9650 ca        1 M34     -0.104000
     33 C32         9.4870    6.8050   -1.5680 ca        1 M34     -0.071000
     34 C31         8.6600    5.7210   -1.2410 ca        1 M34      0.060400
     35 Cl28        9.3260    4.2690   -0.7210 cl        1 M34      0.028600
     36 C30         7.2700    5.8540   -1.3580 ca        1 M34     -0.135000
     37 H7          0.5690   -1.3410   -0.3310 h1        1 M34      0.185700
     38 H7A         1.7560   -1.1040    0.9750 h1        1 M34      0.185700
     39 H5         -1.8000   -1.6990    0.1390 ha        1 M34      0.145500
     40 H6         -3.4060   -2.6420    1.7850 ha        1 M34      0.175000
     41 H1         -2.7690   -2.8340    4.1960 ha        1 M34      0.178000
     42 H2         -0.5130   -2.0690    4.9580 ha        1 M34      0.175000
     43 H34         1.1030   -1.1220    3.3250 ha        1 M34      0.145500
     44 HN9         2.7670    0.3870   -1.1820 hn        1 M34      0.411300
     45 H10         0.6950    2.0380   -2.1750 h1        1 M34      0.121700
     46 H20         1.7620    1.3830   -4.4380 hc        1 M34      0.077200
     47 H20A        3.0300    0.4680   -3.5310 hc        1 M34      0.077200
     48 H21         1.1500   -0.8770   -2.4180 hc        1 M34      0.013700
     49 H22        -0.7770    0.6370   -2.7080 hc        1 M34      0.056367
     50 H22A       -1.0670   -0.8730   -3.6670 hc        1 M34      0.056367
     51 H22B       -0.5580    0.6410   -4.5120 hc        1 M34      0.056367
     52 H23         2.4760   -1.6970   -4.3670 hc        1 M34      0.056367
     53 H23A        0.7580   -2.2680   -4.4390 hc        1 M34      0.056367
     54 H23B        1.3040   -0.9140   -5.5090 hc        1 M34      0.056367
     55 H13         3.5620    4.5960   -4.6960 h1        1 M34      0.093700
     56 H27         1.6250    6.8350   -4.9690 hc        1 M34      0.094700
     57 H27A        2.1320    5.6070   -6.2050 hc        1 M34      0.094700
     58 H26        -0.4230    5.7680   -4.7310 hc        1 M34      0.099200
     59 H26A        0.0680    4.5590   -5.9820 hc        1 M34      0.099200
     60 H25         0.3100    2.9510   -4.3190 h1        1 M34      0.080700
     61 H25A       -0.1300    4.1910   -3.0480 h1        1 M34      0.080700
     62 HN15        4.8030    5.0650   -2.3600 hn        1 M34      0.478800
     63 H16         4.8100    8.0470   -2.3310 hx        1 M34      0.113700
     64 H16A        4.7220    6.9170   -0.9030 hx        1 M34      0.113700
     65 H35         7.4810    9.8080   -3.4430 hx        1 M34      0.116200
     66 H35A        5.9030    9.5710   -2.5460 hx        1 M34      0.116200
     67 HN36        8.4390   10.5710   -1.3240 hn        1 M34      0.472467
     68 HN3A        6.9780   10.3990   -0.5460 hn        1 M34      0.472467
     69 H33         9.5800    8.8410   -2.2360 ha        1 M34      0.158000
     70 H32        10.5880    6.7070   -1.5080 ha        1 M34      0.203000
     71 H30         6.6340    4.9950   -1.0810 ha        1 M34      0.158000
     72 H92         2.8570    1.8850   -0.5440 hn        1 M34      0.411300
     73 H152        5.2420    5.9740   -3.6840 hn        1 M34      0.478800
     74 H363        7.1300   11.4980   -1.7970 hn        1 M34      0.472467
@<TRIPOS>BOND
     1    1    2 1   
     2    1    3 1   
     3    1   37 1   
     4    1   38 1   
     5    2    9 1   
     6    2   10 1   
     7    3    4 ar  
     8    3    8 ar  
     9    4    5 ar  
    10    4   39 1   
    11    5    6 ar  
    12    5   40 1   
    13    6    7 ar  
    14    6   41 1   
    15    7    8 ar  
    16    7   42 1   
    17    8   43 1   
    18   11   12 1   
    19   11   44 1   
    20   11   72 1   
    21   12   13 1   
    22   12   17 1   
    23   12   45 1   
    24   13   14 1   
    25   13   46 1   
    26   13   47 1   
    27   14   15 1   
    28   14   16 1   
    29   14   48 1   
    30   15   49 1   
    31   15   50 1   
    32   15   51 1   
    33   16   52 1   
    34   16   53 1   
    35   16   54 1   
    36   17   18 2   
    37   17   19 1   
    38   19   20 1   
    39   19   25 1   
    40   20   21 1   
    41   20   23 1   
    42   20   55 1   
    43   21   22 2   
    44   21   26 1   
    45   23   24 1   
    46   23   56 1   
    47   23   57 1   
    48   24   25 1   
    49   24   58 1   
    50   24   59 1   
    51   25   60 1   
    52   25   61 1   
    53   26   27 1   
    54   26   62 1   
    55   26   73 1   
    56   27   28 1   
    57   27   63 1   
    58   27   64 1   
    59   28   29 ar  
    60   28   36 ar  
    61   29   30 1   
    62   29   32 ar  
    63   30   31 1   
    64   30   65 1   
    65   30   66 1   
    66   31   67 1   
    67   31   68 1   
    68   31   74 1   
    69   32   33 ar  
    70   32   69 1   
    71   33   34 ar  
    72   33   70 1   
    73   34   35 1   
    74   34   36 ar  
    75   36   71 1   
@<TRIPOS>SUBSTRUCTURE
     1 M34         1 TEMP              0 ****  ****    0 ROOT
