@<TRIPOS>MOLECULE
M35
   57    60     1     0     0
SMALL
bcc


@<TRIPOS>ATOM
      1 C1         -3.5930   -4.3150    0.1970 ca        1 M35     -0.090000
      2 F1         -5.0420    4.2650   -0.2530 f         1 M35     -0.228300
      3 N1         -3.7350   -0.1070   -0.1850 na        1 M35      0.222300
      4 S1          5.7140   -1.3830    1.1170 sy        1 M35      1.391300
      5 C2         -2.6290   -3.5240    0.8200 ca        1 M35     -0.120000
      6 F2         -6.2290    3.0760    1.1220 f         1 M35     -0.228300
      7 C3         -2.6630   -2.1370    0.7030 ca        1 M35     -0.110000
      8 F3         -6.5770    2.9320   -1.0170 f         1 M35     -0.228300
      9 N3         -6.2350   -5.5630   -0.4080 n3        1 M35     -0.917800
     10 O3         -0.9830   -0.6360   -1.4330 o         1 M35     -0.551100
     11 C4         -3.6810   -1.5350   -0.0600 ca        1 M35     -0.007200
     12 F4          1.3960    3.1250    0.8750 f         1 M35     -0.145900
     13 O4          6.8340   -2.0910    1.5900 o         1 M35     -0.659800
     14 C5         -4.6600   -2.3280   -0.6880 ca        1 M35     -0.096000
     15 N5         -0.2790    1.0790   -0.0340 n         1 M35     -0.462100
     16 O5          4.7130   -2.1530    0.5100 o         1 M35     -0.659800
     17 C6         -4.6090   -3.7180   -0.5560 ca        1 M35     -0.083300
     18 N6         -4.8680    0.5790   -0.0410 nc        1 M35     -0.423800
     19 C7          1.1100    0.9650   -0.1800 ca        1 M35      0.052600
     20 C9          5.0600   -0.4920    2.3950 c3        1 M35     -0.363300
     21 C10        -4.5500    1.9030   -0.1730 cd        1 M35      0.199600
     22 C11        -5.5760    3.0110   -0.0820 c3        1 M35      0.634600
     23 C12        -3.1400    2.0640   -0.4040 cd        1 M35     -0.208300
     24 C13        -2.6360    0.7510   -0.4090 cc        1 M35     -0.169900
     25 C14         3.3400    1.9400    0.1900 ca        1 M35     -0.123000
     26 C15         5.9530    1.7680   -1.3890 ca        1 M35     -0.149000
     27 C16         3.9370    0.8130   -0.3840 cp        1 M35     -0.105000
     28 C17         5.3970    0.7900   -0.5500 cp        1 M35      0.086000
     29 C18         3.1280   -0.2260   -0.8540 ca        1 M35     -0.069000
     30 C20        -5.6310   -4.5640   -1.2600 c3        1 M35      0.202100
     31 C21         6.2290   -0.1430    0.0930 ca        1 M35     -0.360500
     32 C22         1.7420   -0.1540   -0.7560 ca        1 M35     -0.136000
     33 C23         7.3260    1.8230   -1.6060 ca        1 M35     -0.067000
     34 C24         7.6130   -0.0640   -0.1400 ca        1 M35     -0.036000
     35 C26         8.1620    0.8990   -0.9770 ca        1 M35     -0.150000
     36 C44         1.9470    2.0240    0.3010 ca        1 M35      0.059900
     37 H1         -3.5570   -5.4120    0.2960 ha        1 M35      0.159000
     38 H2         -1.8290   -3.9960    1.4110 ha        1 M35      0.146000
     39 H3         -1.8900   -1.5260    1.1930 ha        1 M35      0.144000
     40 HN3        -6.6060   -5.1530    0.4250 hn        1 M35      0.355300
     41 HN3A       -6.9650   -6.0390   -0.8990 hn        1 M35      0.355300
     42 H5         -5.4650   -1.8630   -1.2800 ha        1 M35      0.157000
     43 HN5        -0.5950    1.8630    0.4990 hn        1 M35      0.335500
     44 H9          4.4120    0.3580    2.0650 h1        1 M35      0.118033
     45 H9A         4.4170   -1.1370    3.0480 h1        1 M35      0.118033
     46 H9B         5.8440   -0.0560    3.0610 h1        1 M35      0.118033
     47 H12        -2.6080    2.9990   -0.5570 ha        1 M35      0.187000
     48 H14         3.9560    2.7750    0.5580 ha        1 M35      0.155000
     49 H15         5.2880    2.4940   -1.8820 ha        1 M35      0.146000
     50 H18         3.5880   -1.1330   -1.2850 ha        1 M35      0.179000
     51 H20        -5.1110   -5.1110   -2.1010 h1        1 M35      0.039200
     52 H20A       -6.3990   -3.8820   -1.7360 h1        1 M35      0.039200
     53 H22         1.1400   -0.9970   -1.1400 ha        1 M35      0.185000
     54 H23         7.7490    2.5910   -2.2710 ha        1 M35      0.141000
     55 H24         8.2820   -0.7930    0.3570 ha        1 M35      0.170000
     56 H26         9.2490    0.9320   -1.1430 ha        1 M35      0.145000
     57 C8         -1.2430    0.3160   -0.6820 c         1 M35      0.707700
@<TRIPOS>BOND
     1    1    5 ar  
     2    1   17 ar  
     3    1   37 1   
     4    2   22 1   
     5    3   11 1   
     6    3   18 1   
     7    3   24 1   
     8    4   13 2   
     9    4   16 2   
    10    4   20 1   
    11    4   31 1   
    12    5    7 ar  
    13    5   38 1   
    14    6   22 1   
    15    7   11 ar  
    16    7   39 1   
    17    8   22 1   
    18    9   30 1   
    19    9   40 1   
    20    9   41 1   
    21   10   57 2   
    22   11   14 ar  
    23   12   36 1   
    24   14   17 ar  
    25   14   42 1   
    26   15   19 1   
    27   15   43 1   
    28   15   57 1   
    29   17   30 1   
    30   18   21 2   
    31   19   32 ar  
    32   19   36 ar  
    33   20   44 1   
    34   20   45 1   
    35   20   46 1   
    36   21   22 1   
    37   21   23 1   
    38   23   24 2   
    39   23   47 1   
    40   24   57 1   
    41   25   27 ar  
    42   25   36 ar  
    43   25   48 1   
    44   26   28 ar  
    45   26   33 ar  
    46   26   49 1   
    47   27   28 1   
    48   27   29 ar  
    49   28   31 ar  
    50   29   32 ar  
    51   29   50 1   
    52   30   51 1   
    53   30   52 1   
    54   31   34 ar  
    55   32   53 1   
    56   33   35 ar  
    57   33   54 1   
    58   34   35 ar  
    59   34   55 1   
    60   35   56 1   
@<TRIPOS>SUBSTRUCTURE
     1 M35         1 TEMP              0 ****  ****    0 ROOT
