@<TRIPOS>MOLECULE
M35
   58    61     1     0     0
SMALL
bcc


@<TRIPOS>ATOM
      1 C1          0.2700   -0.0080    0.1580 c3        1 M35     -0.147000
      2 F1          3.2820   -1.0590    8.3950 f         1 M35     -0.135667
      3 N1          2.0030   -0.4340    4.0720 na        1 M35      0.008000
      4 S1          6.3660    4.6970   -2.1550 s6        1 M35      2.845000
      5 C2          1.5750    0.7140    0.4800 c3        1 M35     -0.105000
      6 F2          2.8340   -2.9340    7.3750 f         1 M35     -0.135667
      7 C3          1.9580    0.5940    1.9120 c2        1 M35      0.005000
      8 F3          1.2100   -1.6380    8.0410 f         1 M35     -0.135667
      9 N3         -2.1940    0.5130   -0.2070 n3        1 M35     -0.347000
     10 O3          2.8590    1.5990    2.2830 os        1 M35     -0.092000
     11 C4          1.5120   -0.3980    2.7460 c2        1 M35      0.052000
     12 F4          6.9090    3.3000    4.2150 f         1 M35     -0.123000
     13 O4          5.8570    5.0860   -3.4010 o         1 M35     -0.943000
     14 C5          0.5480   -1.3680    2.2440 c2        1 M35     -0.148000
     15 N5          4.2680    2.5260    3.8620 nh        1 M35     -0.142000
     16 O5          5.6120    3.7290   -1.4610 o         1 M35     -0.943000
     17 C6         -0.0100   -1.1750    1.0360 c2        1 M35     -0.085000
     18 N6          1.7310   -1.2810    5.0440 n2        1 M35      0.081000
     19 C7          4.8170    3.5080    3.0090 c2        1 M35     -0.087000
     20 C9          7.9630    4.1990   -2.2960 c3        1 M35     -0.957000
     21 C10         2.4880   -0.8890    6.1280 c2        1 M35     -0.204000
     22 C11         2.4500   -1.6230    7.4630 c3        1 M35      0.517000
     23 C12         3.2810    0.2650    5.8190 c2        1 M35     -0.050000
     24 C13         2.9570    0.5570    4.4730 c2        1 M35     -0.201000
     25 C14         6.8850    4.8770    2.4130 c1        1 M35     -0.018000
     26 C15         8.2380    6.4480    0.5310 c2        1 M35      0.014000
     27 C16         6.2400    5.2010    1.1830 c2        1 M35     -0.097000
     28 C17         7.0280    5.9260    0.1940 c2        1 M35     -0.086000
     29 C18         4.9380    4.8280    0.9580 c2        1 M35      0.000000
     30 C20        -0.9160    0.9920    0.2110 c3        1 M35     -0.061000
     31 C21         6.5140    6.0790   -1.1730 c2        1 M35     -0.823000
     32 C22         4.2400    3.9460    1.8520 c2        1 M35     -0.096000
     33 C23         9.0300    7.2050   -0.4090 c2        1 M35     -0.455000
     34 C24         6.1820    7.2970   -1.6460 c2        1 M35      0.001000
     35 C26         8.5520    7.6950   -1.5440 c1        1 M35      0.206000
     36 C44         6.1270    4.1600    3.4640 c3        1 M35      0.053000
     37 H1          1.4980    1.8010    0.2000 hc        1 M35      0.134000
     38 H2          0.3620   -0.3830   -0.9040 hc        1 M35      0.132000
     39 H3          2.4150    0.2770   -0.1320 hc        1 M35      0.134000
     40 HN3        -0.7460   -1.9000    0.6460 ha        1 M35      0.161000
     41 HN3A       -2.5340   -0.2320    0.3640 hn        1 M35      0.162000
     42 H5          0.3030   -2.2380    2.8750 ha        1 M35      0.185000
     43 HN5         4.6980    2.4600    4.7730 hn        1 M35      0.294000
     44 H9          8.6910    4.7750   -1.6680 h1        1 M35      0.172333
     45 H9A         8.0970    3.1240   -2.0080 h1        1 M35      0.172333
     46 H9B         8.3370    4.2870   -3.3500 h1        1 M35      0.172333
     47 H12         3.9680    0.7770    6.4900 ha        1 M35      0.207000
     48 H14         5.8190    5.0400    4.1400 h1        1 M35      0.172000
     49 H15         8.6500    6.3080    1.5480 ha        1 M35      0.180000
     50 H18         4.3970    5.1300    0.0430 ha        1 M35      0.174000
     51 H20        -1.0100    1.3630    1.2710 h1        1 M35      0.099500
     52 H20A       -0.6440    1.8690   -0.4450 h1        1 M35      0.099500
     53 H22         3.2450    3.6050    1.5160 ha        1 M35      0.166000
     54 H23        10.0850    7.3980   -0.1270 ha        1 M35      0.207000
     55 H24         6.2070    8.2100   -1.0300 ha        1 M35      0.156000
     56 H26         5.8380    7.4380   -2.6880 ha        1 M35      0.156000
     57 C8          3.3800    1.5690    3.5470 c2        1 M35      0.335000
     58 H33        -2.2100    0.2470   -1.1700 hn        1 M35      0.162000
@<TRIPOS>BOND
     1    1    5 1   
     2    1   17 1   
     3    1   30 1   
     4    1   38 1   
     5    2   22 1   
     6    3   11 1   
     7    3   18 1   
     8    3   24 1   
     9    4   13 1   
    10    4   16 1   
    11    4   20 1   
    12    4   31 1   
    13    5    7 1   
    14    5   37 1   
    15    5   39 1   
    16    6   22 1   
    17    7   10 1   
    18    7   11 1   
    19    8   22 1   
    20    9   30 1   
    21    9   41 1   
    22    9   58 1   
    23   10   57 1   
    24   11   14 1   
    25   12   36 1   
    26   14   17 1   
    27   14   42 1   
    28   15   19 1   
    29   15   43 1   
    30   15   57 1   
    31   17   40 1   
    32   18   21 1   
    33   19   32 1   
    34   19   36 1   
    35   20   44 1   
    36   20   45 1   
    37   20   46 1   
    38   21   22 1   
    39   21   23 1   
    40   23   24 1   
    41   23   47 1   
    42   24   57 1   
    43   25   27 1   
    44   25   36 1   
    45   26   28 1   
    46   26   33 1   
    47   26   49 1   
    48   27   28 1   
    49   27   29 1   
    50   28   31 1   
    51   29   32 1   
    52   29   50 1   
    53   30   51 1   
    54   30   52 1   
    55   31   34 1   
    56   32   53 1   
    57   33   35 1   
    58   33   54 1   
    59   34   55 1   
    60   34   56 1   
    61   36   48 1   
@<TRIPOS>SUBSTRUCTURE
     1 M35         1 TEMP              0 ****  ****    0 ROOT
