@<TRIPOS>MOLECULE
M35
   58    60     1     0     0
SMALL
bcc


@<TRIPOS>ATOM
      1 C1          1.2540    1.3530    0.0990 c2        1 M35     -0.056000
      2 F1          1.5140   -0.5180    8.6410 f         1 M35     -0.147000
      3 N1          1.6460    0.5070    4.2140 na        1 M35     -0.017000
      4 S1          4.9680    4.3960   -1.6680 s6        1 M35      2.852000
      5 C2          2.0940    2.2170    0.9470 c3        1 M35     -0.197000
      6 F2          1.5680   -2.2900    7.3810 f         1 M35     -0.147000
      7 C3          2.2000    1.8390    2.3350 c1        1 M35     -0.182000
      8 F3         -0.2830   -1.1650    7.5960 f         1 M35     -0.147000
      9 N3          0.0230   -2.0020   -0.1390 n8        1 M35     -0.364000
     10 O3          2.4940    3.8110    4.3610 o         1 M35     -0.273000
     11 C4          1.4960    0.7160    2.8100 c2        1 M35     -0.087000
     12 F4          6.8310    1.4890    3.1560 f         1 M35     -0.127000
     13 O4          3.9450    5.0580   -2.3570 o         1 M35     -0.950000
     14 C5          0.7150   -0.0830    1.9850 c2        1 M35      0.103000
     15 N5          4.3470    2.4280    3.9740 ns        1 M35     -0.174000
     16 O5          4.5270    3.4870   -0.6810 o         1 M35     -0.950000
     17 C6          0.6090    0.2610    0.5990 c2        1 M35     -0.143000
     18 N6          1.1190   -0.4480    4.9680 n2        1 M35      0.026000
     19 C7          5.1700    3.2640    3.3670 c2        1 M35      0.198000
     20 C9          6.0050    3.6200   -2.7360 c3        1 M35     -0.960000
     21 C10         1.4630   -0.1480    6.2600 c2        1 M35     -0.216000
     22 C11         1.0700   -1.0140    7.4410 c3        1 M35      0.515000
     23 C12         2.2320    1.0730    6.3220 c2        1 M35     -0.098000
     24 C13         2.3330    1.4790    4.9840 c2        1 M35     -0.158000
     25 C14         7.1010    3.4080    1.7600 c2        1 M35     -0.147000
     26 C15         8.3440    5.1950   -0.3350 c2        1 M35     -0.004000
     27 C16         6.5760    4.5400    1.2420 c2        1 M35     -0.022000
     28 C17         7.0260    5.1010   -0.0300 c2        1 M35     -0.095000
     29 C18         5.5000    5.2160    1.9520 c2        1 M35      0.025000
     30 C20        -0.2720   -0.5970   -0.2740 c3        1 M35     -0.039000
     31 C21         6.0000    5.5530   -0.9760 c2        1 M35     -0.825000
     32 C22         4.8360    4.6220    2.9700 c2        1 M35     -0.220000
     33 C23         8.7980    5.7780   -1.5750 c2        1 M35     -0.453000
     34 C24         5.8850    6.8580   -1.2950 c2        1 M35      0.010000
     35 C26         8.0160    6.4840   -2.3800 c1        1 M35      0.214000
     36 C44         6.6270    2.8560    3.0720 c3        1 M35      0.077000
     37 H1          1.7120    3.2880    0.9040 hc        1 M35      0.217500
     38 H2          1.1690    1.6310   -0.9660 ha        1 M35      0.160000
     39 H3          3.1410    2.2940    0.4950 hc        1 M35      0.217500
     40 HN3         0.8730   -2.2480   -0.6010 hn        1 M35      0.165500
     41 HN3A        6.1830    2.5490   -2.4620 h1        1 M35      0.174333
     42 H5          0.1710   -0.9730    2.3570 ha        1 M35      0.199000
     43 HN5         4.6720    1.4850    4.1380 hn        1 M35      0.275000
     44 H9          7.9140    2.8430    1.2770 ha        1 M35      0.181000
     45 H9A         5.5900    3.6070   -3.7800 h1        1 M35      0.174333
     46 H9B         7.0200    4.0860   -2.8290 h1        1 M35      0.174333
     47 H12         2.6180    1.5490    7.2190 ha        1 M35      0.199000
     48 H14         7.2390    3.3530    3.8990 h1        1 M35      0.167000
     49 H15         9.1200    4.8400    0.3640 ha        1 M35      0.151000
     50 H18         5.2230    6.2310    1.6140 ha        1 M35      0.175000
     51 H20        -0.1830   -0.2290   -1.3400 h1        1 M35      0.089000
     52 H20A       -1.3410   -0.4260    0.0480 h1        1 M35      0.089000
     53 H22         3.9870    5.1250    3.4720 ha        1 M35      0.213000
     54 H23         9.8680    5.6370   -1.8320 ha        1 M35      0.211000
     55 H24         6.4980    7.6490   -0.8310 ha        1 M35      0.160000
     56 H26         5.1380    7.2100   -2.0310 ha        1 M35      0.160000
     57 C8          2.9420    2.6650    4.3500 c2        1 M35      0.462000
     58 H33        -0.7300   -2.5610   -0.4860 hn        1 M35      0.165500
@<TRIPOS>BOND
     1    1    5 1   
     2    1   17 1   
     3    1   38 1   
     4    2   22 1   
     5    3   11 1   
     6    3   18 1   
     7    3   24 1   
     8    4   13 1   
     9    4   16 1   
    10    4   20 1   
    11    4   31 1   
    12    5    7 1   
    13    5   37 1   
    14    5   39 1   
    15    6   22 1   
    16    7   11 1   
    17    8   22 1   
    18    9   30 1   
    19    9   40 1   
    20    9   58 1   
    21   10   57 1   
    22   11   14 1   
    23   12   36 1   
    24   14   17 1   
    25   14   42 1   
    26   15   19 1   
    27   15   43 1   
    28   15   57 1   
    29   17   30 1   
    30   18   21 1   
    31   19   32 1   
    32   19   36 1   
    33   20   41 1   
    34   20   45 1   
    35   20   46 1   
    36   21   22 1   
    37   21   23 1   
    38   23   24 1   
    39   23   47 1   
    40   24   57 1   
    41   25   27 1   
    42   25   36 1   
    43   25   44 1   
    44   26   28 1   
    45   26   33 1   
    46   26   49 1   
    47   27   28 1   
    48   27   29 1   
    49   28   31 1   
    50   29   32 1   
    51   29   50 1   
    52   30   51 1   
    53   30   52 1   
    54   31   34 1   
    55   32   53 1   
    56   33   35 1   
    57   33   54 1   
    58   34   55 1   
    59   34   56 1   
    60   36   48 1   
@<TRIPOS>SUBSTRUCTURE
     1 M35         1 TEMP              0 ****  ****    0 ROOT
