@<TRIPOS>MOLECULE
M35
   57    59     1     0     0
SMALL
bcc


@<TRIPOS>ATOM
      1 C1          1.3260    1.9650    0.2500 c2        1 M35     -0.050000
      2 F1          2.2880   -1.5300    8.2250 f         1 M35     -0.157333
      3 N1          2.0850    0.5190    4.1600 na        1 M35     -0.015000
      4 S1          5.9290    3.6090   -1.6610 s6        1 M35      2.865000
      5 C2          2.3170    2.6490    1.0960 c3        1 M35     -0.216000
      6 F2          2.0130   -2.9440    6.6000 f         1 M35     -0.157333
      7 C3          2.5270    2.1260    2.4240 c1        1 M35     -0.159000
      8 F3          0.3380   -1.7490    7.2930 f         1 M35     -0.157333
      9 N3         -0.0230   -1.1650   -0.6110 n3        1 M35     -0.337000
     10 O3          3.2910    3.5760    5.0810 o         1 M35     -0.290000
     11 C4          1.8040    0.9730    2.8330 c2        1 M35     -0.072000
     12 F4          6.1860    1.4440    1.6690 f         1 M35     -0.144000
     13 O4          5.6660    3.6220   -3.0540 o         1 M35     -0.967000
     14 C5          0.8840    0.3490    2.0090 c2        1 M35      0.033000
     15 N5          4.8770    2.2680    3.9720 n         1 M35     -0.266000
     16 O5          4.7660    3.3230   -0.9110 o         1 M35     -0.967000
     17 C6          0.6560    0.8650    0.6910 c2        1 M35     -0.205000
     18 N6          1.5420   -0.5480    4.7410 n2        1 M35     -0.014000
     19 C7          5.4420    3.2220    3.1610 c2        1 M35      0.139000
     20 C9          7.1780    2.4920   -1.4250 c3        1 M35     -0.894000
     21 C10         2.0430   -0.5930    6.0140 c2        1 M35     -0.220000
     22 C11         1.6770   -1.6760    7.0040 c3        1 M35      0.514000
     23 C12         2.9400    0.5110    6.2510 c2        1 M35     -0.130000
     24 C13         2.9490    1.2140    5.0370 c2        1 M35     -0.112000
     25 C14         6.4260    3.6880    0.8810 c1        1 M35     -0.227000
     26 C15         5.9840    7.1940   -0.1370 c2        1 M35     -0.093000
     27 C16         6.1240    5.0360    1.0640 c2        1 M35     -0.199000
     28 C17         6.2480    5.8700   -0.1320 c2        1 M35      0.034000
     29 C18         5.6370    5.4900    2.2890 c2        1 M35      0.090000
     30 C20        -0.3630    0.1590   -0.1680 c3        1 M35     -0.043000
     31 C21         6.6560    5.1200   -1.3250 c2        1 M35     -0.725000
     32 C22         5.2780    4.5960    3.3140 c2        1 M35     -0.288000
     33 C23         6.0160    8.0400   -1.3050 c2        1 M35     -0.449000
     34 C24         7.5900    5.6110   -2.1520 c2        1 M35     -0.069000
     35 C26         6.1110    9.3530   -1.3490 c1        1 M35      0.203000
     36 C44         6.3810    2.7660    2.0370 c3        1 M35      0.062000
     37 H1          2.0740    3.7540    1.1810 hc        1 M35      0.223000
     38 H2          1.1600    2.3740   -0.7600 ha        1 M35      0.155000
     39 H3          3.3310    2.6540    0.5530 hc        1 M35      0.223000
     40 HN3         0.1530   -1.7770    0.1610 hn        1 M35      0.149000
     41 HN3A        0.7750   -1.1580   -1.2130 hn        1 M35      0.149000
     42 H5          0.3050   -0.5370    2.3230 ha        1 M35      0.165000
     43 HN5         5.0450    1.3200    3.6880 hn        1 M35      0.245000
     44 H9          6.8770    1.6990   -0.6930 h1        1 M35      0.153333
     45 H9A         8.1130    2.9380   -1.0080 h1        1 M35      0.153333
     46 H9B         7.4550    1.9790   -2.3810 h1        1 M35      0.153333
     47 H12         3.4720    0.7320    7.1710 ha        1 M35      0.191000
     48 H14         7.4370    2.8480    2.4790 h1        1 M35      0.158000
     49 H15         5.6940    7.7040    0.7980 ha        1 M35      0.125000
     50 H18         5.4550    6.5640    2.4680 ha        1 M35      0.143000
     51 H20        -0.5680    0.7870   -1.0820 h1        1 M35      0.104500
     52 H20A       -1.3260    0.0900    0.4190 h1        1 M35      0.104500
     53 H22         4.7550    5.0000    4.1990 ha        1 M35      0.184000
     54 H23         5.9310    7.5150   -2.2870 ha        1 M35      0.202000
     55 H24         8.0950    6.5730   -1.9810 ha        1 M35      0.131500
     56 H26         7.8990    5.0690   -3.0610 ha        1 M35      0.131500
     57 C8          3.6600    2.4670    4.6790 c2        1 M35      0.435000
@<TRIPOS>BOND
     1    1    5 1   
     2    1   17 1   
     3    1   38 1   
     4    2   22 1   
     5    3   11 1   
     6    3   18 1   
     7    3   24 1   
     8    4   13 1   
     9    4   16 1   
    10    4   20 1   
    11    4   31 1   
    12    5    7 1   
    13    5   37 1   
    14    5   39 1   
    15    6   22 1   
    16    7   11 1   
    17    8   22 1   
    18    9   30 1   
    19    9   40 1   
    20    9   41 1   
    21   10   57 1   
    22   11   14 1   
    23   12   36 1   
    24   14   17 1   
    25   14   42 1   
    26   15   19 1   
    27   15   43 1   
    28   15   57 1   
    29   17   30 1   
    30   18   21 1   
    31   19   32 1   
    32   19   36 1   
    33   20   44 1   
    34   20   45 1   
    35   20   46 1   
    36   21   22 1   
    37   21   23 1   
    38   23   24 1   
    39   23   47 1   
    40   24   57 1   
    41   25   27 1   
    42   25   36 1   
    43   26   28 1   
    44   26   33 1   
    45   26   49 1   
    46   27   28 1   
    47   27   29 1   
    48   28   31 1   
    49   29   32 1   
    50   29   50 1   
    51   30   51 1   
    52   30   52 1   
    53   31   34 1   
    54   32   53 1   
    55   33   35 1   
    56   33   54 1   
    57   34   55 1   
    58   34   56 1   
    59   36   48 1   
@<TRIPOS>SUBSTRUCTURE
     1 M35         1 TEMP              0 ****  ****    0 ROOT
