@<TRIPOS>MOLECULE
M37
   59    61     1     0     0
SMALL
bcc


@<TRIPOS>ATOM
      1 C1          0.4300    3.4530    1.0910 c3        1 M37     -0.251000
      2 F1          1.0870   -0.6340    7.6660 f         1 M37     -0.131000
      3 N1          0.8900   -0.1660    3.5140 n3        1 M37     -0.087000
      4 S1          4.3280   -7.6020   -2.6130 s6        1 M37      2.775000
      5 C2          1.4130    2.4060    0.9680 c1        1 M37      0.017000
      6 F2          2.8680   -1.6480    6.9240 f         1 M37     -0.131000
      7 N2          4.9970   -9.1950   -3.1390 n4        1 M37     -0.615000
      8 C3          1.2860    1.1280    1.4760 c2        1 M37     -0.078000
      9 F3          1.0440   -2.7900    7.3090 f         1 M37     -0.131000
     10 N3          1.5810    3.0360    4.9470 n4        1 M37     -0.062000
     11 O3          1.3670   -1.9360    1.0970 o         1 M37     -0.162000
     12 C4          0.7340    1.0220    2.7470 c2        1 M37     -0.222000
     13 F4         -0.0470   -5.1510   -0.2750 f         1 M37     -0.036000
     14 O4          4.9670   -6.6980   -3.4440 o         1 M37     -0.842000
     15 C5         -0.1110    2.1690    3.2590 c3        1 M37     -0.153000
     16 N5          0.4460   -3.7920    2.2470 n4        1 M37     -0.026000
     17 O5          2.9550   -7.7810   -2.6330 o         1 M37     -0.842000
     18 C6         -0.2230    3.3500    2.3900 c1        1 M37      0.037000
     19 N6          1.2930   -0.1460    4.7510 n2        1 M37      0.096000
     20 C7          1.3900   -4.6970    1.5940 c2        1 M37     -0.280000
     21 C9          0.1650    2.6560    4.6900 c3        1 M37     -0.115000
     22 C10         1.0510   -1.3530    5.3610 c2        1 M37     -0.330000
     23 C11         1.5040   -1.6120    6.8000 c3        1 M37      0.526000
     24 C12         0.3980   -2.2900    4.5080 c1        1 M37      0.011000
     25 C13         0.2010   -1.4860    3.2160 c3        1 M37     -0.163000
     26 C14         2.0020   -6.3720   -0.1000 c2        1 M37     -0.220000
     27 C15         4.1230   -8.8580    0.8460 c2        1 M37     -0.003000
     28 C16         3.1740   -6.6330    0.5430 c2        1 M37      0.053000
     29 C17         4.0690   -7.7220    0.1120 c2        1 M37     -0.085000
     30 C18         3.5650   -5.8620    1.7540 c3        1 M37     -0.196000
     31 C21         4.9280   -7.4840   -1.0630 c2        1 M37     -0.916000
     32 C22         2.6200   -4.8850    2.2480 c1        1 M37     -0.070000
     33 C23         4.9400  -10.0070    0.4910 c2        1 M37     -0.328000
     34 C24         6.1840   -7.0270   -0.8400 c2        1 M37      0.082000
     35 C26         5.4420  -10.1260   -0.7110 c1        1 M37      0.122000
     36 C44         1.0830   -5.3740    0.4030 c2        1 M37      0.307000
     37 H1         -0.3740    3.4440    0.2800 hc        1 M37      0.240500
     38 H2          0.8890    4.4900    0.9770 hc        1 M37      0.240500
     39 HN2         4.2870   -9.7760   -3.5890 hn        1 M37      0.291000
     40 HN2A        5.7620   -9.0950   -3.8090 hn        1 M37      0.291000
     41 H3          1.7370    0.2750    0.9330 ha        1 M37      0.212000
     42 HN3         2.2240    2.3080    4.6150 hn        1 M37      0.267000
     43 HN5        -0.5050   -3.9690    1.9010 hn        1 M37      0.293000
     44 H6         -1.1970    1.7960    3.2970 hc        1 M37      0.205000
     45 H9         -0.4800    3.5720    4.8800 hx        1 M37      0.176500
     46 H12        -0.8960   -1.2800    3.0280 h1        1 M37      0.216000
     47 H14         1.6800   -6.9290   -1.0040 ha        1 M37      0.218000
     48 H15         3.5040   -8.9840    1.7550 ha        1 M37      0.185000
     49 H18         3.7910   -6.5710    2.6150 hc        1 M37      0.207500
     50 H22         4.5470   -5.3190    1.5720 hc        1 M37      0.207500
     51 H23         5.0870  -10.7850    1.2780 ha        1 M37      0.258000
     52 H24         6.5840   -6.8530    0.1740 ha        1 M37      0.174000
     53 H26         6.8840   -6.7910   -1.6660 ha        1 M37      0.174000
     54 H181       -0.1270    1.8680    5.4420 hx        1 M37      0.176500
     55 H19         1.7220    3.1660    5.9580 hn        1 M37      0.267000
     56 C8          0.7530   -2.3210    2.0770 c2        1 M37      0.300000
     57 H231        5.3820   -9.7850   -2.2950 hn        1 M37      0.291000
     58 H33         1.8080    3.9180    4.4720 hn        1 M37      0.267000
     59 H52         0.4780   -3.9900    3.2860 hn        1 M37      0.293000
@<TRIPOS>BOND
     1    1    5 1   
     2    1   18 1   
     3    1   37 1   
     4    1   38 1   
     5    2   23 1   
     6    3   12 1   
     7    3   19 1   
     8    3   25 1   
     9    4    7 1   
    10    4   14 1   
    11    4   17 1   
    12    4   31 1   
    13    5    8 1   
    14    6   23 1   
    15    7   39 1   
    16    7   40 1   
    17    7   57 1   
    18    8   12 1   
    19    8   41 1   
    20    9   23 1   
    21   10   21 1   
    22   10   42 1   
    23   10   55 1   
    24   10   58 1   
    25   11   56 1   
    26   12   15 1   
    27   13   36 1   
    28   15   18 1   
    29   15   21 1   
    30   15   44 1   
    31   16   20 1   
    32   16   43 1   
    33   16   56 1   
    34   16   59 1   
    35   19   22 1   
    36   20   32 1   
    37   20   36 1   
    38   21   45 1   
    39   21   54 1   
    40   22   23 1   
    41   22   24 1   
    42   24   25 1   
    43   25   46 1   
    44   25   56 1   
    45   26   28 1   
    46   26   36 1   
    47   26   47 1   
    48   27   29 1   
    49   27   33 1   
    50   27   48 1   
    51   28   29 1   
    52   28   30 1   
    53   29   31 1   
    54   30   32 1   
    55   30   49 1   
    56   30   50 1   
    57   31   34 1   
    58   33   35 1   
    59   33   51 1   
    60   34   52 1   
    61   34   53 1   
@<TRIPOS>SUBSTRUCTURE
     1 M37         1 TEMP              0 ****  ****    0 ROOT
