@<TRIPOS>MOLECULE
M37
   58    60     1     0     0
SMALL
bcc


@<TRIPOS>ATOM
      1 C1         -0.7360    3.1820    1.1300 c3        1 M37     -0.301000
      2 F1          2.3310    0.7860    7.6170 f         1 M37     -0.145333
      3 N1          1.0690    0.2190    3.7030 n3        1 M37     -0.126000
      4 S1          6.0200   -7.7500   -1.7440 s6        1 M37      2.855000
      5 C2         -0.2900    1.8690    0.6560 c1        1 M37      0.064000
      6 F2          4.1680    0.2530    6.5890 f         1 M37     -0.145333
      7 N2          5.3680   -8.5100   -3.3800 nz        1 M37     -0.508000
      8 C3          0.6160    1.1540    1.4840 c2        1 M37     -0.138000
      9 F3          2.9970   -1.2870    7.5980 f         1 M37     -0.145333
     10 N3          0.3070    3.4500    5.1430 nz        1 M37     -0.062000
     11 O3          1.8110   -1.4700    1.4320 o         1 M37     -0.310000
     12 C4          0.3690    1.1010    2.8310 c2        1 M37     -0.076000
     13 F4          0.2690   -6.7670   -2.2960 f         1 M37     -0.075000
     14 O4          7.3190   -8.2040   -1.7840 o         1 M37     -0.851000
     15 C5         -0.7230    2.0060    3.3650 c3        1 M37     -0.181000
     16 N5          1.9410   -3.3560    2.7790 ns        1 M37     -0.223000
     17 O5          5.7240   -6.4190   -1.9560 o         1 M37     -0.851000
     18 C6         -0.8340    3.2590    2.5760 c1        1 M37     -0.028000
     19 N6          1.7010    0.6530    4.7530 n2        1 M37      0.063000
     20 C7          2.5790   -4.1320    1.8830 c1        1 M37     -0.031000
     21 C9         -0.6990    2.3930    4.8470 c3        1 M37     -0.092000
     22 C10         2.0960   -0.4050    5.5290 c2        1 M37     -0.364000
     23 C11         2.8870   -0.1800    6.8090 c3        1 M37      0.524000
     24 C12         1.7050   -1.6830    4.9950 c1        1 M37      0.054000
     25 C13         0.9810   -1.2980    3.7160 c3        1 M37     -0.147000
     26 C14         1.9000   -6.9370   -0.6200 c1        1 M37     -0.211000
     27 C15         3.4110   -9.2510    0.8200 c3        1 M37     -0.087000
     28 C16         3.1410   -6.9230   -0.2100 c2        1 M37     -0.060000
     29 C17         3.8980   -8.1670   -0.0960 c2        1 M37      0.289000
     30 C18         3.8590   -5.6540    0.1680 c3        1 M37      0.008000
     31 C21         5.0620   -8.5120   -0.7430 c2        1 M37     -1.102000
     32 C22         3.1340   -4.8430    1.0930 c1        1 M37     -0.164000
     33 C23         4.4190  -10.3500    0.6730 c2        1 M37     -0.484000
     34 C24         5.4810   -9.9100   -0.2880 c3        1 M37      0.003000
     35 C26         4.3840  -11.5170    1.3020 c1        1 M37      0.339000
     36 C44         0.6440   -6.8940   -1.0100 c2        1 M37      0.128000
     37 H1         -1.7600    3.4380    0.6950 hc        1 M37      0.224000
     38 H2         -0.0720    4.0130    0.7280 hc        1 M37      0.224000
     39 HN2         4.9740   -7.7870   -3.9800 hn        1 M37      0.253000
     40 HN2A        6.1330   -8.9510   -3.8900 hn        1 M37      0.253000
     41 H3          1.4300    0.5860    0.9860 ha        1 M37      0.236000
     42 HN3         1.2610    3.1150    4.9700 hn        1 M37      0.268000
     43 HN5         1.9290   -3.6780    3.7340 hn        1 M37      0.289000
     44 H6         -1.7150    1.4540    3.2260 hc        1 M37      0.190000
     45 H9         -1.7130    2.8290    5.1020 hx        1 M37      0.156500
     46 H12        -0.1090   -1.5930    3.7580 h1        1 M37      0.200000
     47 H14        -0.2020   -6.9730   -0.2960 h4        1 M37      0.190000
     48 H15         2.3770   -9.5760    0.5230 hc        1 M37      0.153500
     49 H18         4.8650   -5.9070    0.6120 hc        1 M37      0.132000
     50 H22         4.0570   -5.0590   -0.7760 hc        1 M37      0.132000
     51 H23         3.3620   -8.8680    1.8770 hc        1 M37      0.153500
     52 H24         6.4890   -9.8740    0.2070 hc        1 M37      0.117000
     53 H26         5.5380  -10.6040   -1.1670 hc        1 M37      0.117000
     54 H181       -0.5250    1.5140    5.5280 hx        1 M37      0.156500
     55 H19         0.2300    3.7410    6.1230 hn        1 M37      0.268000
     56 C8          1.6340   -2.0220    2.5250 c2        1 M37      0.347000
     57 H231        4.6520   -9.2140   -3.2260 hn        1 M37      0.253000
     58 H33         0.1210    4.2580    4.5260 hn        1 M37      0.268000
@<TRIPOS>BOND
     1    1    5 1   
     2    1   18 1   
     3    1   37 1   
     4    1   38 1   
     5    2   23 1   
     6    3   12 1   
     7    3   19 1   
     8    3   25 1   
     9    4    7 1   
    10    4   14 1   
    11    4   17 1   
    12    4   31 1   
    13    5    8 1   
    14    6   23 1   
    15    7   39 1   
    16    7   40 1   
    17    7   57 1   
    18    8   12 1   
    19    8   41 1   
    20    9   23 1   
    21   10   21 1   
    22   10   42 1   
    23   10   55 1   
    24   10   58 1   
    25   11   56 1   
    26   12   15 1   
    27   13   36 1   
    28   15   18 1   
    29   15   21 1   
    30   15   44 1   
    31   16   20 1   
    32   16   43 1   
    33   16   56 1   
    34   19   22 1   
    35   20   32 1   
    36   21   45 1   
    37   21   54 1   
    38   22   23 1   
    39   22   24 1   
    40   24   25 1   
    41   25   46 1   
    42   25   56 1   
    43   26   28 1   
    44   26   36 1   
    45   27   29 1   
    46   27   33 1   
    47   27   48 1   
    48   27   51 1   
    49   28   29 1   
    50   28   30 1   
    51   29   31 1   
    52   30   32 1   
    53   30   49 1   
    54   30   50 1   
    55   31   34 1   
    56   33   34 1   
    57   33   35 1   
    58   34   52 1   
    59   34   53 1   
    60   36   47 1   
@<TRIPOS>SUBSTRUCTURE
     1 M37         1 TEMP              0 ****  ****    0 ROOT
