@<TRIPOS>MOLECULE
M37
   58    60     1     0     0
SMALL
bcc


@<TRIPOS>ATOM
      1 C1         -2.4220    1.0950    1.6100 c3        1 M37     -0.271000
      2 F1          3.7600    2.2560    6.1220 f         1 M37     -0.141333
      3 N1          1.3670    0.0640    3.4920 n3        1 M37     -0.131000
      4 S1          5.9220   -7.3610   -0.2010 s6        1 M37      2.810000
      5 C2         -1.2140    0.6730    0.9270 c1        1 M37     -0.003000
      6 F2          5.1460    1.6000    4.5820 f         1 M37     -0.141333
      7 N2          5.7820   -6.7530   -1.6150 n3        1 M37     -0.924000
      8 C3         -0.1810    0.0120    1.5970 c2        1 M37     -0.107000
      9 F3          4.9130    0.4280    6.4090 f         1 M37     -0.141333
     10 N3          0.5010    3.4270    3.1970 n4        1 M37     -0.061000
     11 O3          1.5350   -2.3750    1.8520 o         1 M37     -0.310000
     12 C4          0.1550    0.4540    2.8580 c2        1 M37     -0.151000
     13 F4          0.6550   -5.0350   -1.5210 f         1 M37     -0.089000
     14 O4          7.2210   -7.5260    0.2550 o         1 M37     -0.805000
     15 C5         -0.8370    1.3150    3.6110 c3        1 M37     -0.165000
     16 N5          2.7630   -3.4500    3.4980 n         1 M37     -0.232000
     17 O5          5.1760   -6.3140    0.8360 os        1 M37     -0.631000
     18 C6         -2.1160    1.5960    2.9420 c1        1 M37      0.016000
     19 N6          2.1890    0.9490    3.9920 n2        1 M37      0.057000
     20 C7          3.1400   -4.5040    2.7610 c1        1 M37      0.043000
     21 C9         -0.2860    2.6310    4.1800 c3        1 M37     -0.112000
     22 C10         3.0960    0.3400    4.8070 c2        1 M37     -0.346000
     23 C11         4.2150    1.1330    5.4730 c3        1 M37      0.522000
     24 C12         2.8920   -1.0860    4.9270 c1        1 M37      0.069000
     25 C13         1.6750   -1.3160    4.0430 c3        1 M37     -0.152000
     26 C14         2.4230   -6.1590   -0.4380 c2        1 M37     -0.279000
     27 C15         2.7810   -9.0390   -1.2290 c2        1 M37      0.031000
     28 C16         2.9270   -7.2310    0.4610 c3        1 M37     -0.051000
     29 C17         3.5310   -8.3620   -0.3290 c2        1 M37     -0.183000
     30 C18         3.9320   -6.6630    1.4850 c3        1 M37      0.233000
     31 C21         4.9430   -8.6690   -0.0890 c2        1 M37     -0.894000
     32 C22         3.4620   -5.4890    2.1540 c1        1 M37     -0.195000
     33 C23         3.2820  -10.1160   -2.0480 c2        1 M37     -0.451000
     34 C24         5.3660   -9.9110    0.2450 c2        1 M37      0.089000
     35 C26         4.3650  -10.8170   -1.7580 c1        1 M37      0.224000
     36 C44         1.1130   -6.0120   -0.7190 c2        1 M37      0.063000
     37 H1         -3.1980    0.2660    1.7090 hc        1 M37      0.224500
     38 H2         -2.9720    1.9010    1.0260 hc        1 M37      0.224500
     39 HN2         6.5360   -6.3030   -2.0980 hn        1 M37      0.299000
     40 HN2A        3.1720   -5.4590   -0.8370 ha        1 M37      0.146000
     41 H3          0.4030   -0.7560    1.0460 ha        1 M37      0.233000
     42 HN3         1.1080    2.8190    2.6330 hn        1 M37      0.264333
     43 HN5         3.1900   -3.3490    4.4070 hn        1 M37      0.300000
     44 H6         -1.1690    0.7180    4.5330 hc        1 M37      0.204000
     45 H9         -1.1580    3.2660    4.5300 hx        1 M37      0.172000
     46 H12         0.7930   -1.6630    4.6600 h1        1 M37      0.202000
     47 H14         0.3160   -6.6700   -0.3250 h4        1 M37      0.155000
     48 H15         1.7210   -8.7610   -1.3820 ha        1 M37      0.164000
     49 H18         2.0710   -7.6540    1.0700 hc        1 M37      0.148000
     50 H22         4.1870   -7.4580    2.2520 h1        1 M37      0.133000
     51 H23         2.6890  -10.3660   -2.9560 ha        1 M37      0.226000
     52 H24         4.6700  -10.7410    0.4770 ha        1 M37      0.182000
     53 H26         6.4400  -10.1550    0.3630 ha        1 M37      0.182000
     54 H181        0.3770    2.4250    5.0700 hx        1 M37      0.172000
     55 H19        -0.1260    3.9370    2.5650 hn        1 M37      0.264333
     56 C8          1.9830   -2.4050    3.0040 c2        1 M37      0.354000
     57 H231        4.9400   -6.7250   -2.1520 hn        1 M37      0.299000
     58 H33         1.0880    4.1060    3.6970 hn        1 M37      0.264333
@<TRIPOS>BOND
     1    1    5 1   
     2    1   18 1   
     3    1   37 1   
     4    1   38 1   
     5    2   23 1   
     6    3   12 1   
     7    3   19 1   
     8    3   25 1   
     9    4    7 1   
    10    4   14 1   
    11    4   17 1   
    12    4   31 1   
    13    5    8 1   
    14    6   23 1   
    15    7   39 1   
    16    7   57 1   
    17    8   12 1   
    18    8   41 1   
    19    9   23 1   
    20   10   21 1   
    21   10   42 1   
    22   10   55 1   
    23   10   58 1   
    24   11   56 1   
    25   12   15 1   
    26   13   36 1   
    27   15   18 1   
    28   15   21 1   
    29   15   44 1   
    30   16   20 1   
    31   16   43 1   
    32   16   56 1   
    33   17   30 1   
    34   19   22 1   
    35   20   32 1   
    36   21   45 1   
    37   21   54 1   
    38   22   23 1   
    39   22   24 1   
    40   24   25 1   
    41   25   46 1   
    42   25   56 1   
    43   26   28 1   
    44   26   36 1   
    45   26   40 1   
    46   27   29 1   
    47   27   33 1   
    48   27   48 1   
    49   28   29 1   
    50   28   30 1   
    51   28   49 1   
    52   29   31 1   
    53   30   32 1   
    54   30   50 1   
    55   31   34 1   
    56   33   35 1   
    57   33   51 1   
    58   34   52 1   
    59   34   53 1   
    60   36   47 1   
@<TRIPOS>SUBSTRUCTURE
     1 M37         1 TEMP              0 ****  ****    0 ROOT
