@<TRIPOS>MOLECULE
M37
   56    47     1     0     0
SMALL
bcc


@<TRIPOS>ATOM
      1 C1         -4.1680    2.1770   -5.3430 c1        1 M37     -0.108000
      2 F1          1.1070    5.0880    0.4020 f         1 M37     -0.156667
      3 N1         -1.5210    2.9400   -2.3900 n3        1 M37     -0.051000
      4 S1          4.7530   -3.8250    2.6810 ss        1 M37      2.863000
      5 C2         -2.7890    2.0280   -5.4640 c1        1 M37     -0.129000
      6 F2          0.8420    6.1870   -1.4780 f         1 M37     -0.156667
      7 N2          5.5530   -5.2700    2.6710 n2        1 M37     -0.951000
      8 C3         -1.9480    2.4950   -4.4590 c2        1 M37     -0.109000
      9 F3          2.4190    4.6730   -1.3050 f         1 M37     -0.156667
     10 N3         -5.8440    4.2360   -2.2200 n3        1 M37     -0.352000
     11 O3         -1.2290    1.4320    0.6540 o         1 M37     -0.319000
     12 C4         -2.4840    3.1100   -3.3330 c1        1 M37      0.007000
     13 F4          0.5520   -2.4950   -1.0250 f         1 M37     -0.111000
     14 O4          5.5570   -2.7860    3.2750 o         1 M37     -0.939000
     15 C5         -3.8640    3.2600   -3.2120 c1        1 M37     -0.038000
     16 N5          0.3460    0.1200   -0.3980 n         1 M37     -0.314000
     17 O5          4.5780   -3.3150    1.3470 o         1 M37     -0.939000
     18 C6         -4.7050    2.7930   -4.2180 c1        1 M37     -0.111000
     19 N6         -0.8490    4.1330   -2.2590 n2        1 M37      0.019000
     20 C7          0.5260   -0.7160    0.7630 c2        1 M37      0.059000
     21 C8         -0.5900    1.2140   -0.3600 c2        1 M37      0.386000
     22 C9         -4.6190    4.5520   -2.8930 c3        1 M37     -0.049000
     23 C10         0.2000    3.9350   -1.4230 c1        1 M37     -0.234000
     24 C11         1.1710    5.0020   -0.9370 c2        1 M37      0.515000
     25 C12         0.1860    2.6220   -1.0320 c1        1 M37     -0.104000
     26 C13        -0.8830    2.0130   -1.6350 c2        1 M37     -0.134000
     27 C14         1.1040   -3.0440    1.0070 c1        1 M37     -0.122000
     28 C15         0.8800   -4.6000    3.8580 c1        1 M37     -0.033500
     29 C16         1.3680   -2.8370    2.3590 c1        1 M37     -0.095000
     30 C17         1.8490   -3.8950    3.1520 c1        1 M37     -0.033500
     31 C18         1.2110   -1.5700    2.9120 c1        1 M37     -0.103000
     32 C21         3.1870   -3.9910    3.5220 c1        1 M37     -0.434500
     33 C22         0.7900   -0.5080    2.1150 c2        1 M37     -0.137000
     34 C23         1.2480   -5.4010    4.9340 c1        1 M37     -0.434500
     35 C24         3.5550   -4.7920    4.5980 c2        1 M37     -0.091500
     36 C26         2.5860   -5.4970    5.3040 c2        1 M37     -0.091500
     37 C44         0.6830   -1.9830    0.2090 c1        1 M37      0.026000
     38 H1         -4.7610    1.8480   -6.0530 ha        1 M37      0.144000
     39 H2         -2.4100    1.5940   -6.2590 DU        1 M37      0.156500
     40 HN2         6.4280   -5.3130    2.9470 hn        1 M37      0.247000
     41 HN2A        5.1340   -6.0220    2.3620 hn        1 M37      0.247000
     42 H3         -0.9770    2.3900   -4.5440 ha        1 M37      0.154000
     43 HN3        -5.8000    4.5280   -1.3530 hn        1 M37      0.156000
     44 HN5         0.7980   -0.0690   -1.1740 hn        1 M37      0.251000
     45 H6         -5.6770    2.8980   -4.1320 ha        1 M37      0.163000
     46 H9         -4.0650    5.1200   -2.3150 h1        1 M37      0.090000
     47 H12         0.8270    2.1950   -0.4290 DU        1 M37      0.156500
     48 H14         1.1850   -3.9440    0.6240 ha        1 M37      0.157000
     49 H15        -0.0640   -4.5330    3.5970 DU        1 M37      0.156500
     50 H18         1.3980   -1.4230    3.8660 ha        1 M37      0.187000
     51 H22         0.6790    0.3860    2.5050 ha        1 M37      0.186000
     52 H23         0.5640   -5.8990    5.4330 DU        1 M37      0.156500
     53 H24         4.4980   -4.8600    4.8590 ha        1 M37      0.155500
     54 H26         2.8460   -6.0630    6.0640 ha        1 M37      0.155500
     55 H181       -6.5440    4.6500   -2.6480 hn        1 M37      0.156000
     56 H19        -4.8180    5.0310   -3.7300 h1        1 M37      0.090000
@<TRIPOS>BOND
     1    1    5 1   
     2    1   38 1   
     3    2   24 1   
     4    3   12 1   
     5    3   19 1   
     6    3   26 1   
     7    4   14 1   
     8    4   17 1   
     9    5    8 1   
    10    6   24 1   
    11    7   40 1   
    12    7   41 1   
    13    8   12 1   
    14    8   42 1   
    15    9   24 1   
    16   10   22 1   
    17   10   43 1   
    18   10   55 1   
    19   11   21 1   
    20   13   37 1   
    21   15   18 1   
    22   15   22 1   
    23   16   20 1   
    24   16   21 1   
    25   16   44 1   
    26   18   45 1   
    27   19   23 1   
    28   20   33 1   
    29   20   37 1   
    30   21   26 1   
    31   22   46 1   
    32   22   56 1   
    33   23   25 1   
    34   25   26 1   
    35   27   29 1   
    36   27   48 1   
    37   28   30 1   
    38   28   34 1   
    39   30   32 1   
    40   31   33 1   
    41   31   50 1   
    42   32   35 1   
    43   33   51 1   
    44   34   36 1   
    45   35   36 1   
    46   35   53 1   
    47   36   54 1   
@<TRIPOS>SUBSTRUCTURE
     1 M37         1 TEMP              0 ****  ****    0 ROOT
