@<TRIPOS>MOLECULE
M37
   56    59     1     0     0
SMALL
bcc


@<TRIPOS>ATOM
      1 C1         -1.8580    3.3870    2.2360 ca        1 M37     -0.107000
      2 F1         -7.2990   -1.0360   -1.5560 f         1 M37     -0.226633
      3 N1         -3.6560    0.1010    0.2760 na        1 M37      0.185300
      4 S1          5.5140   -0.0420    1.5800 sy        1 M37      1.525200
      5 C2         -2.0430    2.1820    2.9120 ca        1 M37     -0.122000
      6 F2         -7.4070   -1.8970    0.4350 f         1 M37     -0.226633
      7 N2          4.4830    1.1730    1.6880 n3        1 M37     -1.024700
      8 C3         -2.6390    1.1010    2.2680 ca        1 M37     -0.102000
      9 F3         -6.5900   -3.0600   -1.2080 f         1 M37     -0.226633
     10 N3         -4.6750    2.9920   -1.4100 n3        1 M37     -0.903800
     11 O3         -1.0700   -2.4420    0.0830 o         1 M37     -0.556100
     12 C4         -3.0440    1.2260    0.9240 ca        1 M37     -0.020200
     13 F4          0.6040    1.8560   -1.8090 f         1 M37     -0.145900
     14 O4          6.6870    0.2850    2.2990 o         1 M37     -0.659800
     15 C5         -2.8670    2.4440    0.2350 ca        1 M37     -0.110300
     16 N5         -0.7100   -0.2130   -0.4500 n         1 M37     -0.462100
     17 O5          4.8900   -1.2550    1.9290 o         1 M37     -0.659800
     18 C6         -2.2690    3.5130    0.9120 ca        1 M37     -0.121000
     19 N6         -4.9770   -0.0320    0.1630 nc        1 M37     -0.424800
     20 C7          0.6860   -0.2340   -0.5900 ca        1 M37      0.049600
     21 C9         -3.2990    2.6450   -1.1960 c3        1 M37      0.201100
     22 C10        -5.2040   -1.2750   -0.3600 cd        1 M37      0.195600
     23 C11        -6.5900   -1.8000   -0.6630 c3        1 M37      0.634600
     24 C12        -3.9620   -1.9750   -0.5650 cd        1 M37     -0.166300
     25 C13        -2.9760   -1.0670   -0.1430 cc        1 M37     -0.172900
     26 C14         2.7270    0.8570   -1.4300 ca        1 M37     -0.124000
     27 C15         5.3930   -0.2120   -2.4560 ca        1 M37     -0.147000
     28 C16         3.5090   -0.1690   -0.8890 cp        1 M37     -0.100000
     29 C17         4.9590   -0.1590   -1.1230 cp        1 M37      0.079000
     30 C18         2.8840   -1.2170   -0.2040 ca        1 M37     -0.093000
     31 C21         5.8970   -0.0910   -0.0790 ca        1 M37     -0.356500
     32 C22         1.5020   -1.2520   -0.0560 ca        1 M37     -0.134000
     33 C23         6.7510   -0.2100   -2.7600 ca        1 M37     -0.071000
     34 C24         7.2610   -0.0830   -0.4100 ca        1 M37     -0.033000
     35 C26         7.6910   -0.1450   -1.7310 ca        1 M37     -0.149000
     36 C44         1.3340    0.8380   -1.2830 ca        1 M37      0.058900
     37 H1         -1.3910    4.2410    2.7510 ha        1 M37      0.145000
     38 H2         -1.7250    2.0800    3.9610 ha        1 M37      0.149000
     39 HN2         3.5470    1.1320    1.3700 hn        1 M37      0.450300
     40 HN2A        4.7250    2.0570    2.0620 hn        1 M37      0.450300
     41 H3         -2.7900    0.1560    2.8140 ha        1 M37      0.157000
     42 HN3        -5.2950    2.2400   -1.1870 hn        1 M37      0.361800
     43 HN5        -1.1550    0.6400   -0.7220 hn        1 M37      0.335500
     44 H6         -2.1240    4.4680    0.3820 ha        1 M37      0.147000
     45 H9         -3.0740    1.7130   -1.7910 h1        1 M37      0.061700
     46 H12        -3.8250   -2.9800   -0.9560 ha        1 M37      0.200000
     47 H14         3.1950    1.6860   -1.9820 ha        1 M37      0.157000
     48 H15         4.6470   -0.2620   -3.2640 ha        1 M37      0.145000
     49 H18         3.4930   -2.0270    0.2410 ha        1 M37      0.185000
     50 H22         1.0480   -2.1020    0.4840 ha        1 M37      0.185000
     51 H23         7.0800   -0.2600   -3.8090 ha        1 M37      0.140000
     52 H24         8.0100   -0.0210    0.4020 ha        1 M37      0.167000
     53 H26         8.7670   -0.1430   -1.9620 ha        1 M37      0.144000
     54 H181       -4.9340    3.8020   -0.8830 hn        1 M37      0.361800
     55 H19        -2.6700    3.4750   -1.6370 h1        1 M37      0.061700
     56 C8         -1.5140   -1.3050   -0.1510 c         1 M37      0.712700
@<TRIPOS>BOND
     1    1    5 ar  
     2    1   18 ar  
     3    1   37 1   
     4    2   23 1   
     5    3   12 1   
     6    3   19 1   
     7    3   25 1   
     8    4    7 1   
     9    4   14 2   
    10    4   17 2   
    11    4   31 1   
    12    5    8 ar  
    13    5   38 1   
    14    6   23 1   
    15    7   39 1   
    16    7   40 1   
    17    8   12 ar  
    18    8   41 1   
    19    9   23 1   
    20   10   21 1   
    21   10   42 1   
    22   10   54 1   
    23   11   56 2   
    24   12   15 ar  
    25   13   36 1   
    26   15   18 ar  
    27   15   21 1   
    28   16   20 1   
    29   16   43 1   
    30   16   56 1   
    31   18   44 1   
    32   19   22 2   
    33   20   32 ar  
    34   20   36 ar  
    35   21   45 1   
    36   21   55 1   
    37   22   23 1   
    38   22   24 1   
    39   24   25 2   
    40   24   46 1   
    41   25   56 1   
    42   26   28 ar  
    43   26   36 ar  
    44   26   47 1   
    45   27   29 ar  
    46   27   33 ar  
    47   27   48 1   
    48   28   29 1   
    49   28   30 ar  
    50   29   31 ar  
    51   30   32 ar  
    52   30   49 1   
    53   31   34 ar  
    54   32   50 1   
    55   33   35 ar  
    56   33   51 1   
    57   34   35 ar  
    58   34   52 1   
    59   35   53 1   
@<TRIPOS>SUBSTRUCTURE
     1 M37         1 TEMP              0 ****  ****    0 ROOT
