@<TRIPOS>MOLECULE
M38
   39    42     1     0     0
SMALL
bcc


@<TRIPOS>ATOM
      1 C1          3.4790    4.6720    5.6920 ca        1 M38     -0.154000
      2 C2          4.4040    5.5440    6.2350 ca        1 M38     -0.097000
      3 C3          5.3290    6.2100    5.4140 ca        1 M38     -0.183000
      4 C4          5.3200    5.9960    4.0460 ca        1 M38     -0.059000
      5 C5          4.3870    5.1110    3.4770 ca        1 M38     -0.187600
      6 C6          3.4550    4.4410    4.2980 ca        1 M38      0.082200
      7 C7          2.5360    3.5650    3.6640 cc        1 M38     -0.326400
      8 C8          2.5550    3.3720    2.2650 cd        1 M38      0.218400
      9 C9          4.3980    4.9020    2.0190 c         1 M38      0.703100
     10 N10         3.4570    3.9920    1.4490 n         1 M38     -0.306000
     11 C11         1.4690    2.7530    4.2750 c         1 M38      0.620900
     12 C12         0.8190    2.0430    3.1340 ca        1 M38     -0.166600
     13 C13         1.4700    2.4140    1.9120 ca        1 M38     -0.089800
     14 C14        -0.2380    1.1620    3.1450 ca        1 M38     -0.086000
     15 C15        -0.6760    0.6250    1.9180 ca        1 M38     -0.141000
     16 C16        -0.0530    0.9820    0.7350 ca        1 M38     -0.106000
     17 C17         1.0320    1.8860    0.7150 ca        1 M38     -0.074000
     18 O18         1.1590    2.6630    5.4650 o         1 M38     -0.553100
     19 O19         1.0060    2.9350   -3.4250 o         1 M38     -0.847300
     20 O20         2.4580    1.9350   -2.0640 o         1 M38     -0.847300
     21 O21         5.2070    5.4830    1.2690 o         1 M38     -0.630500
     22 C22         3.4870    3.7980    0.0020 c3        1 M38      0.044000
     23 C23         2.4760    4.6440   -0.7710 c3        1 M38     -0.068400
     24 C24         1.9640    2.9740   -2.6070 c         1 M38      0.901600
     25 C25         2.5660    4.3400   -2.2500 c3        1 M38     -0.198400
     26 H1          2.7490    4.1440    6.3260 ha        1 M38      0.160000
     27 H2          4.4200    5.7210    7.3210 ha        1 M38      0.122000
     28 H3          6.0570    6.9000    5.8610 ha        1 M38      0.124000
     29 H4          6.0360    6.5090    3.3830 ha        1 M38      0.149000
     30 H14        -0.7290    0.8850    4.0880 ha        1 M38      0.139000
     31 H15        -1.5190   -0.0810    1.9120 ha        1 M38      0.126000
     32 H16        -0.3920    0.5640   -0.2280 ha        1 M38      0.157000
     33 H17         1.4880    2.1260   -0.2730 ha        1 M38      0.232000
     34 H221        3.3250    2.7030   -0.2360 h1        1 M38      0.104700
     35 H222        4.5240    4.0660   -0.3540 h1        1 M38      0.104700
     36 H231        1.4360    4.4320   -0.4080 hc        1 M38      0.031700
     37 H232        2.6830    5.7320   -0.5930 hc        1 M38      0.031700
     38 H251        3.6350    4.3510   -2.5810 hc        1 M38      0.036200
     39 H252        2.0170    5.1340   -2.8170 hc        1 M38      0.036200
@<TRIPOS>BOND
     1    1    2 ar  
     2    1    6 ar  
     3    1   26 1   
     4    2    3 ar  
     5    2   27 1   
     6    3    4 ar  
     7    3   28 1   
     8    4    5 ar  
     9    4   29 1   
    10    5    6 ar  
    11    5    9 1   
    12    6    7 1   
    13    7    8 2   
    14    7   11 1   
    15    8   10 1   
    16    8   13 1   
    17    9   10 1   
    18    9   21 2   
    19   10   22 1   
    20   11   12 1   
    21   11   18 2   
    22   12   13 ar  
    23   12   14 ar  
    24   13   17 ar  
    25   14   15 ar  
    26   14   30 1   
    27   15   16 ar  
    28   15   31 1   
    29   16   17 ar  
    30   16   32 1   
    31   17   33 1   
    32   19   24 1   
    33   20   24 1   
    34   22   23 1   
    35   22   34 1   
    36   22   35 1   
    37   23   25 1   
    38   23   36 1   
    39   23   37 1   
    40   24   25 1   
    41   25   38 1   
    42   25   39 1   
@<TRIPOS>SUBSTRUCTURE
     1 M38         1 TEMP              0 ****  ****    0 ROOT
