@<TRIPOS>MOLECULE
M38
   39    42     1     0     0
SMALL
bcc


@<TRIPOS>ATOM
      1 C1         -0.0150    0.1600   -0.0340 ca        1 M38     -0.154000
      2 C2          1.3600    0.2980   -0.0350 ca        1 M38     -0.097000
      3 C3          2.0760    0.3520    1.1740 ca        1 M38     -0.183000
      4 C4          1.4030    0.2670    2.3810 ca        1 M38     -0.059000
      5 C5          0.0030    0.1280    2.4000 ca        1 M38     -0.187600
      6 C6         -0.7180    0.0730    1.1880 ca        1 M38      0.082200
      7 C7         -2.1280   -0.0730    1.2740 cc        1 M38     -0.326400
      8 C8         -2.7810   -0.1590    2.5240 cd        1 M38      0.218400
      9 C9         -0.6880    0.0400    3.6970 c         1 M38      0.703100
     10 N10        -2.1100   -0.0870    3.7100 n         1 M38     -0.306000
     11 C11        -3.1100   -0.1620    0.1790 c         1 M38      0.620900
     12 C12        -4.4330   -0.3160    0.8550 ca        1 M38     -0.166600
     13 C13        -4.2410   -0.3170    2.2770 ca        1 M38     -0.089800
     14 C14        -5.6840   -0.4480    0.3000 ca        1 M38     -0.086000
     15 C15        -6.7900   -0.5880    1.1630 ca        1 M38     -0.141000
     16 C16        -6.6110   -0.5920    2.5360 ca        1 M38     -0.106000
     17 C17        -5.3290   -0.4580    3.1130 ca        1 M38     -0.074000
     18 O18        -2.9110   -0.1200   -1.0370 o         1 M38     -0.553100
     19 O19        -6.1720   -1.8870    7.0490 o         1 M38     -0.847300
     20 O20        -5.4860    0.0510    6.1920 o         1 M38     -0.847300
     21 O21        -0.0750    0.0830    4.7820 o         1 M38     -0.630500
     22 C22        -2.7750   -0.1720    5.0070 c3        1 M38      0.044000
     23 C23        -3.0810   -1.5960    5.4700 c3        1 M38     -0.068400
     24 C24        -5.2580   -1.1040    6.6720 c         1 M38      0.901600
     25 C25        -3.7990   -1.5670    6.8010 c3        1 M38     -0.198400
     26 H1         -0.5870    0.1160   -0.9750 ha        1 M38      0.160000
     27 H2          1.9050    0.3660   -0.9880 ha        1 M38      0.122000
     28 H3          3.1690    0.4610    1.1560 ha        1 M38      0.124000
     29 H4          1.9440    0.3060    3.3400 ha        1 M38      0.149000
     30 H14        -5.8180   -0.4460   -0.7910 ha        1 M38      0.139000
     31 H15        -7.7960   -0.6940    0.7330 ha        1 M38      0.126000
     32 H16        -7.4720   -0.7010    3.2150 ha        1 M38      0.157000
     33 H17        -5.2590   -0.4670    4.2250 ha        1 M38      0.232000
     34 H221       -3.7320    0.4320    4.9810 h1        1 M38      0.104700
     35 H222       -2.0960    0.3130    5.7680 h1        1 M38      0.104700
     36 H231       -2.1240   -2.1730    5.5660 hc        1 M38      0.031700
     37 H232       -3.7200   -2.1200    4.7120 hc        1 M38      0.031700
     38 H251       -3.2730   -0.8780    7.5080 hc        1 M38      0.036200
     39 H252       -3.7870   -2.5960    7.2420 hc        1 M38      0.036200
@<TRIPOS>BOND
     1    1    2 ar  
     2    1    6 ar  
     3    1   26 1   
     4    2    3 ar  
     5    2   27 1   
     6    3    4 ar  
     7    3   28 1   
     8    4    5 ar  
     9    4   29 1   
    10    5    6 ar  
    11    5    9 1   
    12    6    7 1   
    13    7    8 2   
    14    7   11 1   
    15    8   10 1   
    16    8   13 1   
    17    9   10 1   
    18    9   21 2   
    19   10   22 1   
    20   11   12 1   
    21   11   18 2   
    22   12   13 ar  
    23   12   14 ar  
    24   13   17 ar  
    25   14   15 ar  
    26   14   30 1   
    27   15   16 ar  
    28   15   31 1   
    29   16   17 ar  
    30   16   32 1   
    31   17   33 1   
    32   19   24 1   
    33   20   24 1   
    34   22   23 1   
    35   22   34 1   
    36   22   35 1   
    37   23   25 1   
    38   23   36 1   
    39   23   37 1   
    40   24   25 1   
    41   25   38 1   
    42   25   39 1   
@<TRIPOS>SUBSTRUCTURE
     1 M38         1 TEMP              0 ****  ****    0 ROOT
