@<TRIPOS>MOLECULE
M38
   39    42     1     0     0
SMALL
bcc


@<TRIPOS>ATOM
      1 C1         -0.0230    0.1620   -0.0410 ca        1 M38     -0.154000
      2 C2          1.3530    0.3000   -0.0440 ca        1 M38     -0.097000
      3 C3          2.0710    0.3540    1.1620 ca        1 M38     -0.183000
      4 C4          1.4010    0.2690    2.3700 ca        1 M38     -0.059000
      5 C5          0.0020    0.1300    2.3930 ca        1 M38     -0.187600
      6 C6         -0.7230    0.0730    1.1830 ca        1 M38      0.082200
      7 C7         -2.1320   -0.0730    1.2720 cc        1 M38     -0.326400
      8 C8         -2.7820   -0.1590    2.5230 cd        1 M38      0.218400
      9 C9         -0.6870    0.0410    3.6920 c         1 M38      0.703100
     10 N10        -2.1080   -0.0870    3.7080 n         1 M38     -0.306000
     11 C11        -3.1170   -0.1620    0.1800 c         1 M38      0.620900
     12 C12        -4.4380   -0.3180    0.8590 ca        1 M38     -0.166600
     13 C13        -4.2430   -0.3190    2.2800 ca        1 M38     -0.089800
     14 C14        -5.6910   -0.4510    0.3070 ca        1 M38     -0.086000
     15 C15        -6.7940   -0.5910    1.1730 ca        1 M38     -0.141000
     16 C16        -6.6120   -0.5950    2.5450 ca        1 M38     -0.106000
     17 C17        -5.3290   -0.4600    3.1190 ca        1 M38     -0.074000
     18 O18        -2.9210   -0.1210   -1.0370 o         1 M38     -0.553100
     19 O19        -6.1610   -1.8880    7.0580 o         1 M38     -0.847300
     20 O20        -5.4780    0.0500    6.1980 o         1 M38     -0.847300
     21 O21        -0.0710    0.0850    4.7760 o         1 M38     -0.630500
     22 C22        -2.7700   -0.1710    5.0070 c3        1 M38      0.044000
     23 C23        -3.0740   -1.5950    5.4710 c3        1 M38     -0.068400
     24 C24        -5.2480   -1.1050    6.6790 c         1 M38      0.901600
     25 C25        -3.7890   -1.5670    6.8030 c3        1 M38     -0.198400
     26 H1         -0.5970    0.1170   -0.9800 ha        1 M38      0.160000
     27 H2          1.8950    0.3680   -0.9990 ha        1 M38      0.122000
     28 H3          3.1640    0.4640    1.1410 ha        1 M38      0.124000
     29 H4          1.9440    0.3090    3.3290 ha        1 M38      0.149000
     30 H14        -5.8270   -0.4490   -0.7840 ha        1 M38      0.139000
     31 H15        -7.8010   -0.6980    0.7450 ha        1 M38      0.126000
     32 H16        -7.4710   -0.7050    3.2260 ha        1 M38      0.157000
     33 H17        -5.2560   -0.4680    4.2310 ha        1 M38      0.232000
     34 H221       -3.7280    0.4320    4.9830 h1        1 M38      0.104700
     35 H222       -2.0900    0.3150    5.7660 h1        1 M38      0.104700
     36 H231       -2.1160   -2.1720    5.5660 hc        1 M38      0.031700
     37 H232       -3.7140   -2.1200    4.7150 hc        1 M38      0.031700
     38 H251       -3.2620   -0.8770    7.5100 hc        1 M38      0.036200
     39 H252       -3.7750   -2.5960    7.2450 hc        1 M38      0.036200
@<TRIPOS>BOND
     1    1    2 ar  
     2    1    6 ar  
     3    1   26 1   
     4    2    3 ar  
     5    2   27 1   
     6    3    4 ar  
     7    3   28 1   
     8    4    5 ar  
     9    4   29 1   
    10    5    6 ar  
    11    5    9 1   
    12    6    7 1   
    13    7    8 2   
    14    7   11 1   
    15    8   10 1   
    16    8   13 1   
    17    9   10 1   
    18    9   21 2   
    19   10   22 1   
    20   11   12 1   
    21   11   18 2   
    22   12   13 ar  
    23   12   14 ar  
    24   13   17 ar  
    25   14   15 ar  
    26   14   30 1   
    27   15   16 ar  
    28   15   31 1   
    29   16   17 ar  
    30   16   32 1   
    31   17   33 1   
    32   19   24 1   
    33   20   24 1   
    34   22   23 1   
    35   22   34 1   
    36   22   35 1   
    37   23   25 1   
    38   23   36 1   
    39   23   37 1   
    40   24   25 1   
    41   25   38 1   
    42   25   39 1   
@<TRIPOS>SUBSTRUCTURE
     1 M38         1 TEMP              0 ****  ****    0 ROOT
