@<TRIPOS>MOLECULE
M3C
   29    29     1     0     0
SMALL
bcc


@<TRIPOS>ATOM
      1 N1         -0.2270    0.2930   -0.2090 nz        1 M3C     -0.831600
      2 C2          1.2240   -0.0300   -0.0210 c3        1 M3C      0.111500
      3 C10         1.6020   -0.0510    1.4610 c3        1 M3C     -0.102400
      4 C11         1.4180    1.2880    2.1270 c3        1 M3C     -0.055300
      5 S12         2.4020    1.2420    3.5920 ss        1 M3C     -0.232200
      6 C13         2.0700    2.7900    4.3350 c3        1 M3C     -0.054000
      7 C3          1.5570   -1.4210   -0.6770 c3        1 M3C      0.343300
      8 O4          2.8060   -1.8810   -0.2300 oh        1 M3C     -0.606800
      9 O15         0.6570   -2.3580   -0.1330 oh        1 M3C     -0.606800
     10 C5          1.4570   -1.3740   -2.1820 cc        1 M3C      0.206700
     11 N6          0.7180   -0.4380   -2.8170 nd        1 M3C     -0.696000
     12 C7          0.7670   -0.6500   -4.1700 cd        1 M3C      0.352200
     13 C8          1.5400   -1.7510   -4.5520 cc        1 M3C     -0.255400
     14 S9          2.1820   -2.5000   -3.2290 ss        1 M3C      0.136700
     15 HN11       -0.4770    1.0980    0.3700 hn        1 M3C      0.469800
     16 HN12       -0.7870   -0.5210    0.0730 hn        1 M3C      0.469800
     17 H2          1.8200    0.7670   -0.5570 hx        1 M3C      0.116700
     18 H101        2.6870   -0.3580    1.5200 hc        1 M3C      0.107700
     19 H102        1.0160   -0.8480    1.9940 hc        1 M3C      0.107700
     20 H111        1.7540    2.1220    1.4620 h1        1 M3C      0.056700
     21 H112        0.3480    1.4750    2.3910 h1        1 M3C      0.056700
     22 H131        2.6780    2.8070    5.2730 h1        1 M3C      0.077700
     23 H132        0.9960    2.9090    4.6030 h1        1 M3C      0.077700
     24 H133        2.3780    3.6440    3.6930 h1        1 M3C      0.077700
     25 HO4         3.5120   -1.3920   -0.6730 ho        1 M3C      0.461500
     26 H15         1.1370   -3.1730    0.0870 ho        1 M3C      0.461500
     27 H7          0.2240    0.0240   -4.8460 h4        1 M3C      0.067100
     28 H8          1.6940   -2.0670   -5.5870 h4        1 M3C      0.212000
     29 H13        -0.4150    0.5010   -1.2010 hn        1 M3C      0.469800
@<TRIPOS>BOND
     1    1    2 1   
     2    1   15 1   
     3    1   16 1   
     4    1   29 1   
     5    2    3 1   
     6    2    7 1   
     7    2   17 1   
     8    3    4 1   
     9    3   18 1   
    10    3   19 1   
    11    4    5 1   
    12    4   20 1   
    13    4   21 1   
    14    5    6 1   
    15    6   22 1   
    16    6   23 1   
    17    6   24 1   
    18    7    8 1   
    19    7    9 1   
    20    7   10 1   
    21    8   25 1   
    22    9   26 1   
    23   10   11 2   
    24   10   14 1   
    25   11   12 1   
    26   12   13 2   
    27   12   27 1   
    28   13   14 1   
    29   13   28 1   
@<TRIPOS>SUBSTRUCTURE
     1 M3C         1 TEMP              0 ****  ****    0 ROOT
