@<TRIPOS>MOLECULE
M3C
   29    29     1     0     0
SMALL
bcc


@<TRIPOS>ATOM
      1 N1         -0.2410    0.2540   -0.1610 n4        1 M3C     -0.831600
      2 C2          1.2230   -0.0330   -0.0170 c3        1 M3C      0.111500
      3 C10         1.6490   -0.0230    1.4530 c3        1 M3C     -0.102400
      4 C11         1.4570    1.3220    2.1050 c3        1 M3C     -0.055300
      5 S12         2.4890    1.3200    3.5370 ss        1 M3C     -0.232200
      6 C13         2.1450    2.8700    4.2680 c3        1 M3C     -0.054000
      7 C3          1.5650   -1.4270   -0.6630 c3        1 M3C      0.343300
      8 O4          2.8380   -1.8520   -0.2510 oh        1 M3C     -0.606800
      9 O15         0.7050   -2.3750   -0.0760 oh        1 M3C     -0.606800
     10 C5          1.4150   -1.4050   -2.1640 cc        1 M3C      0.206700
     11 N6          0.6340   -0.4960   -2.7880 nd        1 M3C     -0.696000
     12 C7          0.6430   -0.7280   -4.1390 cd        1 M3C      0.352200
     13 C8          1.4290   -1.8170   -4.5300 cc        1 M3C     -0.255400
     14 S9          2.1310   -2.5310   -3.2180 ss        1 M3C      0.136700
     15 HN11       -0.4900    1.0620    0.4140 hn        1 M3C      0.469800
     16 HN12       -0.7730   -0.5680    0.1520 hn        1 M3C      0.469800
     17 H2          1.7820    0.7680   -0.5840 hx        1 M3C      0.116700
     18 H101        1.0990   -0.8250    2.0170 hc        1 M3C      0.107700
     19 H102        2.7420   -0.3050    1.4800 hc        1 M3C      0.107700
     20 H111        1.7520    2.1520    1.4160 h1        1 M3C      0.056700
     21 H112        0.3920    1.4890    2.4010 h1        1 M3C      0.056700
     22 H131        2.7820    2.9150    5.1850 h1        1 M3C      0.077700
     23 H132        1.0780    2.9710    4.5680 h1        1 M3C      0.077700
     24 H133        2.4140    3.7210    3.6040 h1        1 M3C      0.077700
     25 HO4         3.5190   -1.3530   -0.7240 ho        1 M3C      0.461500
     26 H15         1.2120   -3.1760    0.1410 ho        1 M3C      0.461500
     27 H7          0.0630   -0.0770   -4.8060 h4        1 M3C      0.067100
     28 H8          1.5560   -2.1450   -5.5640 h4        1 M3C      0.212000
     29 H13        -0.4660    0.4420   -1.1490 hn        1 M3C      0.469800
@<TRIPOS>BOND
     1    1    2 1   
     2    1   15 1   
     3    1   16 1   
     4    1   29 1   
     5    2    3 1   
     6    2    7 1   
     7    2   17 1   
     8    3    4 1   
     9    3   18 1   
    10    3   19 1   
    11    4    5 1   
    12    4   20 1   
    13    4   21 1   
    14    5    6 1   
    15    6   22 1   
    16    6   23 1   
    17    6   24 1   
    18    7    8 1   
    19    7    9 1   
    20    7   10 1   
    21    8   25 1   
    22    9   26 1   
    23   10   11 2   
    24   10   14 1   
    25   11   12 1   
    26   12   13 2   
    27   12   27 1   
    28   13   14 1   
    29   13   28 1   
@<TRIPOS>SUBSTRUCTURE
     1 M3C         1 TEMP              0 ****  ****    0 ROOT
