@<TRIPOS>MOLECULE
M3C
   29    29     1     0     0
SMALL
bcc


@<TRIPOS>ATOM
      1 N1         -0.2550    0.1570   -0.1550 n4        1 M3C     -0.831600
      2 C2          1.2240   -0.0410   -0.0150 c3        1 M3C      0.111500
      3 C10         1.6480   -0.0480    1.4550 c3        1 M3C     -0.102400
      4 C11         1.3690    1.2610    2.1470 c3        1 M3C     -0.055300
      5 S12         2.3970    1.2810    3.5820 ss        1 M3C     -0.232200
      6 C13         1.9570    2.7850    4.3570 c3        1 M3C     -0.054000
      7 C3          1.6560   -1.3890   -0.7030 c3        1 M3C      0.343300
      8 O4          2.9530   -1.7440   -0.2990 oh        1 M3C     -0.606800
      9 O15         0.8580   -2.4080   -0.1470 oh        1 M3C     -0.606800
     10 C5          1.5060   -1.3310   -2.2020 cc        1 M3C      0.206700
     11 N6          0.6690   -0.4560   -2.8010 nd        1 M3C     -0.696000
     12 C7          0.6950   -0.6450   -4.1580 cd        1 M3C      0.352200
     13 C8          1.5500   -1.6690   -4.5800 cc        1 M3C     -0.255400
     14 S9          2.2940   -2.3760   -3.2880 ss        1 M3C      0.136700
     15 HN11       -0.7330   -0.7070    0.1310 hn        1 M3C      0.469800
     16 HN12       -0.4900    0.3600   -1.1380 hn        1 M3C      0.469800
     17 H2          1.7320    0.8120   -0.5560 hx        1 M3C      0.116700
     18 H101        1.1490   -0.9000    1.9930 hc        1 M3C      0.107700
     19 H102        2.7560   -0.2610    1.4770 hc        1 M3C      0.107700
     20 H111        1.6130    2.1300    1.4850 h1        1 M3C      0.056700
     21 H112        0.2960    1.3520    2.4440 h1        1 M3C      0.056700
     22 H131        2.5890    2.8420    5.2770 h1        1 M3C      0.077700
     23 H132        2.1740    3.6700    3.7190 h1        1 M3C      0.077700
     24 H133        0.8850    2.8110    4.6560 h1        1 M3C      0.077700
     25 HO4         3.6010   -1.1890   -0.7550 ho        1 M3C      0.461500
     26 H15         1.4140   -3.1810    0.0460 ho        1 M3C      0.461500
     27 H7          0.0750   -0.0120   -4.8070 h4        1 M3C      0.067100
     28 H8          1.6980   -1.9560   -5.6230 h4        1 M3C      0.212000
     29 H13        -0.5550    0.9290    0.4440 hn        1 M3C      0.469800
@<TRIPOS>BOND
     1    1    2 1   
     2    1   15 1   
     3    1   16 1   
     4    1   29 1   
     5    2    3 1   
     6    2    7 1   
     7    2   17 1   
     8    3    4 1   
     9    3   18 1   
    10    3   19 1   
    11    4    5 1   
    12    4   20 1   
    13    4   21 1   
    14    5    6 1   
    15    6   22 1   
    16    6   23 1   
    17    6   24 1   
    18    7    8 1   
    19    7    9 1   
    20    7   10 1   
    21    8   25 1   
    22    9   26 1   
    23   10   11 2   
    24   10   14 1   
    25   11   12 1   
    26   12   13 2   
    27   12   27 1   
    28   13   14 1   
    29   13   28 1   
@<TRIPOS>SUBSTRUCTURE
     1 M3C         1 TEMP              0 ****  ****    0 ROOT
