@<TRIPOS>MOLECULE
M3C
   28    28     1     0     0
SMALL
bcc


@<TRIPOS>ATOM
      1 N1          1.2290    1.1910    0.0960 n3        1 M3C     -0.905800
      2 C2          0.4130    0.0360    0.4050 c3        1 M3C      0.149500
      3 C10        -0.3290    0.1780    1.7430 c3        1 M3C     -0.079400
      4 C11         0.6200    0.1750    2.9130 c3        1 M3C     -0.014300
      5 S12        -0.3410   -0.1630    4.3610 ss        1 M3C     -0.289200
      6 C13         0.8250    0.0790    5.6440 c3        1 M3C     -0.044000
      7 C3         -0.6480   -0.2310   -0.7180 c3        1 M3C      0.342300
      8 O4         -1.3310   -1.4400   -0.4440 oh        1 M3C     -0.609300
      9 O15        -1.6980    0.7080   -0.7120 oh        1 M3C     -0.609300
     10 C5         -0.0110   -0.2330   -2.0870 cc        1 M3C      0.313700
     11 N6          0.9660   -1.1010   -2.4070 nd        1 M3C     -0.657000
     12 C7          1.3540   -0.8850   -3.7110 cd        1 M3C      0.328200
     13 C8          0.6700    0.1420   -4.3600 cc        1 M3C     -0.295400
     14 S9         -0.4500    0.8290   -3.3480 ss        1 M3C      0.072700
     15 HN11        1.8120    1.4210    0.8770 hn        1 M3C      0.357300
     16 HN12        1.7990    1.0160   -0.7070 hn        1 M3C      0.357300
     17 H2          1.0320   -0.9150    0.4590 h1        1 M3C      0.028700
     18 H101       -1.0430   -0.6870    1.8260 hc        1 M3C      0.073700
     19 H102       -0.9340    1.1240    1.7410 hc        1 M3C      0.073700
     20 H111        1.1350    1.1610    3.0160 h1        1 M3C      0.058200
     21 H112        1.4080   -0.6080    2.7870 h1        1 M3C      0.058200
     22 H131        0.2810   -0.1080    6.5990 h1        1 M3C      0.062700
     23 H132        1.6800   -0.6300    5.5700 h1        1 M3C      0.062700
     24 H133        1.2260    1.1170    5.6530 h1        1 M3C      0.062700
     25 HO4        -0.7420   -2.1810   -0.6250 ho        1 M3C      0.437500
     26 H15        -2.3290    0.4310   -0.0310 ho        1 M3C      0.437500
     27 H7          2.1440   -1.5110   -4.1400 h4        1 M3C      0.044100
     28 H8          0.8470    0.4500   -5.3890 h4        1 M3C      0.183000
@<TRIPOS>BOND
     1    1    2 1   
     2    1   15 1   
     3    1   16 1   
     4    2    3 1   
     5    2    7 1   
     6    2   17 1   
     7    3    4 1   
     8    3   18 1   
     9    3   19 1   
    10    4    5 1   
    11    4   20 1   
    12    4   21 1   
    13    5    6 1   
    14    6   22 1   
    15    6   23 1   
    16    6   24 1   
    17    7    8 1   
    18    7    9 1   
    19    7   10 1   
    20    8   25 1   
    21    9   26 1   
    22   10   11 2   
    23   10   14 1   
    24   11   12 1   
    25   12   13 2   
    26   12   27 1   
    27   13   14 1   
    28   13   28 1   
@<TRIPOS>SUBSTRUCTURE
     1 M3C         1 TEMP              0 ****  ****    0 ROOT
