@<TRIPOS>MOLECULE
M3C
   28    26     1     0     0
SMALL
bcc


@<TRIPOS>ATOM
      1 N1         -1.9040    0.3180    0.0010 n3        1 M3C     -0.898800
      2 C2         -0.5110    0.0330    0.0490 c3        1 M3C      0.200500
      3 C10        -0.0630   -0.0480    1.4900 c3        1 M3C     -0.063400
      4 C11         0.5300    1.2800    1.9090 c3        1 M3C     -0.003300
      5 S12         0.7320    1.3080    3.6700 ss        1 M3C     -0.301200
      6 C13         1.7980    2.6510    4.1210 c3        1 M3C     -0.041000
      7 C3         -0.2440   -1.2880   -0.6360 c3        1 M3C      0.301300
      8 O4          1.0570   -1.7230   -0.3240 oh        1 M3C     -0.605800
      9 O15        -1.1770   -2.2430   -0.1930 oh        1 M3C     -0.605800
     10 C5         -0.3720   -1.1140   -2.1330 c2        1 M3C      0.199200
     11 N6         -1.2640   -1.8310   -2.9880 ne        1 M3C     -0.454700
     12 C7         -0.9980   -1.3840   -4.4690 cg        1 M3C     -0.079000
     13 C8          0.0570   -0.4000   -4.4630 c1        1 M3C     -0.243900
     14 S9          0.4920   -0.1900   -3.0170 ss        1 M3C      0.127700
     15 HN11       -2.3660   -0.3340    0.4490 hn        1 M3C      0.358800
     16 HN12       -2.1810    0.3440   -0.8720 hn        1 M3C      0.358800
     17 H2         -0.0170    0.7420   -0.4070 h1        1 M3C      0.065700
     18 H101        0.6110   -0.7500    1.5830 hc        1 M3C      0.077700
     19 H102       -0.8310   -0.2560    2.0600 hc        1 M3C      0.077700
     20 H111       -0.0690    2.0040    1.6370 h1        1 M3C      0.063700
     21 H112        1.4000    1.3980    1.4790 h1        1 M3C      0.063700
     22 H131        2.7060    2.4690    3.8010 h1        1 M3C      0.061367
     23 H132        1.4690    3.4800    3.7150 h1        1 M3C      0.061367
     24 H133        1.8080    2.7470    5.0970 h1        1 M3C      0.061367
     25 HO4         1.2210   -2.4900   -0.7420 ho        1 M3C      0.422500
     26 H15        -0.8450   -3.0600   -0.3130 ho        1 M3C      0.422500
     27 H7         -1.4670   -1.7150   -5.2590 DU        1 M3C      0.186000
     28 H8          0.4280    0.0500   -5.2460 DU        1 M3C      0.186000
@<TRIPOS>BOND
     1    1    2 1   
     2    1   15 1   
     3    1   16 1   
     4    2    3 1   
     5    2    7 1   
     6    2   17 1   
     7    3    4 1   
     8    3   18 1   
     9    3   19 1   
    10    4    5 1   
    11    4   20 1   
    12    4   21 1   
    13    5    6 1   
    14    6   22 1   
    15    6   23 1   
    16    6   24 1   
    17    7    8 1   
    18    7    9 1   
    19    7   10 1   
    20    8   25 1   
    21    9   26 1   
    22   10   11 2   
    23   10   14 1   
    24   11   12 1   
    25   12   13 3   
    26   13   14 1   
@<TRIPOS>SUBSTRUCTURE
     1 M3C         1 TEMP              0 ****  ****    0 ROOT
