@<TRIPOS>MOLECULE
M3F
   29    31     1     0     0
SMALL
bcc


@<TRIPOS>ATOM
      1 CAA        -0.1640    2.9920    0.4060 c3        1 M3F     -0.070800
      2 OAB        -2.7100   -2.9650    0.6060 o         1 M3F     -0.612500
      3 FAC         4.2480   -0.8710    0.7620 f         1 M3F     -0.226633
      4 FAD         4.4260    1.0440   -0.2390 f         1 M3F     -0.226633
      5 FAE         4.0540   -0.7470   -1.4030 f         1 M3F     -0.226633
      6 CAF        -4.8450    0.6130   -0.1410 ca        1 M3F     -0.137000
      7 CAG        -4.1090    1.7520   -0.4700 ca        1 M3F     -0.098000
      8 CAH        -4.1760   -0.5700    0.1540 ca        1 M3F     -0.066000
      9 CAI        -2.7170    1.7280   -0.4540 ca        1 M3F     -0.138000
     10 CAJ         1.6790    1.4090    0.0550 ca        1 M3F     -0.254300
     11 NAK         1.4030   -0.9920   -0.0850 nb        1 M3F     -0.683000
     12 NAL        -0.7320   -1.9580    0.1380 n         1 M3F     -0.529400
     13 CAM         0.2920    1.6070    0.1370 ca        1 M3F      0.013700
     14 CAN         2.1730    0.1070   -0.0930 ca        1 M3F      0.382600
     15 CAO        -2.1130   -1.9070    0.3370 c         1 M3F      0.715100
     16 CAP        -2.7760   -0.6010    0.1570 ca        1 M3F     -0.144600
     17 CAQ         0.0480   -0.8080    0.0120 ca        1 M3F      0.559200
     18 CAR        -2.0180    0.5670   -0.0820 ca        1 M3F      0.020000
     19 CAS        -0.5690    0.5000    0.0180 ca        1 M3F     -0.170300
     20 CAT         3.6950   -0.1180   -0.2400 c3        1 M3F      0.598600
     21 HAA        -0.3530    3.5380   -0.5530 hc        1 M3F      0.060367
     22 HAAA       -1.0950    2.9970    1.0260 hc        1 M3F      0.060367
     23 HAAB        0.6250    3.5570    0.9660 hc        1 M3F      0.060367
     24 HAF        -5.9450    0.6440   -0.1350 ha        1 M3F      0.145000
     25 HAG        -4.6320    2.6790   -0.7540 ha        1 M3F      0.140000
     26 HAH        -4.7310   -1.4980    0.3730 ha        1 M3F      0.165000
     27 HAI        -2.1780    2.6280   -0.7810 ha        1 M3F      0.143000
     28 HAJ         2.3710    2.2630    0.1140 ha        1 M3F      0.167000
     29 HNAL       -0.2840   -2.8520    0.1670 hn        1 M3F      0.353500
@<TRIPOS>BOND
     1    1   13 1   
     2    1   21 1   
     3    1   22 1   
     4    1   23 1   
     5    2   15 2   
     6    3   20 1   
     7    4   20 1   
     8    5   20 1   
     9    6    7 ar  
    10    6    8 ar  
    11    6   24 1   
    12    7    9 ar  
    13    7   25 1   
    14    8   16 ar  
    15    8   26 1   
    16    9   18 ar  
    17    9   27 1   
    18   10   13 ar  
    19   10   14 ar  
    20   10   28 1   
    21   11   14 ar  
    22   11   17 ar  
    23   12   15 1   
    24   12   17 1   
    25   12   29 1   
    26   13   19 ar  
    27   14   20 1   
    28   15   16 1   
    29   16   18 ar  
    30   17   19 ar  
    31   18   19 1   
@<TRIPOS>SUBSTRUCTURE
     1 M3F         1 TEMP              0 ****  ****    0 ROOT
