@<TRIPOS>MOLECULE
M3F
   29    31     1     0     0
SMALL
bcc


@<TRIPOS>ATOM
      1 CAA         0.1100   -0.4790   -0.0640 c3        1 M3F     -0.070800
      2 OAB         5.1390   -0.4170   -4.1520 o         1 M3F     -0.612500
      3 FAC        -1.9880   -0.6930   -5.5480 f         1 M3F     -0.226633
      4 FAD        -3.0610    0.2260   -3.9020 f         1 M3F     -0.226633
      5 FAE        -1.9260    1.4660   -5.2720 f         1 M3F     -0.226633
      6 CAF         5.3460    0.1890    0.0330 ca        1 M3F     -0.137000
      7 CAG         4.1570    0.4670    0.7090 ca        1 M3F     -0.098000
      8 CAH         5.3110   -0.0590   -1.3350 ca        1 M3F     -0.066000
      9 CAI         2.9370    0.4450    0.0380 ca        1 M3F     -0.138000
     10 CAJ        -0.7930   -0.0700   -2.3100 ca        1 M3F     -0.254300
     11 NAK         0.5660    0.1710   -4.3000 nb        1 M3F     -0.683000
     12 NAL         2.9090   -0.0020   -4.1670 ns        1 M3F     -0.529400
     13 CAM         0.3440   -0.1540   -1.4920 ca        1 M3F      0.013700
     14 CAN        -0.6270    0.1300   -3.6860 ca        1 M3F      0.382600
     15 CAO         4.1120   -0.1960   -3.4850 c         1 M3F      0.715100
     16 CAP         4.0870   -0.0680   -2.0150 ca        1 M3F     -0.144600
     17 CAQ         1.6800    0.0730   -3.5090 ca        1 M3F      0.559200
     18 CAR         2.8680    0.1180   -1.3270 ca        1 M3F      0.020000
     19 CAS         1.6180    0.0150   -2.0650 ca        1 M3F     -0.170300
     20 CAT        -1.8730    0.2790   -4.5890 c3        1 M3F      0.598600
     21 HAA        -0.8380   -1.0660    0.0480 hc        1 M3F      0.060367
     22 HAAA        0.0010    0.4570    0.5400 hc        1 M3F      0.060367
     23 HAAB        0.9460   -1.0940    0.3530 hc        1 M3F      0.060367
     24 HAF         6.3040    0.1860    0.5720 ha        1 M3F      0.145000
     25 HAG         4.1810    0.7140    1.7810 ha        1 M3F      0.140000
     26 HAH         6.2390   -0.2370   -1.9050 ha        1 M3F      0.165000
     27 HAI         2.0330    0.7310    0.5940 ha        1 M3F      0.143000
     28 HAJ        -1.8010   -0.1680   -1.8790 ha        1 M3F      0.167000
     29 HNAL        2.9290    0.0050   -5.1670 hn        1 M3F      0.353500
@<TRIPOS>BOND
     1    1   13 1   
     2    1   21 1   
     3    1   22 1   
     4    1   23 1   
     5    2   15 2   
     6    3   20 1   
     7    4   20 1   
     8    5   20 1   
     9    6    7 ar  
    10    6    8 ar  
    11    6   24 1   
    12    7    9 ar  
    13    7   25 1   
    14    8   16 ar  
    15    8   26 1   
    16    9   18 ar  
    17    9   27 1   
    18   10   13 ar  
    19   10   14 ar  
    20   10   28 1   
    21   11   14 ar  
    22   11   17 ar  
    23   12   15 1   
    24   12   17 1   
    25   12   29 1   
    26   13   19 ar  
    27   14   20 1   
    28   15   16 1   
    29   16   18 ar  
    30   17   19 ar  
    31   18   19 1   
@<TRIPOS>SUBSTRUCTURE
     1 M3F         1 TEMP              0 ****  ****    0 ROOT
