@<TRIPOS>MOLECULE
M3F
   29    31     1     0     0
SMALL
bcc


@<TRIPOS>ATOM
      1 CAA         0.1090   -0.4620   -0.0600 c3        1 M3F     -0.070800
      2 OAB         5.1350   -0.4420   -4.1520 o         1 M3F     -0.612500
      3 FAC        -1.9940   -0.6980   -5.5410 f         1 M3F     -0.226633
      4 FAD        -3.0610    0.2340   -3.9000 f         1 M3F     -0.226633
      5 FAE        -1.9230    1.4620   -5.2770 f         1 M3F     -0.226633
      6 CAF         5.3480    0.1860    0.0290 ca        1 M3F     -0.137000
      7 CAG         4.1600    0.4720    0.7040 ca        1 M3F     -0.098000
      8 CAH         5.3110   -0.0700   -1.3370 ca        1 M3F     -0.066000
      9 CAI         2.9400    0.4510    0.0350 ca        1 M3F     -0.138000
     10 CAJ        -0.7940   -0.0620   -2.3080 ca        1 M3F     -0.254300
     11 NAK         0.5650    0.1630   -4.3000 nb        1 M3F     -0.683000
     12 NAL         2.9070   -0.0180   -4.1670 n         1 M3F     -0.529400
     13 CAM         0.3430   -0.1450   -1.4900 ca        1 M3F      0.013700
     14 CAN        -0.6280    0.1290   -3.6850 ca        1 M3F      0.382600
     15 CAO         4.1100   -0.2130   -3.4850 c         1 M3F      0.715100
     16 CAP         4.0860   -0.0770   -2.0160 ca        1 M3F     -0.144600
     17 CAQ         1.6790    0.0650   -3.5090 ca        1 M3F      0.559200
     18 CAR         2.8680    0.1180   -1.3290 ca        1 M3F      0.020000
     19 CAS         1.6180    0.0150   -2.0650 ca        1 M3F     -0.170300
     20 CAT        -1.8740    0.2790   -4.5880 c3        1 M3F      0.598600
     21 HAA        -0.8410   -1.0450    0.0560 hc        1 M3F      0.060367
     22 HAAA        0.0040    0.4780    0.5390 hc        1 M3F      0.060367
     23 HAAB        0.9430   -1.0780    0.3590 hc        1 M3F      0.060367
     24 HAF         6.3070    0.1830    0.5680 ha        1 M3F      0.145000
     25 HAG         4.1870    0.7250    1.7760 ha        1 M3F      0.140000
     26 HAH         6.2380   -0.2540   -1.9060 ha        1 M3F      0.165000
     27 HAI         2.0380    0.7440    0.5900 ha        1 M3F      0.143000
     28 HAJ        -1.8010   -0.1540   -1.8760 ha        1 M3F      0.167000
     29 HNAL        2.9270   -0.0170   -5.1680 hn        1 M3F      0.353500
@<TRIPOS>BOND
     1    1   13 1   
     2    1   21 1   
     3    1   22 1   
     4    1   23 1   
     5    2   15 2   
     6    3   20 1   
     7    4   20 1   
     8    5   20 1   
     9    6    7 ar  
    10    6    8 ar  
    11    6   24 1   
    12    7    9 ar  
    13    7   25 1   
    14    8   16 ar  
    15    8   26 1   
    16    9   18 ar  
    17    9   27 1   
    18   10   13 ar  
    19   10   14 ar  
    20   10   28 1   
    21   11   14 ar  
    22   11   17 ar  
    23   12   15 1   
    24   12   17 1   
    25   12   29 1   
    26   13   19 ar  
    27   14   20 1   
    28   15   16 1   
    29   16   18 ar  
    30   17   19 ar  
    31   18   19 1   
@<TRIPOS>SUBSTRUCTURE
     1 M3F         1 TEMP              0 ****  ****    0 ROOT
