@<TRIPOS>MOLECULE
M3F
   29    31     1     0     0
SMALL
bcc


@<TRIPOS>ATOM
      1 CAA         0.1140   -0.4690   -0.0440 c3        1 M3F     -0.070800
      2 OAB         5.1540   -0.4820   -4.1190 o         1 M3F     -0.612500
      3 FAC        -1.8940    1.4380   -5.2770 f         1 M3F     -0.226633
      4 FAD        -1.9720   -0.7220   -5.5290 f         1 M3F     -0.226633
      5 FAE        -3.0420    0.2230   -3.8970 f         1 M3F     -0.226633
      6 CAF         5.3540    0.1630    0.0600 ca        1 M3F     -0.137000
      7 CAG         4.1650    0.4560    0.7300 ca        1 M3F     -0.098000
      8 CAH         5.3220   -0.0980   -1.3050 ca        1 M3F     -0.066000
      9 CAI         2.9480    0.4360    0.0560 ca        1 M3F     -0.138000
     10 CAJ        -0.7800   -0.0750   -2.2960 ca        1 M3F     -0.254300
     11 NAK         0.5850    0.1370   -4.2840 nb        1 M3F     -0.683000
     12 NAL         2.9270   -0.0510   -4.1430 n         1 M3F     -0.529400
     13 CAM         0.3540   -0.1590   -1.4740 ca        1 M3F      0.013700
     14 CAN        -0.6100    0.1100   -3.6730 ca        1 M3F      0.382600
     15 CAO         4.1270   -0.2470   -3.4570 c         1 M3F      0.715100
     16 CAP         4.0990   -0.1050   -1.9880 ca        1 M3F     -0.144600
     17 CAQ         1.6970    0.0380   -3.4890 ca        1 M3F      0.559200
     18 CAR         2.8790    0.0970   -1.3060 ca        1 M3F      0.020000
     19 CAS         1.6310   -0.0050   -2.0450 ca        1 M3F     -0.170300
     20 CAT        -1.8520    0.2590   -4.5810 c3        1 M3F      0.598600
     21 HAA        -0.8380   -1.0480    0.0720 hc        1 M3F      0.060367
     22 HAAA        0.0100    0.4740    0.5510 hc        1 M3F      0.060367
     23 HAAB        0.9440   -1.0850    0.3810 hc        1 M3F      0.060367
     24 HAF         6.3110    0.1590    0.6020 ha        1 M3F      0.145000
     25 HAG         4.1890    0.7140    1.8010 ha        1 M3F      0.140000
     26 HAH         6.2500   -0.2880   -1.8710 ha        1 M3F      0.165000
     27 HAI         2.0450    0.7340    0.6070 ha        1 M3F      0.143000
     28 HAJ        -1.7900   -0.1620   -1.8670 ha        1 M3F      0.167000
     29 HNAL        2.9500   -0.0540   -5.1440 hn        1 M3F      0.353500
@<TRIPOS>BOND
     1    1   13 1   
     2    1   21 1   
     3    1   22 1   
     4    1   23 1   
     5    2   15 2   
     6    3   20 1   
     7    4   20 1   
     8    5   20 1   
     9    6    7 ar  
    10    6    8 ar  
    11    6   24 1   
    12    7    9 ar  
    13    7   25 1   
    14    8   16 ar  
    15    8   26 1   
    16    9   18 ar  
    17    9   27 1   
    18   10   13 ar  
    19   10   14 ar  
    20   10   28 1   
    21   11   14 ar  
    22   11   17 ar  
    23   12   15 1   
    24   12   17 1   
    25   12   29 1   
    26   13   19 ar  
    27   14   20 1   
    28   15   16 1   
    29   16   18 ar  
    30   17   19 ar  
    31   18   19 1   
@<TRIPOS>SUBSTRUCTURE
     1 M3F         1 TEMP              0 ****  ****    0 ROOT
