@<TRIPOS>MOLECULE
M3I
   13    13     1     0     0
SMALL
bcc


@<TRIPOS>ATOM
      1 CAA        -0.0020    0.0070   -0.0240 c3        1 M3I     -0.141400
      2 NAB         4.9890   -0.1880    0.5510 nv        1 M3I     -0.894500
      3 CAC         2.4820    0.0670    0.8200 cc        1 M3I     -0.388600
      4 NAD         3.3430   -0.3270   -1.2860 nd        1 M3I     -0.424300
      5 OAE         2.0250   -0.2970   -1.3640 os        1 M3I     -0.123100
      6 CAF         3.7060   -0.1250    0.0170 cc        1 M3I      0.517200
      7 CAG         1.4570   -0.0530   -0.0920 cd        1 M3I      0.285000
      8 HAA        -0.4340   -1.0160   -0.1680 hc        1 M3I      0.065700
      9 HAAA       -0.4030    0.6730   -0.8300 hc        1 M3I      0.065700
     10 HAAB       -0.3230    0.4010    0.9710 hc        1 M3I      0.065700
     11 HNAB        5.1120    0.4320    1.3220 hn        1 M3I      0.400300
     12 HNAA        5.7250   -0.1330   -0.1210 hn        1 M3I      0.400300
     13 HAC         2.4400    0.2450    1.8880 ha        1 M3I      0.173000
@<TRIPOS>BOND
     1    1    7 1   
     2    1    8 1   
     3    1    9 1   
     4    1   10 1   
     5    2    6 1   
     6    2   11 1   
     7    2   12 1   
     8    3    6 1   
     9    3    7 2   
    10    3   13 1   
    11    4    5 1   
    12    4    6 2   
    13    5    7 1   
@<TRIPOS>SUBSTRUCTURE
     1 M3I         1 TEMP              0 ****  ****    0 ROOT
