@<TRIPOS>MOLECULE
M3I
   14    14     1     0     0
SMALL
bcc


@<TRIPOS>ATOM
      1 CAA        -0.0210   -0.0330   -0.0300 c3        1 M3I     -0.169400
      2 NAB         5.0350   -0.0230    0.4630 n4        1 M3I     -0.782300
      3 CAC         2.4800   -0.0930    0.8140 cc        1 M3I     -0.353600
      4 NAD         3.3070    0.1520   -1.3350 nd        1 M3I     -0.263300
      5 OAE         2.0120    0.1410   -1.3900 os        1 M3I     -0.054100
      6 CAF         3.6730    0.0130   -0.0230 cc        1 M3I      0.316200
      7 CAG         1.4370   -0.0080   -0.0930 cd        1 M3I      0.353000
      8 HAA        -0.3900    0.8140    0.6060 hc        1 M3I      0.100700
      9 HAAA       -0.3660   -0.9990    0.4230 hc        1 M3I      0.100700
     10 HAAB       -0.4680    0.0650   -1.0540 hc        1 M3I      0.100700
     11 HNAB        5.1980   -0.9290    0.9240 hn        1 M3I      0.481133
     12 HNAA        5.1640    0.7390    1.1420 hn        1 M3I      0.481133
     13 HAC         2.4370   -0.2110    1.8940 ha        1 M3I      0.208000
     14 HAB3        5.7080    0.0920   -0.3100 hn        1 M3I      0.481133
@<TRIPOS>BOND
     1    1    7 1   
     2    1    8 1   
     3    1    9 1   
     4    1   10 1   
     5    2    6 1   
     6    2   11 1   
     7    2   12 1   
     8    2   14 1   
     9    3    6 1   
    10    3    7 2   
    11    3   13 1   
    12    4    5 1   
    13    4    6 2   
    14    5    7 1   
@<TRIPOS>SUBSTRUCTURE
     1 M3I         1 TEMP              0 ****  ****    0 ROOT
