@<TRIPOS>MOLECULE
M3I
   13    13     1     0     0
SMALL
bcc


@<TRIPOS>ATOM
      1 CAA         2.5530    0.4840    0.0130 c3        1 M3I     -0.141400
      2 NAB        -2.4700    0.5000   -0.1990 nh        1 M3I     -0.894500
      3 CAC        -0.0030    1.0680   -0.0900 cc        1 M3I     -0.388600
      4 NAD        -0.6470   -1.1410    0.0890 nd        1 M3I     -0.424300
      5 OAE         0.6710   -1.0810    0.1010 os        1 M3I     -0.123100
      6 CAF        -1.1400    0.1270   -0.0370 cc        1 M3I      0.517200
      7 CAG         1.1090    0.2610   -0.0010 cd        1 M3I      0.285000
      8 HAA         2.9460    0.3870    1.0570 hc        1 M3I      0.065033
      9 HAAA        3.0710   -0.2740   -0.6280 hc        1 M3I      0.065033
     10 HAAB        2.7850    1.5080   -0.3690 hc        1 M3I      0.065033
     11 HNAB       -2.6710    1.3880    0.2080 hn        1 M3I      0.400300
     12 HNAA       -3.1350   -0.2040    0.0450 hn        1 M3I      0.400300
     13 HAC        -0.0700    2.1440   -0.1930 ha        1 M3I      0.173000
@<TRIPOS>BOND
     1    1    7 1   
     2    1    8 1   
     3    1    9 1   
     4    1   10 1   
     5    2    6 1   
     6    2   11 1   
     7    2   12 1   
     8    3    6 1   
     9    3    7 2   
    10    3   13 1   
    11    4    5 1   
    12    4    6 2   
    13    5    7 1   
@<TRIPOS>SUBSTRUCTURE
     1 M3I         1 TEMP              0 ****  ****    0 ROOT
