@<TRIPOS>MOLECULE
M3I
   13    12     1     0     0
SMALL
bcc


@<TRIPOS>ATOM
      1 CAA        -2.3630    0.0010   -0.1220 c3        1 M3I     -0.042900
      2 NAB         2.6830   -0.0090    0.4030 nh        1 M3I     -0.783600
      3 CAC         0.1990    0.0010    0.6150 c1        1 M3I     -0.131800
      4 NAD         1.0310    0.0010   -1.4300 n2        1 M3I     -0.222700
      5 OAE        -0.3560    0.0010   -1.5200 os        1 M3I     -0.058400
      6 CAF         1.3650    0.0010   -0.1220 ce        1 M3I      0.096900
      7 CAG        -0.8570    0.0010   -0.2620 c2        1 M3I     -0.027200
      8 HAA        -2.7080    0.8940   -0.3140 hc        1 M3I      0.065033
      9 HAAA       -2.6050   -0.2520    0.7900 hc        1 M3I      0.065033
     10 HAAB       -2.7480   -0.6390   -0.7500 hc        1 M3I      0.065033
     11 HNAB        3.0620    0.7660    0.6990 hn        1 M3I      0.400300
     12 HNAA        3.1610   -0.7860    0.4220 hn        1 M3I      0.400300
     13 HAC         0.1360    0.0220    1.5890 DU        1 M3I      0.173000
@<TRIPOS>BOND
     1    1    7 1   
     2    1    8 1   
     3    1    9 1   
     4    1   10 1   
     5    2    6 1   
     6    2   11 1   
     7    2   12 1   
     8    3    6 2   
     9    3    7 2   
    10    4    5 1   
    11    4    6 1   
    12    5    7 1   
@<TRIPOS>SUBSTRUCTURE
     1 M3I         1 TEMP              0 ****  ****    0 ROOT
