@<TRIPOS>MOLECULE
M3K
   44    45     1     0     0
SMALL
bcc


@<TRIPOS>ATOM
      1 C01         0.2070   -0.1930   -0.2340 ca        1 M3K      0.067600
      2 C02         1.6050   -0.1970   -0.0650 ca        1 M3K     -0.115000
      3 C03         2.1670   -0.4390    1.1850 ca        1 M3K     -0.094000
      4 C04         1.3580   -0.6890    2.2940 ca        1 M3K      0.048900
      5 C05        -0.0260   -0.7010    2.1560 ca        1 M3K     -0.111000
      6 C06        -0.6120   -0.4530    0.9020 ca        1 M3K      0.113900
      7 N07        -0.3830   -0.0170   -1.5100 nu        1 M3K     -0.615000
      8 C08        -0.1950    1.1020   -2.2860 ca        1 M3K      0.334600
      9 C09        -0.7790    1.1940   -3.5990 ca        1 M3K     -0.336600
     10 C10        -0.5470    2.3810   -4.3590 ca        1 M3K      0.246100
     11 C11         0.2600    3.4090   -3.9050 ca        1 M3K     -0.302000
     12 C12         0.8640    3.2830   -2.6290 ca        1 M3K      0.282900
     13 C13         0.6380    2.1620   -1.8360 ca        1 M3K     -0.291000
     14 C14        -1.6100    0.1170   -4.0900 c         1 M3K      0.603700
     15 N15        -1.6180   -0.1470   -5.5790 nz        1 M3K     -0.741400
     16 O16        -2.3150   -0.6810   -3.4740 o         1 M3K     -0.482100
     17 C18        -1.6000    3.2040   -7.7550 c3        1 M3K     -0.102400
     18 C19        -0.8680    2.1830   -8.6160 c3        1 M3K      0.150100
     19 C20        -1.3630    2.2690  -10.0670 c3        1 M3K      0.095400
     20 O21        -1.1210    0.8860   -8.0770 oh        1 M3K     -0.679800
     21 O22        -0.7790    1.1650  -10.7370 oh        1 M3K     -0.620800
     22 I23         2.1920   -1.0360    4.0990 i         1 M3K     -0.081900
     23 C15        -0.8770    3.5190   -6.4580 c3        1 M3K      0.141400
     24 F24        -1.9600   -0.4780    0.7810 f         1 M3K     -0.126900
     25 F26         1.6510    4.2780   -2.1800 f         1 M3K     -0.096900
     26 O1         -1.2180    2.4470   -5.5560 os        1 M3K     -0.385900
     27 H02         2.2650   -0.0140   -0.9280 ha        1 M3K      0.153000
     28 H07        -1.2020   -0.5730   -1.6630 hn        1 M3K      0.470800
     29 H03         3.2660   -0.4350    1.2850 ha        1 M3K      0.166000
     30 H05        -0.6890   -0.9010    3.0160 ha        1 M3K      0.179000
     31 H13         1.0970    2.1190   -0.8330 ha        1 M3K      0.188000
     32 H11         0.4320    4.3260   -4.4860 ha        1 M3K      0.179000
     33 H151       -2.1810    0.5710   -6.0650 hn        1 M3K      0.473133
     34 H152       -0.6710   -0.0710   -5.9670 hn        1 M3K      0.473133
     35 H181       -1.6940    4.1610   -8.3340 hc        1 M3K      0.083200
     36 H182       -2.6330    2.8290   -7.5290 hc        1 M3K      0.083200
     37 H19         0.2450    2.3560   -8.5930 h1        1 M3K      0.062700
     38 HA1         0.2350    3.5550   -6.5950 h1        1 M3K      0.068200
     39 HB2        -1.2480    4.4810   -6.0150 h1        1 M3K      0.068200
     40 H201       -1.0310    3.2350  -10.5290 h1        1 M3K      0.049700
     41 H202       -2.4820    2.1940  -10.1060 h1        1 M3K      0.049700
     42 H21        -0.9030    0.2460   -8.7710 ho        1 M3K      0.447000
     43 H22        -1.0300    1.2280  -11.6670 ho        1 M3K      0.433000
     44 H153       -2.0100   -1.0720   -5.7730 hn        1 M3K      0.473133
@<TRIPOS>BOND
     1    1    2 ar  
     2    1    6 ar  
     3    1    7 1   
     4    2    3 ar  
     5    2   27 1   
     6    3    4 ar  
     7    3   29 1   
     8    4    5 ar  
     9    4   22 1   
    10    5    6 ar  
    11    5   30 1   
    12    6   24 1   
    13    7    8 1   
    14    7   28 1   
    15    8    9 ar  
    16    8   13 ar  
    17    9   10 ar  
    18    9   14 1   
    19   10   11 ar  
    20   10   26 1   
    21   11   12 ar  
    22   11   32 1   
    23   12   13 ar  
    24   12   25 1   
    25   13   31 1   
    26   14   15 1   
    27   14   16 2   
    28   15   33 1   
    29   15   34 1   
    30   15   44 1   
    31   17   18 1   
    32   17   23 1   
    33   17   35 1   
    34   17   36 1   
    35   18   19 1   
    36   18   20 1   
    37   18   37 1   
    38   19   21 1   
    39   19   40 1   
    40   19   41 1   
    41   20   42 1   
    42   21   43 1   
    43   23   26 1   
    44   23   38 1   
    45   23   39 1   
@<TRIPOS>SUBSTRUCTURE
     1 M3K         1 TEMP              0 ****  ****    0 ROOT
