@<TRIPOS>MOLECULE
M3K
   45    46     1     0     0
SMALL
bcc


@<TRIPOS>ATOM
      1 C01         0.4440   -0.2400   -0.2210 ca        1 M3K     -0.122400
      2 C02         1.7940   -0.4070    0.1430 ca        1 M3K     -0.085000
      3 C03         2.1550   -0.3700    1.4850 ca        1 M3K     -0.085000
      4 C04         1.1940   -0.1660    2.4830 ca        1 M3K      0.092900
      5 C05        -0.1450    0.0010    2.1390 ca        1 M3K     -0.106000
      6 C06        -0.5360   -0.0340    0.7880 ca        1 M3K      0.166900
      7 N07         0.0380   -0.3540   -1.6240 n4        1 M3K     -0.501800
      8 C08         0.0620    0.8980   -2.4060 ca        1 M3K      0.099600
      9 C09        -0.5000    0.9260   -3.7320 ca        1 M3K     -0.273600
     10 C10        -0.5030    2.1830   -4.3980 ca        1 M3K      0.280100
     11 C11         0.0760    3.3310   -3.8240 ca        1 M3K     -0.243000
     12 C12         0.6480    3.2540   -2.5550 ca        1 M3K      0.286900
     13 C13         0.6290    2.0220   -1.8360 ca        1 M3K     -0.165000
     14 C14        -1.0220   -0.3010   -4.3230 c         1 M3K      0.585700
     15 N15        -1.5280   -0.3250   -5.7250 n4        1 M3K     -0.726400
     16 O16        -1.0830   -1.4060   -3.7730 o         1 M3K     -0.506100
     17 C18        -1.8220    3.1490   -7.6650 c3        1 M3K     -0.109400
     18 C19        -1.0770    2.2080   -8.6030 c3        1 M3K      0.151100
     19 C20        -1.5300    2.4330  -10.0530 c3        1 M3K      0.099400
     20 O21        -1.3530    0.8690   -8.1870 oh        1 M3K     -0.698800
     21 O22        -0.9610    1.3670  -10.7930 oh        1 M3K     -0.622800
     22 I23         1.7460   -0.1210    4.4230 i         1 M3K     -0.000900
     23 C15        -1.0650    3.4510   -6.3880 c3        1 M3K      0.142400
     24 F24        -1.8360    0.1140    0.4490 f         1 M3K     -0.111900
     25 F26         1.2120    4.3280   -1.9880 f         1 M3K     -0.053900
     26 O1         -1.1050    2.2190   -5.6140 os        1 M3K     -0.372900
     27 H02         2.5720   -0.5790   -0.6200 ha        1 M3K      0.167000
     28 H07        -0.9300   -0.7290   -1.6470 hn        1 M3K      0.481800
     29 H03         3.2190   -0.5100    1.7550 ha        1 M3K      0.196000
     30 H05        -0.9260    0.1550    2.9080 ha        1 M3K      0.207000
     31 H13         1.0740    2.0160   -0.8210 ha        1 M3K      0.211000
     32 H11         0.0830    4.2970   -4.3600 ha        1 M3K      0.209000
     33 H151       -0.7990    0.0020   -6.3890 hn        1 M3K      0.495133
     34 H152       -1.8240   -1.2780   -5.9780 hn        1 M3K      0.495133
     35 H181       -2.8270    2.7140   -7.4210 hc        1 M3K      0.097200
     36 H182       -1.9860    4.1320   -8.1870 hc        1 M3K      0.097200
     37 H19         0.0380    2.3600   -8.5330 h1        1 M3K      0.063700
     38 HA1        -1.5800    4.2550   -5.7980 h1        1 M3K      0.081200
     39 HB2         0.0080    3.7130   -6.5800 h1        1 M3K      0.081200
     40 H201       -1.1520    3.4230  -10.4230 h1        1 M3K      0.057700
     41 H202       -2.6490    2.4000  -10.1270 h1        1 M3K      0.057700
     42 H21        -1.2610    0.2980   -8.9660 ho        1 M3K      0.462000
     43 H22        -1.1730    1.5150  -11.7240 ho        1 M3K      0.446000
     44 H072        0.6530   -1.0400   -2.0930 hn        1 M3K      0.481800
     45 H153       -2.3210    0.3260   -5.8410 hn        1 M3K      0.495133
@<TRIPOS>BOND
     1    1    2 ar  
     2    1    6 ar  
     3    1    7 1   
     4    2    3 ar  
     5    2   27 1   
     6    3    4 ar  
     7    3   29 1   
     8    4    5 ar  
     9    4   22 1   
    10    5    6 ar  
    11    5   30 1   
    12    6   24 1   
    13    7    8 1   
    14    7   28 1   
    15    7   44 1   
    16    8    9 ar  
    17    8   13 ar  
    18    9   10 ar  
    19    9   14 1   
    20   10   11 ar  
    21   10   26 1   
    22   11   12 ar  
    23   11   32 1   
    24   12   13 ar  
    25   12   25 1   
    26   13   31 1   
    27   14   15 1   
    28   14   16 2   
    29   15   33 1   
    30   15   34 1   
    31   15   45 1   
    32   17   18 1   
    33   17   23 1   
    34   17   35 1   
    35   17   36 1   
    36   18   19 1   
    37   18   20 1   
    38   18   37 1   
    39   19   21 1   
    40   19   40 1   
    41   19   41 1   
    42   20   42 1   
    43   21   43 1   
    44   23   26 1   
    45   23   38 1   
    46   23   39 1   
@<TRIPOS>SUBSTRUCTURE
     1 M3K         1 TEMP              0 ****  ****    0 ROOT
