@<TRIPOS>MOLECULE
M3K
   43    44     1     0     0
SMALL
bcc


@<TRIPOS>ATOM
      1 C01         1.6170    0.9190   -0.0570 ca        1 M3K      0.143600
      2 C02         2.1550   -0.1030    0.7540 ca        1 M3K     -0.152000
      3 C03         3.5240   -0.3390    0.7980 ca        1 M3K     -0.084000
      4 C04         4.4060    0.4390    0.0480 ca        1 M3K      0.015900
      5 C05         3.9140    1.4660   -0.7510 ca        1 M3K     -0.105000
      6 C06         2.5340    1.7120   -0.8150 ca        1 M3K      0.075900
      7 N07         0.2510    1.2210   -0.0670 nh        1 M3K     -0.641000
      8 C08        -0.7640    0.2680   -0.0940 ca        1 M3K      0.278600
      9 C09        -2.1080    0.6770    0.1420 ca        1 M3K     -0.244600
     10 C10        -3.1310   -0.2920    0.1260 ca        1 M3K      0.214100
     11 C11        -2.8650   -1.6430   -0.1060 ca        1 M3K     -0.291000
     12 C12        -1.5350   -2.0310   -0.3400 ca        1 M3K      0.215900
     13 C13        -0.4940   -1.0970   -0.3420 ca        1 M3K     -0.276000
     14 C14        -2.4180    2.1170    0.3660 c         1 M3K      0.689700
     15 N15        -3.1660    2.4590    1.4680 n         1 M3K     -0.639000
     16 O16        -1.9660    3.0160   -0.3800 o         1 M3K     -0.634100
     17 C18        -6.7510    0.1060    0.1870 c3        1 M3K     -0.118400
     18 C19        -7.9740   -0.7990    0.1250 c3        1 M3K      0.137100
     19 C20        -9.2590    0.0370    0.0590 c3        1 M3K      0.098400
     20 O21        -8.0360   -1.6870    1.2270 oh        1 M3K     -0.592800
     21 O22        -9.2870    0.6530   -1.2160 oh        1 M3K     -0.596800
     22 I23         6.3910    0.0820    0.1220 i         1 M3K     -0.129900
     23 C15        -5.4830   -0.7210    0.0680 c3        1 M3K      0.132400
     24 F24         2.0810    2.7220   -1.5970 f         1 M3K     -0.131900
     25 F26        -1.2580   -3.3350   -0.5750 f         1 M3K     -0.131900
     26 O1         -4.4040    0.1780    0.3760 os        1 M3K     -0.347900
     27 H02         1.4820   -0.7190    1.3730 ha        1 M3K      0.154000
     28 H07         0.0040    2.1480   -0.3660 hn        1 M3K      0.482800
     29 H03         3.9040   -1.1490    1.4420 ha        1 M3K      0.151000
     30 H05         4.5880    2.1010   -1.3490 ha        1 M3K      0.163000
     31 H13         0.5270   -1.4400   -0.5670 ha        1 M3K      0.165000
     32 H11        -3.6580   -2.4030   -0.1120 ha        1 M3K      0.162000
     33 H151       -3.6890    1.7610    1.9350 hn        1 M3K      0.309500
     34 H152       -3.4630    3.4000    1.5570 hn        1 M3K      0.309500
     35 H181       -6.8080    0.8510   -0.6500 hc        1 M3K      0.069700
     36 H182       -6.7400    0.6750    1.1520 hc        1 M3K      0.069700
     37 H19        -7.9190   -1.4750   -0.7750 h1        1 M3K      0.095700
     38 HA1        -5.4860   -1.5610    0.8130 h1        1 M3K      0.055700
     39 HB2        -5.3590   -1.1250   -0.9700 h1        1 M3K      0.055700
     40 H201      -10.1480   -0.6340    0.1960 h1        1 M3K      0.032200
     41 H202       -9.2600    0.8200    0.8640 h1        1 M3K      0.032200
     42 H21        -8.0590   -1.1530    2.0300 ho        1 M3K      0.399000
     43 H22       -10.1430    1.0930   -1.2910 ho        1 M3K      0.408000
@<TRIPOS>BOND
     1    1    2 ar  
     2    1    6 ar  
     3    1    7 1   
     4    2    3 ar  
     5    2   27 1   
     6    3    4 ar  
     7    3   29 1   
     8    4    5 ar  
     9    4   22 1   
    10    5    6 ar  
    11    5   30 1   
    12    6   24 1   
    13    7    8 1   
    14    7   28 1   
    15    8    9 ar  
    16    8   13 ar  
    17    9   10 ar  
    18    9   14 1   
    19   10   11 ar  
    20   10   26 1   
    21   11   12 ar  
    22   11   32 1   
    23   12   13 ar  
    24   12   25 1   
    25   13   31 1   
    26   14   15 1   
    27   14   16 2   
    28   15   33 1   
    29   15   34 1   
    30   17   18 1   
    31   17   23 1   
    32   17   35 1   
    33   17   36 1   
    34   18   19 1   
    35   18   20 1   
    36   18   37 1   
    37   19   21 1   
    38   19   40 1   
    39   19   41 1   
    40   20   42 1   
    41   21   43 1   
    42   23   26 1   
    43   23   38 1   
    44   23   39 1   
@<TRIPOS>SUBSTRUCTURE
     1 M3K         1 TEMP              0 ****  ****    0 ROOT
