@<TRIPOS>MOLECULE
M3K
   44    45     1     0     0
SMALL
bcc


@<TRIPOS>ATOM
      1 C01         0.2290   -0.1990   -0.2400 ca        1 M3K      0.067600
      2 C02         1.6280   -0.2030   -0.0780 ca        1 M3K     -0.115000
      3 C03         2.1960   -0.4460    1.1690 ca        1 M3K     -0.094000
      4 C04         1.3930   -0.6980    2.2820 ca        1 M3K      0.048900
      5 C05         0.0080   -0.7100    2.1510 ca        1 M3K     -0.111000
      6 C06        -0.5840   -0.4610    0.9010 ca        1 M3K      0.113900
      7 N07        -0.3670   -0.0210   -1.5120 nh        1 M3K     -0.615000
      8 C08        -0.1830    1.0990   -2.2880 ca        1 M3K      0.334600
      9 C09        -0.7750    1.1930   -3.5980 ca        1 M3K     -0.336600
     10 C10        -0.5470    2.3810   -4.3560 ca        1 M3K      0.246100
     11 C11         0.2620    3.4080   -3.9050 ca        1 M3K     -0.302000
     12 C12         0.8720    3.2810   -2.6330 ca        1 M3K      0.282900
     13 C13         0.6510    2.1580   -1.8400 ca        1 M3K     -0.291000
     14 C14        -1.6080    0.1150   -4.0860 c         1 M3K      0.603700
     15 N15        -1.6240   -0.1460   -5.5750 n4        1 M3K     -0.741400
     16 O16        -2.3090   -0.6840   -3.4670 o         1 M3K     -0.482100
     17 C18        -1.6210    3.2100   -7.7440 c3        1 M3K     -0.102400
     18 C19        -0.8940    2.1910   -8.6120 c3        1 M3K      0.150100
     19 C20        -1.3980    2.2790  -10.0600 c3        1 M3K      0.095400
     20 O21        -1.1430    0.8920   -8.0740 oh        1 M3K     -0.679800
     21 O22        -0.8180    1.1760  -10.7360 oh        1 M3K     -0.620800
     22 I23         2.2370   -1.0480    4.0820 i         1 M3K     -0.081900
     23 C15        -0.8900    3.5220   -6.4520 c3        1 M3K      0.141400
     24 F24        -1.9330   -0.4860    0.7870 f         1 M3K     -0.126900
     25 F26         1.6620    4.2750   -2.1860 f         1 M3K     -0.096900
     26 O1         -1.2250    2.4480   -5.5500 os        1 M3K     -0.385900
     27 H02         2.2840   -0.0190   -0.9440 ha        1 M3K      0.153000
     28 H07        -1.1870   -0.5780   -1.6620 hn        1 M3K      0.470800
     29 H03         3.2960   -0.4430    1.2630 ha        1 M3K      0.166000
     30 H05        -0.6500   -0.9110    3.0140 ha        1 M3K      0.179000
     31 H13         1.1150    2.1140   -0.8400 ha        1 M3K      0.188000
     32 H11         0.4300    4.3260   -4.4860 ha        1 M3K      0.179000
     33 H151       -2.1900    0.5720   -6.0570 hn        1 M3K      0.473133
     34 H152       -2.0160   -1.0710   -5.7690 hn        1 M3K      0.473133
     35 H181       -1.7180    4.1680   -8.3210 hc        1 M3K      0.083200
     36 H182       -2.6520    2.8340   -7.5130 hc        1 M3K      0.083200
     37 H19         0.2190    2.3640   -8.5960 h1        1 M3K      0.062700
     38 HA1        -1.2580    4.4840   -6.0050 h1        1 M3K      0.068200
     39 HB2         0.2210    3.5590   -6.5960 h1        1 M3K      0.068200
     40 H201       -1.0690    3.2460  -10.5220 h1        1 M3K      0.049700
     41 H202       -2.5170    2.2030  -10.0920 h1        1 M3K      0.049700
     42 H21        -0.9290    0.2540   -8.7710 ho        1 M3K      0.447000
     43 H22        -1.0750    1.2410  -11.6640 ho        1 M3K      0.433000
     44 H153       -0.6790   -0.0690   -5.9680 hn        1 M3K      0.473133
@<TRIPOS>BOND
     1    1    2 ar  
     2    1    6 ar  
     3    1    7 1   
     4    2    3 ar  
     5    2   27 1   
     6    3    4 ar  
     7    3   29 1   
     8    4    5 ar  
     9    4   22 1   
    10    5    6 ar  
    11    5   30 1   
    12    6   24 1   
    13    7    8 1   
    14    7   28 1   
    15    8    9 ar  
    16    8   13 ar  
    17    9   10 ar  
    18    9   14 1   
    19   10   11 ar  
    20   10   26 1   
    21   11   12 ar  
    22   11   32 1   
    23   12   13 ar  
    24   12   25 1   
    25   13   31 1   
    26   14   15 1   
    27   14   16 2   
    28   15   33 1   
    29   15   34 1   
    30   15   44 1   
    31   17   18 1   
    32   17   23 1   
    33   17   35 1   
    34   17   36 1   
    35   18   19 1   
    36   18   20 1   
    37   18   37 1   
    38   19   21 1   
    39   19   40 1   
    40   19   41 1   
    41   20   42 1   
    42   21   43 1   
    43   23   26 1   
    44   23   38 1   
    45   23   39 1   
@<TRIPOS>SUBSTRUCTURE
     1 M3K         1 TEMP              0 ****  ****    0 ROOT
