@<TRIPOS>MOLECULE
M3L
   33    32     1     0     0
SMALL
bcc


@<TRIPOS>ATOM
      1 N           3.0210   -0.3090   -0.0130 n3        1 M3L     -0.891800
      2 CA          1.5920   -0.5160   -0.2000 c3        1 M3L      0.059500
      3 CB          1.0760   -1.6690    0.6760 c3        1 M3L     -0.075400
      4 CG         -0.2910   -2.1870    0.2690 c3        1 M3L     -0.064400
      5 CD         -1.4310   -1.2600    0.6700 c3        1 M3L     -0.107400
      6 CE         -1.9700   -0.5540   -0.5650 c3        1 M3L      0.098800
      7 NZ         -2.8530    0.6480   -0.3180 n4        1 M3L     -0.578800
      8 C           0.7660    0.7580    0.0880 c         1 M3L      0.864600
      9 O           0.6190    1.1600    1.2790 o         1 M3L     -0.860800
     10 OXT         0.1980    1.3530   -0.8850 o         1 M3L     -0.860800
     11 CM1        -2.7890    1.5210   -1.5310 c3        1 M3L      0.077767
     12 CM2        -2.4190    1.4560    0.8600 c3        1 M3L      0.077767
     13 CM3        -4.2540    0.1950   -0.1030 c3        1 M3L      0.077767
     14 H           3.3100    0.4630   -0.5850 hn        1 M3L      0.345800
     15 H2          3.1970   -0.0680    0.9450 hn        1 M3L      0.345800
     16 HA          1.4390   -0.7900   -1.2850 h1        1 M3L      0.049700
     17 HB2         1.0460   -1.3190    1.7420 hc        1 M3L      0.055700
     18 HB3         1.7970   -2.5280    0.6160 hc        1 M3L      0.055700
     19 HG2        -0.4520   -3.1760    0.7750 hc        1 M3L      0.038700
     20 HG3        -0.3070   -2.3800   -0.8360 hc        1 M3L      0.038700
     21 HD2        -1.0290   -0.5180    1.4170 hc        1 M3L      0.069200
     22 HD3        -2.2520   -1.8430    1.1620 hc        1 M3L      0.069200
     23 HE2        -2.5680   -1.2750   -1.1890 hx        1 M3L      0.112200
     24 HE3        -1.0790   -0.1880   -1.1760 hx        1 M3L      0.112200
     25 HM11       -1.7300    1.9160   -1.6260 hx        1 M3L      0.098922
     26 HM12       -3.0540    0.9180   -2.4360 hx        1 M3L      0.098922
     27 HM13       -3.5080    2.3710   -1.4120 hx        1 M3L      0.098922
     28 HM21       -3.0380    2.3900    0.9020 hx        1 M3L      0.098922
     29 HM22       -2.5670    0.8630    1.7970 hx        1 M3L      0.098922
     30 HM23       -1.3180    1.7290    0.7500 hx        1 M3L      0.098922
     31 HM31       -4.6390   -0.3020   -1.0320 hx        1 M3L      0.098922
     32 HM32       -4.2750   -0.5350    0.7490 hx        1 M3L      0.098922
     33 HM33       -4.9010    1.0770    0.1420 hx        1 M3L      0.098922
@<TRIPOS>BOND
     1    1    2 1   
     2    1   14 1   
     3    1   15 1   
     4    2    3 1   
     5    2    8 1   
     6    2   16 1   
     7    3    4 1   
     8    3   17 1   
     9    3   18 1   
    10    4    5 1   
    11    4   19 1   
    12    4   20 1   
    13    5    6 1   
    14    5   21 1   
    15    5   22 1   
    16    6    7 1   
    17    6   23 1   
    18    6   24 1   
    19    7   11 1   
    20    7   12 1   
    21    7   13 1   
    22    8    9 1   
    23    8   10 1   
    24   11   25 1   
    25   11   26 1   
    26   11   27 1   
    27   12   28 1   
    28   12   29 1   
    29   12   30 1   
    30   13   31 1   
    31   13   32 1   
    32   13   33 1   
@<TRIPOS>SUBSTRUCTURE
     1 M3L         1 TEMP              0 ****  ****    0 ROOT
