@<TRIPOS>MOLECULE
M3M
   45    46     1     0     0
SMALL
bcc


@<TRIPOS>ATOM
      1 C1          1.2260    0.3910    0.9050 c3        1 M3M      0.302900
      2 C2          2.2580    1.5260    0.7460 c3        1 M3M      0.091100
      3 C3          3.1570    1.3440   -0.4830 c3        1 M3M      0.115100
      4 C4          3.6400   -0.1130   -0.5860 c3        1 M3M      0.091100
      5 C5          2.4120   -1.0270   -0.6350 c3        1 M3M      0.102100
      6 C6          2.7940   -2.5040   -0.7440 c3        1 M3M      0.137400
      7 O2          3.1180    1.5420    1.8760 oh        1 M3M     -0.599800
      8 O3          4.2610    2.2240   -0.4590 oh        1 M3M     -0.594800
      9 O4          4.3810   -0.3200   -1.7750 oh        1 M3M     -0.593800
     10 O5          1.6770   -0.9070    0.5900 os        1 M3M     -0.442600
     11 O6          1.6580   -3.2950   -1.0150 oh        1 M3M     -0.595800
     12 C1'        -2.8620   -1.4760    0.8340 c3        1 M3M      0.340900
     13 C2'        -1.3730   -1.1510    0.6230 c3        1 M3M      0.105100
     14 C3'        -1.1370    0.3630    0.5210 c3        1 M3M      0.117100
     15 C4'        -2.1310    1.0130   -0.4540 c3        1 M3M      0.123100
     16 C5'        -3.5620    0.6580   -0.0170 c3        1 M3M      0.072100
     17 C6'        -4.5910    1.1900   -1.0190 c3        1 M3M      0.136400
     18 O1'        -3.1850   -1.1310    2.1620 oh        1 M3M     -0.628800
     19 O2'        -0.9880   -1.8480   -0.5480 oh        1 M3M     -0.593800
     20 O3'         0.1650    0.6260   -0.0070 os        1 M3M     -0.438600
     21 O4'        -1.9390    2.4150   -0.3580 oh        1 M3M     -0.586800
     22 O5'        -3.7570   -0.7570    0.0120 os        1 M3M     -0.449600
     23 O6'        -5.9080    0.9020   -0.6040 oh        1 M3M     -0.591800
     24 H1          0.8830    0.3170    1.9780 h2        1 M3M      0.084700
     25 H2          1.7040    2.5020    0.6590 h1        1 M3M      0.078700
     26 H3          2.5830    1.6270   -1.4110 h1        1 M3M      0.102700
     27 H4          4.2810   -0.3640    0.3050 h1        1 M3M      0.063700
     28 H5          1.7510   -0.7310   -1.4970 h1        1 M3M      0.073700
     29 H6          3.4730   -2.6400   -1.6290 h1        1 M3M      0.067700
     30 H6A         3.3020   -2.8420    0.1960 h1        1 M3M      0.067700
     31 HO2         2.6150    1.9090    2.6130 ho        1 M3M      0.415000
     32 HO3         4.6990    2.1230    0.3980 ho        1 M3M      0.422000
     33 HO4         4.9650    0.4460   -1.8730 ho        1 M3M      0.422000
     34 HO6         1.0690   -3.2270   -0.2510 ho        1 M3M      0.410000
     35 H1'        -3.0750   -2.5590    0.6000 h2        1 M3M      0.097700
     36 H2'        -0.7800   -1.5480    1.4960 h1        1 M3M      0.066700
     37 H3'        -1.2500    0.8300    1.5380 h1        1 M3M      0.075700
     38 H4'        -1.9300    0.6410   -1.4950 h1        1 M3M      0.072700
     39 H5'        -3.7610    1.0750    1.0090 h1        1 M3M      0.075700
     40 H6'        -4.5320    2.3100   -1.0570 h1        1 M3M      0.053700
     41 H6'A       -4.3970    0.7540   -2.0350 h1        1 M3M      0.053700
     42 HO1'       -4.1260   -1.3080    2.2830 ho        1 M3M      0.425000
     43 HO2'       -0.1240   -1.4980   -0.8150 ho        1 M3M      0.431000
     44 HO4'       -2.2780    2.7990   -1.1750 ho        1 M3M      0.408000
     45 HO6'       -5.9780   -0.0590   -0.5310 ho        1 M3M      0.414000
@<TRIPOS>BOND
     1    1    2 1   
     2    1   10 1   
     3    1   20 1   
     4    1   24 1   
     5    2    3 1   
     6    2    7 1   
     7    2   25 1   
     8    3    4 1   
     9    3    8 1   
    10    3   26 1   
    11    4    5 1   
    12    4    9 1   
    13    4   27 1   
    14    5    6 1   
    15    5   10 1   
    16    5   28 1   
    17    6   11 1   
    18    6   29 1   
    19    6   30 1   
    20    7   31 1   
    21    8   32 1   
    22    9   33 1   
    23   11   34 1   
    24   12   13 1   
    25   12   18 1   
    26   12   22 1   
    27   12   35 1   
    28   13   14 1   
    29   13   19 1   
    30   13   36 1   
    31   14   15 1   
    32   14   20 1   
    33   14   37 1   
    34   15   16 1   
    35   15   21 1   
    36   15   38 1   
    37   16   17 1   
    38   16   22 1   
    39   16   39 1   
    40   17   23 1   
    41   17   40 1   
    42   17   41 1   
    43   18   42 1   
    44   19   43 1   
    45   21   44 1   
    46   23   45 1   
@<TRIPOS>SUBSTRUCTURE
     1 M3M         1 TEMP              0 ****  ****    0 ROOT
