@<TRIPOS>MOLECULE
M3N
   33    32     1     0     0
SMALL
bcc


@<TRIPOS>ATOM
      1 C1         -0.1600   -0.4590    0.1200 c3        1 M3N      0.123000
      2 C2          1.3540   -0.2810   -0.2140 c3        1 M3N      0.059000
      3 O2          1.4410    0.4380   -1.4290 oh        1 M3N     -0.306000
      4 C3          2.0880    0.3810    0.8990 c2        1 M3N     -0.226000
      5 O3          4.7670    1.3570    2.2940 oh        1 M3N     -0.403500
      6 C4          1.4370    0.9870    1.9060 c2        1 M3N      0.002000
      7 O4          2.1790    1.5870    2.9070 oh        1 M3N     -0.275000
      8 C5         -0.0580    1.0710    2.0010 c3        1 M3N     -0.004000
      9 O5         -0.6880    0.6850    0.7750 os        1 M3N     -0.252000
     10 C6         -0.5420    2.5100    2.2610 c3        1 M3N     -0.021000
     11 O6         -1.7980    2.5330    2.8970 oh        1 M3N     -0.304000
     12 C01        -1.3830   -3.5850    1.5850 c2        1 M3N     -0.276000
     13 C02        -1.4820   -2.5680    0.5760 c2        1 M3N     -0.008000
     14 N03        -0.4500   -1.6930    0.8500 na        1 M3N     -0.202000
     15 N04         0.2370   -2.1290    1.9660 n2        1 M3N     -0.017000
     16 N05        -0.2640   -3.1940    2.3980 n2        1 M3N      0.004000
     17 O01        -3.8720   -3.5600   -1.1110 oh        1 M3N     -0.403500
     18 H1         -0.7530   -0.4880   -0.8490 h2        1 M3N      0.157000
     19 H2          1.8250   -1.2790   -0.4510 h1        1 M3N      0.152000
     20 H3          1.2150    1.3590   -1.2450 ho        1 M3N      0.212000
     21 H4          4.2300    2.1510    2.2120 ho        1 M3N      0.202000
     22 H5          3.1900    0.3470    0.8580 ha        1 M3N      0.184000
     23 H6          4.2780    0.8220    2.9270 ho        1 M3N      0.202000
     24 H7          1.6770    1.5080    3.7310 ho        1 M3N      0.226000
     25 H8          0.2250    3.0550    2.8730 h1        1 M3N      0.108500
     26 H9         -0.4220    0.3910    2.8240 h1        1 M3N      0.113000
     27 H10        -0.7090    3.0460    1.2860 h1        1 M3N      0.108500
     28 H11        -1.7060    2.0920    3.7510 ho        1 M3N      0.197000
     29 H12        -2.1920   -2.4600   -0.2520 h4        1 M3N      0.226000
     30 H13        -3.9750   -4.5100   -0.9930 ho        1 M3N      0.202000
     31 H14        -2.9730   -4.8630    1.0640 ha        1 M3N      0.030000
     32 H15        -4.7260   -3.2760   -1.4470 ho        1 M3N      0.202000
     33 C03        -2.1610   -4.7270    1.8010 c1        1 M3N     -0.012000
@<TRIPOS>BOND
     1    1    2 1   
     2    1    9 1   
     3    1   14 1   
     4    1   18 1   
     5    2    3 1   
     6    2    4 1   
     7    2   19 1   
     8    3   20 1   
     9    4    6 1   
    10    4   22 1   
    11    5   21 1   
    12    5   23 1   
    13    6    7 1   
    14    6    8 1   
    15    7   24 1   
    16    8    9 1   
    17    8   10 1   
    18    8   26 1   
    19   10   11 1   
    20   10   25 1   
    21   10   27 1   
    22   11   28 1   
    23   12   13 1   
    24   12   16 1   
    25   12   33 1   
    26   13   14 1   
    27   13   29 1   
    28   14   15 1   
    29   15   16 1   
    30   17   30 1   
    31   17   32 1   
    32   31   33 1   
@<TRIPOS>SUBSTRUCTURE
     1 M3N         1 TEMP              0 ****  ****    0 ROOT
