@<TRIPOS>MOLECULE
M3P
   18    17     1     0     0
SMALL
bcc


@<TRIPOS>ATOM
      1 C1          0.4230   -0.1830    0.2520 ce        1 M3P      0.089900
      2 C2          1.1950    0.9720   -0.3930 c         1 M3P      0.884800
      3 C3         -0.8510   -0.5140    4.5090 c         1 M3P      0.580300
      4 C4         -0.1230    0.5560    3.8560 ce        1 M3P     -0.385200
      5 C5          0.2540    0.6330    2.5570 cf        1 M3P      0.058000
      6 C6          0.0080   -0.3380    1.5410 cf        1 M3P     -0.292000
      7 C          -1.1070   -0.2800    5.9760 c3        1 M3P     -0.197100
      8 O1          0.1130   -1.2000   -0.6100 oh        1 M3P     -0.531100
      9 O2          1.4310    0.8140   -1.6280 o         1 M3P     -0.809800
     10 O3          1.5420    1.9700    0.2860 o         1 M3P     -0.809800
     11 O4         -1.2610   -1.5590    3.9770 o         1 M3P     -0.589100
     12 H4          0.1440    1.3940    4.5210 ha        1 M3P      0.107000
     13 H5          0.8130    1.5390    2.2290 ha        1 M3P      0.168000
     14 H6         -0.5430   -1.2500    1.8270 ha        1 M3P      0.147000
     15 H          -0.1360   -0.1650    6.5130 hc        1 M3P      0.043033
     16 HA         -1.6700   -1.1350    6.4200 hc        1 M3P      0.043033
     17 HB         -1.7020    0.6550    6.1080 hc        1 M3P      0.043033
     18 HO1         0.4680   -0.9580   -1.4900 ho        1 M3P      0.450000
@<TRIPOS>BOND
     1    1    2 1   
     2    1    6 2   
     3    1    8 1   
     4    2    9 1   
     5    2   10 1   
     6    3    4 1   
     7    3    7 1   
     8    3   11 2   
     9    4    5 2   
    10    4   12 1   
    11    5    6 1   
    12    5   13 1   
    13    6   14 1   
    14    7   15 1   
    15    7   16 1   
    16    7   17 1   
    17    8   18 1   
@<TRIPOS>SUBSTRUCTURE
     1 M3P         1 TEMP              0 ****  ****    0 ROOT
