@<TRIPOS>MOLECULE
M3P
   18    17     1     0     0
SMALL
bcc


@<TRIPOS>ATOM
      1 C1          0.2940   -0.0690    0.2210 ce        1 M3P      0.089900
      2 C2          1.1750    1.0290   -0.3830 c         1 M3P      0.884800
      3 C3         -0.8350   -0.5520    4.5030 c         1 M3P      0.580300
      4 C4         -0.0080    0.4660    3.8890 ce        1 M3P     -0.385200
      5 C5          0.3220    0.5920    2.5810 cf        1 M3P      0.058000
      6 C6         -0.0830   -0.2660    1.5150 cf        1 M3P     -0.292000
      7 C          -1.0000   -0.3960    5.9940 c3        1 M3P     -0.197100
      8 O1         -0.1740   -0.9770   -0.6910 oh        1 M3P     -0.531100
      9 O2          1.3390    0.9340   -1.6360 o         1 M3P     -0.809800
     10 O3          1.6700    1.9260    0.3430 o         1 M3P     -0.809800
     11 O4         -1.3920   -1.5000    3.9240 o         1 M3P     -0.589100
     12 H4          0.3880    1.2160    4.5940 ha        1 M3P      0.107000
     13 H5          0.9750    1.4460    2.2870 ha        1 M3P      0.168000
     14 H6         -0.7300   -1.1240    1.7670 ha        1 M3P      0.147000
     15 H          -0.0010   -0.4380    6.4890 hc        1 M3P      0.043033
     16 HA         -1.6450   -1.2070    6.4070 hc        1 M3P      0.043033
     17 HB         -1.4690    0.5920    6.2180 hc        1 M3P      0.043033
     18 HO1         0.1720   -0.7150   -1.5700 ho        1 M3P      0.450000
@<TRIPOS>BOND
     1    1    2 1   
     2    1    6 2   
     3    1    8 1   
     4    2    9 1   
     5    2   10 1   
     6    3    4 1   
     7    3    7 1   
     8    3   11 2   
     9    4    5 2   
    10    4   12 1   
    11    5    6 1   
    12    5   13 1   
    13    6   14 1   
    14    7   15 1   
    15    7   16 1   
    16    7   17 1   
    17    8   18 1   
@<TRIPOS>SUBSTRUCTURE
     1 M3P         1 TEMP              0 ****  ****    0 ROOT
