@<TRIPOS>MOLECULE
M3P
   18    17     1     0     0
SMALL
bcc


@<TRIPOS>ATOM
      1 C1         -1.8180    0.7280   -0.0560 ce        1 M3P      0.132900
      2 C2         -2.3050   -0.7430   -0.0600 c         1 M3P      0.930800
      3 C3          3.0250   -0.1910    0.0010 c         1 M3P      0.578300
      4 C4          1.8770    0.6950   -0.0140 ce        1 M3P     -0.392200
      5 C5          0.5920    0.2620   -0.0280 cf        1 M3P      0.086000
      6 C6         -0.5220    1.1530   -0.0420 cf        1 M3P     -0.384000
      7 C           4.3580    0.5080    0.0150 c3        1 M3P     -0.195100
      8 O1         -2.8530    1.6090   -0.0700 oh        1 M3P     -0.479100
      9 O2         -2.4870   -1.2680    1.0650 o         1 M3P     -0.786300
     10 O3         -2.4610   -1.2710   -1.1860 o         1 M3P     -0.786300
     11 O4          2.9740   -1.4320    0.0030 o         1 M3P     -0.585100
     12 H4          2.1040    1.7710   -0.0130 ha        1 M3P      0.108000
     13 H5          0.3680   -0.8240   -0.0290 ha        1 M3P      0.159000
     14 H6         -0.3000    2.2330   -0.0410 ha        1 M3P      0.096000
     15 H           4.4530    1.1520   -0.8920 hc        1 M3P      0.043700
     16 HA          4.4320    1.1550    0.9220 hc        1 M3P      0.043700
     17 HB          5.1930   -0.2310    0.0260 hc        1 M3P      0.043700
     18 HO1        -2.5070    2.5160   -0.0670 ho        1 M3P      0.385000
@<TRIPOS>BOND
     1    1    2 1   
     2    1    6 2   
     3    1    8 1   
     4    2    9 1   
     5    2   10 1   
     6    3    4 1   
     7    3    7 1   
     8    3   11 2   
     9    4    5 2   
    10    4   12 1   
    11    5    6 1   
    12    5   13 1   
    13    6   14 1   
    14    7   15 1   
    15    7   16 1   
    16    7   17 1   
    17    8   18 1   
@<TRIPOS>SUBSTRUCTURE
     1 M3P         1 TEMP              0 ****  ****    0 ROOT
