@<TRIPOS>MOLECULE
M3R
   32    31     1     0     0
SMALL
bcc


@<TRIPOS>ATOM
      1 CP          3.7680    1.5480   -0.1720 c3        1 M3R     -0.472300
      2 P           2.1580    1.8910   -0.1730 p5        1 M3R      1.587200
      3 OPA         2.0860    3.2380   -1.1070 oh        1 M3R     -0.805400
      4 OPB         1.6260    2.3890    1.1080 o         1 M3R     -0.899300
      5 N           1.3630    0.7740   -0.9380 n3        1 M3R     -0.984300
      6 CA          1.0150   -0.4430   -0.2480 c3        1 M3R      0.080500
      7 C           1.9890   -1.6520   -0.5280 c         1 M3R      0.897600
      8 OXT         1.6650   -2.7610   -0.0280 o         1 M3R     -0.831300
      9 CB         -0.4130   -0.9200   -0.5390 c3        1 M3R     -0.070400
     10 CG         -1.4560    0.0310    0.0050 c3        1 M3R     -0.089400
     11 CD         -2.8520   -0.5720   -0.1570 c3        1 M3R      0.181800
     12 NE         -3.8880    0.3160    0.3430 nh        1 M3R     -0.798200
     13 CZ         -5.2250   -0.1870    0.4230 c2        1 M3R      0.741100
     14 NH2        -5.5600   -1.3200   -0.1480 n2        1 M3R     -0.869100
     15 NH1        -6.1510    0.6470    1.1560 nh        1 M3R     -0.934800
     16 O           3.0410   -1.4420   -1.1950 o         1 M3R     -0.831300
     17 HP          4.2290    1.7280    0.8280 hc        1 M3R      0.112033
     18 HPA         3.9850    0.4710   -0.4330 hc        1 M3R      0.112033
     19 HPB         4.3400    2.1620   -0.9070 hc        1 M3R      0.112033
     20 HOPA        1.5970    3.9450   -0.6950 ho        1 M3R      0.452000
     21 HN          1.4080    0.6490   -1.9180 hn        1 M3R      0.434800
     22 HA          1.0890   -0.2220    0.8600 h1        1 M3R      0.045700
     23 HB2        -0.5550   -1.0510   -1.6430 hc        1 M3R      0.057700
     24 HB3        -0.5220   -1.9320   -0.0610 hc        1 M3R      0.057700
     25 HG2        -1.2460    0.2350    1.0880 hc        1 M3R      0.043700
     26 HG3        -1.4000    1.0110   -0.5360 hc        1 M3R      0.043700
     27 HD2        -3.0590   -0.7520   -1.2490 h1        1 M3R      0.052200
     28 HD3        -2.8770   -1.5740    0.3610 h1        1 M3R      0.052200
     29 HE         -3.6030    0.7780    1.1860 hn        1 M3R      0.390800
     30 HH21       -6.5340   -1.5340   -0.1220 hn        1 M3R      0.376400
     31 HH12       -7.0510    0.6840    0.7290 hn        1 M3R      0.376800
     32 HH11       -5.8140    1.5640    1.3590 hn        1 M3R      0.376800
@<TRIPOS>BOND
     1    1    2 1   
     2    1   17 1   
     3    1   18 1   
     4    1   19 1   
     5    2    3 1   
     6    2    4 2   
     7    2    5 1   
     8    3   20 1   
     9    5    6 1   
    10    5   21 1   
    11    6    7 1   
    12    6    9 1   
    13    6   22 1   
    14    7    8 1   
    15    7   16 1   
    16    9   10 1   
    17    9   23 1   
    18    9   24 1   
    19   10   11 1   
    20   10   25 1   
    21   10   26 1   
    22   11   12 1   
    23   11   27 1   
    24   11   28 1   
    25   12   13 1   
    26   12   29 1   
    27   13   14 2   
    28   13   15 1   
    29   14   30 1   
    30   15   31 1   
    31   15   32 1   
@<TRIPOS>SUBSTRUCTURE
     1 M3R         1 TEMP              0 ****  ****    0 ROOT
