@<TRIPOS>MOLECULE
M3R
   32    30     1     0     0
SMALL
bcc


@<TRIPOS>ATOM
      1 CP          1.2920   -4.8930    1.0590 c3        1 M3R     -0.415300
      2 P           0.6530   -3.3680    1.8260 p5        1 M3R      1.576200
      3 OPA        -0.3880   -3.7450    2.9640 oh        1 M3R     -0.804400
      4 OPB         1.7780   -2.6030    2.4180 o         1 M3R     -0.887300
      5 N          -0.1040   -2.4360    0.6640 n3        1 M3R     -1.004300
      6 CA         -0.4040   -1.0770    0.9310 c3        1 M3R      0.096500
      7 C          -1.7870   -0.9750    1.5410 c         1 M3R      0.897600
      8 OXT        -1.9570   -0.3390    2.6130 o         1 M3R     -0.840800
      9 CB         -0.3600   -0.2800   -0.3700 c3        1 M3R     -0.071400
     10 CG         -0.1730    1.1930   -0.0540 c3        1 M3R     -0.112400
     11 CD         -0.0090    1.9810   -1.3590 c3        1 M3R      0.189800
     12 NE          0.0270    3.3970   -1.0650 nh        1 M3R     -0.773000
     13 CZ          0.3180    4.3450   -2.1170 c2        1 M3R      0.338000
     14 NH2         1.4850    4.3290   -2.7080 n1        1 M3R     -0.395000
     15 NH1        -0.6670    5.2990   -2.5090 nh        1 M3R     -0.823600
     16 O          -2.7700   -1.5310    0.9730 o         1 M3R     -0.840800
     17 HP          1.8490   -4.6620    0.2870 hc        1 M3R      0.089700
     18 HPA         1.8300   -5.3870    1.7140 hc        1 M3R      0.089700
     19 HPB         0.5420   -5.4510    0.7650 hc        1 M3R      0.089700
     20 HOPA        0.0190   -4.2410    3.5870 ho        1 M3R      0.460000
     21 HN         -0.2950   -2.7920   -0.1540 hn        1 M3R      0.456800
     22 HA          0.2530   -0.7160    1.5560 h1        1 M3R      0.062700
     23 HB2        -1.2000   -0.4060   -0.8590 hc        1 M3R      0.032700
     24 HB3         0.3850   -0.5920   -0.9180 hc        1 M3R      0.032700
     25 HG2         0.6250    1.3080    0.4990 hc        1 M3R      0.054700
     26 HG3        -0.9550    1.5230    0.4290 hc        1 M3R      0.054700
     27 HD2         0.8270    1.7170   -1.7970 h1        1 M3R      0.029700
     28 HD3        -0.7690    1.7890   -1.9580 h1        1 M3R      0.029700
     29 HE         -0.1980    3.6940   -0.2360 hn        1 M3R      0.430800
     30 HH21        2.1210    3.7130   -2.4550 DU        1 M3R      0.121000
     31 HH12       -0.4510    5.9630   -3.0950 hn        1 M3R      0.416800
     32 HH11       -1.5180    5.2440   -2.1730 hn        1 M3R      0.416800
@<TRIPOS>BOND
     1    1    2 1   
     2    1   17 1   
     3    1   18 1   
     4    1   19 1   
     5    2    3 1   
     6    2    4 2   
     7    2    5 1   
     8    3   20 1   
     9    5    6 1   
    10    5   21 1   
    11    6    7 1   
    12    6    9 1   
    13    6   22 1   
    14    7    8 1   
    15    7   16 1   
    16    9   10 1   
    17    9   23 1   
    18    9   24 1   
    19   10   11 1   
    20   10   25 1   
    21   10   26 1   
    22   11   12 1   
    23   11   27 1   
    24   11   28 1   
    25   12   13 1   
    26   12   29 1   
    27   13   14 2   
    28   13   15 1   
    29   15   31 1   
    30   15   32 1   
@<TRIPOS>SUBSTRUCTURE
     1 M3R         1 TEMP              0 ****  ****    0 ROOT
