@<TRIPOS>MOLECULE
M3S
   23    23     1     0     0
SMALL
bcc


@<TRIPOS>ATOM
      1 O12        -0.0940   -0.1930   -0.2520 o         1 M3S     -0.561000
      2 C11         1.1170   -0.0020   -0.1420 c         1 M3S      0.709100
      3 O1          1.7340   -0.3160    1.0590 os        1 M3S     -0.387200
      4 C2          1.0050   -0.1690    2.2370 ca        1 M3S      0.150100
      5 C7          0.7360   -1.3340    2.9820 ca        1 M3S     -0.114300
      6 C1          1.0970   -2.6680    2.4540 c3        1 M3S     -0.032800
      7 C6          0.1310   -1.1980    4.2340 ca        1 M3S     -0.142000
      8 C5         -0.2030    0.0620    4.7260 ca        1 M3S     -0.169000
      9 C4          0.0650    1.2030    3.9730 ca        1 M3S     -0.096000
     10 C3          0.6690    1.1070    2.7160 ca        1 M3S     -0.134600
     11 C8          0.9380    2.3710    1.9190 c         1 M3S      0.922200
     12 O10         0.9170    3.4750    2.5270 o         1 M3S     -0.830800
     13 O9          1.1680    2.2570    0.6770 o         1 M3S     -0.830800
     14 C13         2.1010    0.3790   -1.1940 c3        1 M3S     -0.147100
     15 H1          0.5320   -3.4780    2.9760 hc        1 M3S      0.031700
     16 H1A         0.8750   -2.7210    1.3580 hc        1 M3S      0.031700
     17 H1B         2.1920   -2.8530    2.5920 hc        1 M3S      0.031700
     18 H6         -0.0860   -2.0960    4.8290 ha        1 M3S      0.105000
     19 H5         -0.6790    0.1530    5.7120 ha        1 M3S      0.106000
     20 H4         -0.1820    2.2080    4.3510 ha        1 M3S      0.152000
     21 H13         1.7180    0.0710   -2.1940 hc        1 M3S      0.068367
     22 H13A        3.0920   -0.0930   -0.9990 hc        1 M3S      0.068367
     23 H13B        2.2120    1.4950   -1.1530 hc        1 M3S      0.068367
@<TRIPOS>BOND
     1    1    2 2   
     2    2    3 1   
     3    2   14 1   
     4    3    4 1   
     5    4    5 ar  
     6    4   10 ar  
     7    5    6 1   
     8    5    7 ar  
     9    6   15 1   
    10    6   16 1   
    11    6   17 1   
    12    7    8 ar  
    13    7   18 1   
    14    8    9 ar  
    15    8   19 1   
    16    9   10 ar  
    17    9   20 1   
    18   10   11 1   
    19   11   12 1   
    20   11   13 1   
    21   14   21 1   
    22   14   22 1   
    23   14   23 1   
@<TRIPOS>SUBSTRUCTURE
     1 M3S         1 TEMP              0 ****  ****    0 ROOT
