@<TRIPOS>MOLECULE
M3S
   23    23     1     0     0
SMALL
bcc


@<TRIPOS>ATOM
      1 O12        -0.1010   -0.1890   -0.2490 o         1 M3S     -0.561000
      2 C11         1.1100    0.0040   -0.1430 c         1 M3S      0.709100
      3 O1          1.7310   -0.3120    1.0550 os        1 M3S     -0.387200
      4 C2          1.0060   -0.1690    2.2360 ca        1 M3S      0.150100
      5 C7          0.7410   -1.3370    2.9790 ca        1 M3S     -0.114300
      6 C1          1.1020   -2.6690    2.4460 c3        1 M3S     -0.032800
      7 C6          0.1400   -1.2050    4.2340 ca        1 M3S     -0.142000
      8 C5         -0.1930    0.0530    4.7310 ca        1 M3S     -0.169000
      9 C4          0.0710    1.1970    3.9790 ca        1 M3S     -0.096000
     10 C3          0.6700    1.1050    2.7200 ca        1 M3S     -0.134600
     11 C8          0.9350    2.3710    1.9250 c         1 M3S      0.922200
     12 O10         0.9150    3.4740    2.5360 o         1 M3S     -0.830800
     13 O9          1.1610    2.2600    0.6820 o         1 M3S     -0.830800
     14 C13         2.0900    0.3890   -1.1960 c3        1 M3S     -0.147100
     15 H1          0.5410   -3.4810    2.9700 hc        1 M3S      0.031700
     16 H1A         0.8720   -2.7200    1.3520 hc        1 M3S      0.031700
     17 H1B         2.1980   -2.8520    2.5770 hc        1 M3S      0.031700
     18 H6         -0.0740   -2.1050    4.8270 ha        1 M3S      0.105000
     19 H5         -0.6660    0.1420    5.7180 ha        1 M3S      0.106000
     20 H4         -0.1770    2.2010    4.3600 ha        1 M3S      0.152000
     21 H13         1.7040    0.0820   -2.1960 hc        1 M3S      0.068367
     22 H13A        3.0820   -0.0830   -1.0060 hc        1 M3S      0.068367
     23 H13B        2.2000    1.5050   -1.1530 hc        1 M3S      0.068367
@<TRIPOS>BOND
     1    1    2 2   
     2    2    3 1   
     3    2   14 1   
     4    3    4 1   
     5    4    5 ar  
     6    4   10 ar  
     7    5    6 1   
     8    5    7 ar  
     9    6   15 1   
    10    6   16 1   
    11    6   17 1   
    12    7    8 ar  
    13    7   18 1   
    14    8    9 ar  
    15    8   19 1   
    16    9   10 ar  
    17    9   20 1   
    18   10   11 1   
    19   11   12 1   
    20   11   13 1   
    21   14   21 1   
    22   14   22 1   
    23   14   23 1   
@<TRIPOS>SUBSTRUCTURE
     1 M3S         1 TEMP              0 ****  ****    0 ROOT
