@<TRIPOS>MOLECULE
M3S
   23    23     1     0     0
SMALL
bcc


@<TRIPOS>ATOM
      1 O12        -1.9820   -0.3250    1.5860 o         1 M3S     -0.561000
      2 C11        -2.1820   -0.0490    0.4040 c         1 M3S      0.709100
      3 O1         -1.2980   -0.5270   -0.5510 os        1 M3S     -0.387200
      4 C2          0.0420   -0.6730   -0.1990 ca        1 M3S      0.150100
      5 C7          0.5730   -1.9780   -0.2000 ca        1 M3S     -0.114300
      6 C1         -0.3010   -3.1490   -0.4300 c3        1 M3S     -0.032800
      7 C6          1.9450   -2.1380    0.0110 ca        1 M3S     -0.142000
      8 C5          2.7630   -1.0300    0.2230 ca        1 M3S     -0.169000
      9 C4          2.2190    0.2530    0.2270 ca        1 M3S     -0.096000
     10 C3          0.8510    0.4530    0.0190 ca        1 M3S     -0.134600
     11 C8          0.2910    1.8640    0.0390 c         1 M3S      0.922200
     12 O10         1.0970    2.8270   -0.0870 o         1 M3S     -0.830800
     13 O9         -0.9600    2.0090    0.1830 o         1 M3S     -0.830800
     14 C13        -3.3660    0.6130   -0.2120 c3        1 M3S     -0.147100
     15 H1         -0.5200   -3.2570   -1.5220 hc        1 M3S      0.031700
     16 H1A         0.1790   -4.0910   -0.0700 hc        1 M3S      0.031700
     17 H1B        -1.2750   -3.0130    0.1050 hc        1 M3S      0.031700
     18 H6          2.3770   -3.1480    0.0140 ha        1 M3S      0.105000
     19 H5          3.8400   -1.1700    0.3890 ha        1 M3S      0.106000
     20 H4          2.8520    1.1420    0.3830 ha        1 M3S      0.152000
     21 H13        -3.1270    1.7070   -0.2950 hc        1 M3S      0.068367
     22 H13A       -3.5630    0.2050   -1.2310 hc        1 M3S      0.068367
     23 H13B       -4.2580    0.4660    0.4400 hc        1 M3S      0.068367
@<TRIPOS>BOND
     1    1    2 2   
     2    2    3 1   
     3    2   14 1   
     4    3    4 1   
     5    4    5 ar  
     6    4   10 ar  
     7    5    6 1   
     8    5    7 ar  
     9    6   15 1   
    10    6   16 1   
    11    6   17 1   
    12    7    8 ar  
    13    7   18 1   
    14    8    9 ar  
    15    8   19 1   
    16    9   10 ar  
    17    9   20 1   
    18   10   11 1   
    19   11   12 1   
    20   11   13 1   
    21   14   21 1   
    22   14   22 1   
    23   14   23 1   
@<TRIPOS>SUBSTRUCTURE
     1 M3S         1 TEMP              0 ****  ****    0 ROOT
