@<TRIPOS>MOLECULE
M3T
   16    16     1     0     0
SMALL
bcc


@<TRIPOS>ATOM
      1 C7          0.0680   -0.0960    0.0290 c3        1 M3T     -0.055800
      2 C3          1.5490   -0.0800   -0.0070 ca        1 M3T     -0.058300
      3 C2          2.2790   -0.1520    1.1840 ca        1 M3T     -0.147000
      4 C1          3.6760   -0.1230    1.1640 ca        1 M3T      0.020900
      5 S1          4.6420   -0.2050    2.5570 sh        1 M3T     -0.255700
      6 C6          4.3470   -0.0220   -0.0620 ca        1 M3T     -0.123000
      7 C5          3.6230    0.0490   -1.2480 ca        1 M3T     -0.111000
      8 C4          2.2290    0.0200   -1.2250 ca        1 M3T     -0.138000
      9 H1         -0.3520   -0.4930   -0.9280 hc        1 M3T      0.045700
     10 H2         -0.3060   -0.7320    0.8690 hc        1 M3T      0.045700
     11 H3         -0.3200    0.9440    0.1770 hc        1 M3T      0.045700
     12 H4          1.7420   -0.2330    2.1410 ha        1 M3T      0.129000
     13 H5          3.7040   -0.2910    3.4840 hs        1 M3T      0.190800
     14 H6          5.4470    0.0010   -0.0810 ha        1 M3T      0.143000
     15 H7          4.1540    0.1280   -2.2080 ha        1 M3T      0.134000
     16 H8          1.6620    0.0750   -2.1660 ha        1 M3T      0.133000
@<TRIPOS>BOND
     1    1    2 1   
     2    1    9 1   
     3    1   10 1   
     4    1   11 1   
     5    2    3 ar  
     6    2    8 ar  
     7    3    4 ar  
     8    3   12 1   
     9    4    5 1   
    10    4    6 ar  
    11    5   13 1   
    12    6    7 ar  
    13    6   14 1   
    14    7    8 ar  
    15    7   15 1   
    16    8   16 1   
@<TRIPOS>SUBSTRUCTURE
     1 M3T         1 TEMP              0 ****  ****    0 ROOT
