@<TRIPOS>MOLECULE
M41
   68    70     1     0     0
SMALL
bcc


@<TRIPOS>ATOM
      1 C7         -4.7350    1.0600    0.0290 c3        1 M41     -0.249300
      2 S8         -3.2490    0.3080   -0.4630 s6        1 M41      1.448900
      3 C4         -5.8730    0.7320   -0.8630 ca        1 M41     -0.076300
      4 C5         -6.3900   -0.5700   -0.8950 ca        1 M41     -0.113500
      5 C6         -7.4780   -0.8710   -1.7120 ca        1 M41     -0.126500
      6 C1         -8.0610    0.1230   -2.4980 ca        1 M41     -0.120000
      7 C2         -7.5500    1.4200   -2.4690 ca        1 M41     -0.126500
      8 C33        -6.4610    1.7260   -1.6540 ca        1 M41     -0.113500
      9 O12        -3.4060   -1.0910   -0.3480 o         1 M41     -0.642800
     10 O13        -2.8530    0.8420   -1.7000 o         1 M41     -0.642800
     11 N9         -2.2280    0.8280    0.6850 n3        1 M41     -0.915100
     12 C10        -1.9180    0.0950    1.8800 c3        1 M41      0.187500
     13 C14        -2.2230    0.8580    3.1920 c3        1 M41     -0.066700
     14 C15        -1.7460    0.0420    4.3750 c3        1 M41     -0.102100
     15 C16        -1.6360    2.2510    3.2300 c3        1 M41     -0.102100
     16 C11        -0.4250   -0.3320    1.8510 c         1 M41      0.653100
     17 O22         0.4770    0.5310    1.9150 o         1 M41     -0.632100
     18 N17        -0.1110   -1.6590    1.6650 n         1 M41     -0.453800
     19 C18         1.2650   -2.1470    1.7040 c3        1 M41      0.032700
     20 C23         2.0070   -2.0140    0.3510 c         1 M41      0.652100
     21 O32         2.5530   -3.0050   -0.1760 o         1 M41     -0.623100
     22 C19         1.1920   -3.6290    2.1360 c3        1 M41     -0.087400
     23 C20        -0.2620   -4.0500    1.9610 c3        1 M41     -0.089400
     24 C21        -1.0640   -2.7500    1.7880 c3        1 M41      0.080000
     25 N24         2.0380   -0.7690   -0.2320 n         1 M41     -0.549900
     26 C25         2.7850   -0.5010   -1.4320 c3        1 M41      0.122300
     27 C26         4.1360    0.1240   -1.1910 ca        1 M41     -0.082300
     28 C27         5.3340   -0.5750   -1.3880 ca        1 M41     -0.056300
     29 C34         5.3610   -2.0210   -1.8010 c3        1 M41      0.184100
     30 N35         5.2290   -2.1960   -3.2290 n3        1 M41     -0.912800
     31 C28         6.5540    0.0820   -1.1800 ca        1 M41     -0.126000
     32 C29         6.5950    1.4090   -0.7660 ca        1 M41     -0.122000
     33 C30         5.3940    2.0950   -0.5580 ca        1 M41      0.015400
     34 CL3         5.4260    3.7180   -0.0470 cl        1 M41     -0.098400
     35 C31         4.1700    1.4590   -0.7680 ca        1 M41     -0.121000
     36 H7         -4.6180    2.1760    0.0740 h1        1 M41      0.110700
     37 H7A        -5.0130    0.7450    1.0730 h1        1 M41      0.110700
     38 H5         -5.9180   -1.3610   -0.2890 ha        1 M41      0.142000
     39 H6         -7.8740   -1.8970   -1.7360 ha        1 M41      0.135500
     40 H1         -8.9190   -0.1170   -3.1420 ha        1 M41      0.134000
     41 H2         -8.0040    2.2050   -3.0920 ha        1 M41      0.135500
     42 H33        -6.0610    2.7510   -1.6380 ha        1 M41      0.142000
     43 HN9        -1.6940    1.6610    0.5880 hn        1 M41      0.463800
     44 H10        -2.5810   -0.8270    1.8890 h1        1 M41      0.081700
     45 H14        -3.3470    0.9490    3.2550 hc        1 M41      0.046700
     46 H15        -0.6300   -0.0190    4.3850 hc        1 M41      0.045867
     47 H15A       -2.0810    0.5200    5.3270 hc        1 M41      0.045867
     48 H15B       -2.1620   -0.9940    4.3340 hc        1 M41      0.045867
     49 H16        -2.1550    2.9230    2.5060 hc        1 M41      0.045867
     50 H16A       -1.7580    2.6850    4.2530 hc        1 M41      0.045867
     51 H16B       -0.5460    2.2290    2.9810 hc        1 M41      0.045867
     52 H18         1.8570   -1.5410    2.4520 h1        1 M41      0.083700
     53 H19         1.8760   -4.2610    1.5170 hc        1 M41      0.074200
     54 H19A        1.5060   -3.7160    3.2060 hc        1 M41      0.074200
     55 H20        -0.3800   -4.6960    1.0570 hc        1 M41      0.060200
     56 H20A       -0.6300   -4.6210    2.8470 hc        1 M41      0.060200
     57 H21        -1.7270   -2.5880    2.6840 h1        1 M41      0.059700
     58 H21A       -1.7120   -2.7870    0.8660 h1        1 M41      0.059700
     59 HN24        1.7600    0.0210    0.3090 hn        1 M41      0.331500
     60 H25         2.8900   -1.4580   -2.0210 h1        1 M41      0.082700
     61 H25A        2.1760    0.2200   -2.0550 h1        1 M41      0.082700
     62 H34         6.3180   -2.4760   -1.3990 h1        1 M41      0.050200
     63 H34A        4.5060   -2.5700   -1.3020 h1        1 M41      0.050200
     64 HN35        5.9530   -1.7130   -3.7210 hn        1 M41      0.350800
     65 HN3A        5.2590   -3.1690   -3.4610 hn        1 M41      0.350800
     66 H28         7.4980   -0.4620   -1.3420 ha        1 M41      0.134000
     67 H29         7.5600    1.9110   -0.6040 ha        1 M41      0.146000
     68 H31         3.2270    2.0040   -0.6080 ha        1 M41      0.147000
@<TRIPOS>BOND
     1    1    2 1   
     2    1    3 1   
     3    1   36 1   
     4    1   37 1   
     5    2    9 2   
     6    2   10 2   
     7    2   11 1   
     8    3    4 ar  
     9    3    8 ar  
    10    4    5 ar  
    11    4   38 1   
    12    5    6 ar  
    13    5   39 1   
    14    6    7 ar  
    15    6   40 1   
    16    7    8 ar  
    17    7   41 1   
    18    8   42 1   
    19   11   12 1   
    20   11   43 1   
    21   12   13 1   
    22   12   16 1   
    23   12   44 1   
    24   13   14 1   
    25   13   15 1   
    26   13   45 1   
    27   14   46 1   
    28   14   47 1   
    29   14   48 1   
    30   15   49 1   
    31   15   50 1   
    32   15   51 1   
    33   16   17 2   
    34   16   18 1   
    35   18   19 1   
    36   18   24 1   
    37   19   20 1   
    38   19   22 1   
    39   19   52 1   
    40   20   21 2   
    41   20   25 1   
    42   22   23 1   
    43   22   53 1   
    44   22   54 1   
    45   23   24 1   
    46   23   55 1   
    47   23   56 1   
    48   24   57 1   
    49   24   58 1   
    50   25   26 1   
    51   25   59 1   
    52   26   27 1   
    53   26   60 1   
    54   26   61 1   
    55   27   28 ar  
    56   27   35 ar  
    57   28   29 1   
    58   28   31 ar  
    59   29   30 1   
    60   29   62 1   
    61   29   63 1   
    62   30   64 1   
    63   30   65 1   
    64   31   32 ar  
    65   31   66 1   
    66   32   33 ar  
    67   32   67 1   
    68   33   34 1   
    69   33   35 ar  
    70   35   68 1   
@<TRIPOS>SUBSTRUCTURE
     1 M41         1 TEMP              0 ****  ****    0 ROOT
