@<TRIPOS>MOLECULE
M42
   24    26     1     0     0
SMALL
bcc


@<TRIPOS>ATOM
      1 C1          0.1270    2.0840   -0.0640 ca        1 M42     -0.071000
      2 C2         -0.6880    0.9410   -0.0340 ca        1 M42     -0.131800
      3 C3         -0.1060   -0.3710   -0.0580 ca        1 M42      0.125600
      4 C4          1.2930   -0.4110   -0.1120 ca        1 M42     -0.024900
      5 C5          2.0790    0.7540   -0.1400 ca        1 M42      0.111100
      6 C6          1.5200    2.0240   -0.1170 ca        1 M42     -0.149000
      7 C7         -2.1370    1.0240    0.0220 cc        1 M42      0.027600
      8 C8         -2.8840   -0.1060    0.0490 cd        1 M42     -0.239200
      9 C9         -2.2830   -1.4450    0.0250 c         1 M42      0.697700
     10 N10        -0.8840   -1.5140   -0.0290 n         1 M42     -0.438100
     11 O11         3.4220    0.4010   -0.1920 os        1 M42     -0.329900
     12 C12         3.4760   -1.0470   -0.1960 c3        1 M42      0.324200
     13 O13         2.1170   -1.5380   -0.1440 os        1 M42     -0.336900
     14 C14        -2.7800    2.3610    0.0480 c3        1 M42     -0.071900
     15 O15        -2.9300   -2.5080    0.0480 o         1 M42     -0.626500
     16 H1         -0.3510    3.0770   -0.0440 ha        1 M42      0.144000
     17 H6          2.1410    2.9280   -0.1400 ha        1 M42      0.161000
     18 H8         -3.9830   -0.0920    0.0910 ha        1 M42      0.165000
     19 HN10       -0.4340   -2.4030   -0.0480 hn        1 M42      0.346500
     20 H12         3.9420   -1.3820   -1.1550 h2        1 M42      0.075700
     21 H12A        4.0140   -1.3840    0.7230 h2        1 M42      0.075700
     22 H14        -2.5080    2.9380   -0.8710 hc        1 M42      0.055033
     23 H14A       -3.8940    2.2710    0.0910 hc        1 M42      0.055033
     24 H14B       -2.4390    2.9360    0.9450 hc        1 M42      0.055033
@<TRIPOS>BOND
     1    1    2 ar  
     2    1    6 ar  
     3    1   16 1   
     4    2    3 ar  
     5    2    7 1   
     6    3    4 ar  
     7    3   10 1   
     8    4    5 ar  
     9    4   13 1   
    10    5    6 ar  
    11    5   11 1   
    12    6   17 1   
    13    7    8 2   
    14    7   14 1   
    15    8    9 1   
    16    8   18 1   
    17    9   10 1   
    18    9   15 2   
    19   10   19 1   
    20   11   12 1   
    21   12   13 1   
    22   12   20 1   
    23   12   21 1   
    24   14   22 1   
    25   14   23 1   
    26   14   24 1   
@<TRIPOS>SUBSTRUCTURE
     1 M42         1 TEMP              0 ****  ****    0 ROOT
