@<TRIPOS>MOLECULE
M42
   24    26     1     0     0
SMALL
bcc


@<TRIPOS>ATOM
      1 C1         -0.0020    0.0270   -0.0040 ca        1 M42     -0.071000
      2 C2          1.4010    0.0320   -0.0230 ca        1 M42     -0.131800
      3 C3          2.1470    0.1030    1.2020 ca        1 M42      0.125600
      4 C4          1.3830    0.1640    2.3740 ca        1 M42     -0.024900
      5 C5         -0.0230    0.1570    2.3560 ca        1 M42      0.111100
      6 C6         -0.7480    0.0880    1.1740 ca        1 M42     -0.149000
      7 C7          2.1590   -0.0330   -1.2600 cc        1 M42      0.027600
      8 C8          3.5140   -0.0250   -1.2310 cd        1 M42     -0.239200
      9 C9          4.2710    0.0470    0.0250 c         1 M42      0.697700
     10 N10         3.5300    0.1100    1.2130 n         1 M42     -0.438100
     11 O11        -0.4990    0.2260    3.6590 os        1 M42     -0.329900
     12 C12         0.6600    0.2800    4.5270 c3        1 M42      0.324200
     13 O13         1.8390    0.2390    3.6910 os        1 M42     -0.336900
     14 C14         1.4280   -0.1070   -2.5480 c3        1 M42     -0.071900
     15 O15         5.5140    0.0570    0.0980 o         1 M42     -0.626500
     16 H1         -0.5460   -0.0290   -0.9610 ha        1 M42      0.144000
     17 H6         -1.8450    0.0830    1.1700 ha        1 M42      0.161000
     18 H8          4.1300   -0.0730   -2.1410 ha        1 M42      0.165000
     19 HN10        4.0040    0.1600    2.0890 hn        1 M42      0.346500
     20 H12         0.6460    1.2510    5.0800 h2        1 M42      0.075700
     21 H12A        0.6540   -0.6260    5.1830 h2        1 M42      0.075700
     22 H14         0.7750    0.7930   -2.6750 hc        1 M42      0.055033
     23 H14A        0.7840   -1.0210   -2.5750 hc        1 M42      0.055033
     24 H14B        2.1370   -0.1510   -3.4120 hc        1 M42      0.055033
@<TRIPOS>BOND
     1    1    2 ar  
     2    1    6 ar  
     3    1   16 1   
     4    2    3 ar  
     5    2    7 1   
     6    3    4 ar  
     7    3   10 1   
     8    4    5 ar  
     9    4   13 1   
    10    5    6 ar  
    11    5   11 1   
    12    6   17 1   
    13    7    8 2   
    14    7   14 1   
    15    8    9 1   
    16    8   18 1   
    17    9   10 1   
    18    9   15 2   
    19   10   19 1   
    20   11   12 1   
    21   12   13 1   
    22   12   20 1   
    23   12   21 1   
    24   14   22 1   
    25   14   23 1   
    26   14   24 1   
@<TRIPOS>SUBSTRUCTURE
     1 M42         1 TEMP              0 ****  ****    0 ROOT
