@<TRIPOS>MOLECULE
M42
   24    26     1     0     0
SMALL
bcc


@<TRIPOS>ATOM
      1 C1         -0.0020    0.0330   -0.0050 ca        1 M42     -0.071000
      2 C2          1.4020    0.0320   -0.0230 ca        1 M42     -0.131800
      3 C3          2.1470    0.1010    1.2020 ca        1 M42      0.125600
      4 C4          1.3820    0.1660    2.3740 ca        1 M42     -0.024900
      5 C5         -0.0240    0.1650    2.3550 ca        1 M42      0.111100
      6 C6         -0.7480    0.0990    1.1730 ca        1 M42     -0.149000
      7 C7          2.1600   -0.0370   -1.2590 cc        1 M42      0.027600
      8 C8          3.5150   -0.0360   -1.2290 cd        1 M42     -0.239200
      9 C9          4.2720    0.0350    0.0270 c         1 M42      0.697700
     10 N10         3.5300    0.1010    1.2140 n         1 M42     -0.438100
     11 O11        -0.5000    0.2380    3.6580 os        1 M42     -0.329900
     12 C12         0.6580    0.2870    4.5270 c3        1 M42      0.324200
     13 O13         1.8370    0.2400    3.6910 os        1 M42     -0.336900
     14 C14         1.4300   -0.1100   -2.5480 c3        1 M42     -0.071900
     15 O15         5.5150    0.0390    0.1010 o         1 M42     -0.626500
     16 H1         -0.5450   -0.0210   -0.9630 ha        1 M42      0.144000
     17 H6         -1.8450    0.0990    1.1670 ha        1 M42      0.161000
     18 H8          4.1320   -0.0870   -2.1390 ha        1 M42      0.165000
     19 HN10        4.0030    0.1500    2.0910 hn        1 M42      0.346500
     20 H12         0.6480   -0.6170    5.1830 h2        1 M42      0.075700
     21 H12A        0.6480    1.2590    5.0780 h2        1 M42      0.075700
     22 H14         2.1390   -0.1580   -3.4110 hc        1 M42      0.055033
     23 H14A        0.7810    0.7930   -2.6760 hc        1 M42      0.055033
     24 H14B        0.7810   -1.0210   -2.5740 hc        1 M42      0.055033
@<TRIPOS>BOND
     1    1    2 ar  
     2    1    6 ar  
     3    1   16 1   
     4    2    3 ar  
     5    2    7 1   
     6    3    4 ar  
     7    3   10 1   
     8    4    5 ar  
     9    4   13 1   
    10    5    6 ar  
    11    5   11 1   
    12    6   17 1   
    13    7    8 2   
    14    7   14 1   
    15    8    9 1   
    16    8   18 1   
    17    9   10 1   
    18    9   15 2   
    19   10   19 1   
    20   11   12 1   
    21   12   13 1   
    22   12   20 1   
    23   12   21 1   
    24   14   22 1   
    25   14   23 1   
    26   14   24 1   
@<TRIPOS>SUBSTRUCTURE
     1 M42         1 TEMP              0 ****  ****    0 ROOT
