@<TRIPOS>MOLECULE
M42
   24    26     1     0     0
SMALL
bcc


@<TRIPOS>ATOM
      1 C1         -0.0020    0.0350   -0.0050 ca        1 M42     -0.071000
      2 C2          1.4020    0.0350   -0.0230 ca        1 M42     -0.131800
      3 C3          2.1470    0.0990    1.2020 ca        1 M42      0.125600
      4 C4          1.3820    0.1600    2.3740 ca        1 M42     -0.024900
      5 C5         -0.0240    0.1590    2.3560 ca        1 M42      0.111100
      6 C6         -0.7480    0.0970    1.1730 ca        1 M42     -0.149000
      7 C7          2.1600   -0.0300   -1.2600 cc        1 M42      0.027600
      8 C8          3.5150   -0.0280   -1.2300 cd        1 M42     -0.239200
      9 C9          4.2720    0.0380    0.0260 c         1 M42      0.697700
     10 N10         3.5300    0.1000    1.2140 ns        1 M42     -0.438100
     11 O11        -0.5000    0.2280    3.6590 os        1 M42     -0.329900
     12 C12         0.6590    0.2740    4.5270 c3        1 M42      0.324200
     13 O13         1.8380    0.2300    3.6910 os        1 M42     -0.336900
     14 C14         1.4290   -0.0980   -2.5490 c3        1 M42     -0.071900
     15 O15         5.5150    0.0420    0.1000 o         1 M42     -0.626500
     16 H1         -0.5450   -0.0150   -0.9630 ha        1 M42      0.144000
     17 H6         -1.8450    0.0970    1.1680 ha        1 M42      0.161000
     18 H8          4.1310   -0.0760   -2.1400 ha        1 M42      0.165000
     19 HN10        4.0040    0.1460    2.0900 hn        1 M42      0.346500
     20 H12         0.6490   -0.6330    5.1810 h2        1 M42      0.075700
     21 H12A        0.6480    1.2440    5.0820 h2        1 M42      0.075700
     22 H14         0.7800    0.8050   -2.6730 hc        1 M42      0.055033
     23 H14A        2.1380   -0.1430   -3.4120 hc        1 M42      0.055033
     24 H14B        0.7800   -1.0090   -2.5780 hc        1 M42      0.055033
@<TRIPOS>BOND
     1    1    2 ar  
     2    1    6 ar  
     3    1   16 1   
     4    2    3 ar  
     5    2    7 1   
     6    3    4 ar  
     7    3   10 1   
     8    4    5 ar  
     9    4   13 1   
    10    5    6 ar  
    11    5   11 1   
    12    6   17 1   
    13    7    8 2   
    14    7   14 1   
    15    8    9 1   
    16    8   18 1   
    17    9   10 1   
    18    9   15 2   
    19   10   19 1   
    20   11   12 1   
    21   12   13 1   
    22   12   20 1   
    23   12   21 1   
    24   14   22 1   
    25   14   23 1   
    26   14   24 1   
@<TRIPOS>SUBSTRUCTURE
     1 M42         1 TEMP              0 ****  ****    0 ROOT
