@<TRIPOS>MOLECULE
M44
   29    28     1     0     0
SMALL
bcc


@<TRIPOS>ATOM
      1 P          -0.0030    0.1030    0.1870 p5        1 M44      1.149600
      2 C1          2.2320   -1.2630    0.5680 c3        1 M44      0.131500
      3 N1          1.7160   -0.1060   -0.2500 ny        1 M44     -0.766100
      4 O1          0.0590    0.9080    1.4090 o         1 M44     -0.642500
      5 C2          2.8820   -2.3290   -0.3070 c3        1 M44     -0.133100
      6 N2         -0.5410    1.2780   -1.0460 ny        1 M44     -0.766100
      7 O2         -0.6410   -1.1580   -0.1970 o         1 M44     -0.642500
      8 C3          3.2160   -0.8110    1.6420 c3        1 M44     -0.133100
      9 C4         -2.0430    1.3570   -0.9430 c3        1 M44      0.131500
     10 C5         -2.5090    2.6950   -0.3780 c3        1 M44     -0.133100
     11 C6         -2.7170    1.1050   -2.2870 c3        1 M44     -0.133100
     12 H1          1.3270   -1.7310    1.0700 hx        1 M44      0.113700
     13 HN1         1.8750   -0.3220   -1.2300 hn        1 M44      0.443300
     14 H2          3.7930   -1.9350   -0.8200 hc        1 M44      0.078033
     15 H2A         3.1910   -3.1820    0.3490 hc        1 M44      0.078033
     16 H2B         2.1670   -2.7240   -1.0690 hc        1 M44      0.078033
     17 HN2        -0.3070    1.0190   -2.0000 hn        1 M44      0.443300
     18 H3          3.4930   -1.7040    2.2580 hc        1 M44      0.078033
     19 H3A         4.1480   -0.3970    1.1870 hc        1 M44      0.078033
     20 H3B         2.7680   -0.0480    2.3250 hc        1 M44      0.078033
     21 H4         -2.3610    0.5270   -0.2340 hx        1 M44      0.113700
     22 H5         -2.0580    2.9050    0.6240 hc        1 M44      0.078033
     23 H5A        -3.6200    2.6520   -0.2530 hc        1 M44      0.078033
     24 H5B        -2.2670    3.5330   -1.0740 hc        1 M44      0.078033
     25 H6         -2.4570    1.8990   -3.0280 hc        1 M44      0.078033
     26 H6A        -2.4420    0.1040   -2.7000 hc        1 M44      0.078033
     27 H6B        -3.8260    1.1200   -2.1320 hc        1 M44      0.078033
     28 H12         2.2720    0.7160   -0.0150 hn        1 M44      0.443300
     29 H22        -0.1670    2.2110   -0.8730 hn        1 M44      0.443300
@<TRIPOS>BOND
     1    1    3 1   
     2    1    4 1   
     3    1    6 1   
     4    1    7 1   
     5    2    3 1   
     6    2    5 1   
     7    2    8 1   
     8    2   12 1   
     9    3   13 1   
    10    3   28 1   
    11    5   14 1   
    12    5   15 1   
    13    5   16 1   
    14    6    9 1   
    15    6   17 1   
    16    6   29 1   
    17    8   18 1   
    18    8   19 1   
    19    8   20 1   
    20    9   10 1   
    21    9   11 1   
    22    9   21 1   
    23   10   22 1   
    24   10   23 1   
    25   10   24 1   
    26   11   25 1   
    27   11   26 1   
    28   11   27 1   
@<TRIPOS>SUBSTRUCTURE
     1 M44         1 TEMP              0 ****  ****    0 ROOT
