@<TRIPOS>MOLECULE
M44
   30    29     1     0     0
SMALL
bcc


@<TRIPOS>ATOM
      1 P           0.0970    0.4000    0.4170 p5        1 M44      1.432300
      2 C1          2.1110   -1.3420    0.5030 c3        1 M44      0.134500
      3 N1          1.7060    0.0600   -0.0220 n4        1 M44     -0.850100
      4 O1          0.3050    1.4250    1.6030 oh        1 M44     -0.761400
      5 C2          2.5490   -2.2350   -0.6460 c3        1 M44     -0.151100
      6 N2         -0.5100    1.4170   -0.8060 n4        1 M44     -0.850100
      7 O2         -0.7110   -0.7740    0.6670 o         1 M44     -0.652300
      8 C3          3.2210   -1.2270    1.5340 c3        1 M44     -0.151100
      9 C4         -2.0370    1.1980   -0.9650 c3        1 M44      0.134500
     10 C5         -2.7990    2.4590   -0.5960 c3        1 M44     -0.151100
     11 C6         -2.3700    0.7780   -2.3860 c3        1 M44     -0.151100
     12 H1          1.1830   -1.7900    0.9830 hx        1 M44      0.143700
     13 HN1         1.9200    0.0520   -1.0250 hn        1 M44      0.490800
     14 HO1        -0.0920    1.2820    2.4780 ho        1 M44      0.576000
     15 H2          2.7780   -3.2510   -0.2210 hc        1 M44      0.099200
     16 H2A         3.4810   -1.8580   -1.1370 hc        1 M44      0.099200
     17 H2B         1.7460   -2.3680   -1.4100 hc        1 M44      0.099200
     18 HN2        -0.3930    2.4180   -0.5790 hn        1 M44      0.490800
     19 H3          4.1730   -0.8540    1.0810 hc        1 M44      0.099200
     20 H3A         3.4200   -2.2570    1.9380 hc        1 M44      0.099200
     21 H3B         2.9400   -0.5770    2.3980 hc        1 M44      0.099200
     22 H4         -2.3200    0.3550   -0.2560 hx        1 M44      0.143700
     23 H5         -2.5830    2.8050    0.4440 hc        1 M44      0.099200
     24 H5A        -2.5990    3.2930   -1.3140 hc        1 M44      0.099200
     25 H5B        -3.8970    2.2230   -0.6500 hc        1 M44      0.099200
     26 H6         -1.8510   -0.1660   -2.6820 hc        1 M44      0.099200
     27 H6A        -2.1420    1.5840   -3.1260 hc        1 M44      0.099200
     28 H6B        -3.4760    0.5780   -2.4340 hc        1 M44      0.099200
     29 H12         2.3770    0.7230    0.4010 hn        1 M44      0.490800
     30 H22        -0.1150    1.2980   -1.7450 hn        1 M44      0.490800
@<TRIPOS>BOND
     1    1    3 1   
     2    1    4 1   
     3    1    6 1   
     4    1    7 2   
     5    2    3 1   
     6    2    5 1   
     7    2    8 1   
     8    2   12 1   
     9    3   13 1   
    10    3   29 1   
    11    4   14 1   
    12    5   15 1   
    13    5   16 1   
    14    5   17 1   
    15    6    9 1   
    16    6   18 1   
    17    6   30 1   
    18    8   19 1   
    19    8   20 1   
    20    8   21 1   
    21    9   10 1   
    22    9   11 1   
    23    9   22 1   
    24   10   23 1   
    25   10   24 1   
    26   10   25 1   
    27   11   26 1   
    28   11   27 1   
    29   11   28 1   
@<TRIPOS>SUBSTRUCTURE
     1 M44         1 TEMP              0 ****  ****    0 ROOT
