@<TRIPOS>MOLECULE
M44
   29    28     1     0     0
SMALL
bcc


@<TRIPOS>ATOM
      1 P          -0.0040    0.0970    0.1840 p5        1 M44      1.149600
      2 C1          2.2320   -1.2660    0.5640 c3        1 M44      0.132000
      3 N1          1.7130   -0.1140   -0.2600 n4        1 M44     -0.766100
      4 O1          0.0640    0.8880    1.4150 o         1 M44     -0.642500
      5 C2          2.8730   -2.3420   -0.3050 c3        1 M44     -0.133100
      6 N2         -0.5390    1.2880   -1.0330 n4        1 M44     -0.766100
      7 O2         -0.6450   -1.1580   -0.2120 o         1 M44     -0.642500
      8 C3          3.2250   -0.8070    1.6270 c3        1 M44     -0.133100
      9 C4         -2.0430    1.3580   -0.9410 c3        1 M44      0.132000
     10 C5         -2.5200    2.6830   -0.3550 c3        1 M44     -0.133100
     11 C6         -2.7050    1.1290   -2.2950 c3        1 M44     -0.133100
     12 H1          1.3290   -1.7260    1.0780 hx        1 M44      0.113700
     13 HN1         1.8650   -0.3390   -1.2400 hn        1 M44      0.442800
     14 H2          3.7810   -1.9560   -0.8290 hc        1 M44      0.078117
     15 H2A         3.1830   -3.1900    0.3560 hc        1 M44      0.078117
     16 H2B         2.1500   -2.7420   -1.0580 hc        1 M44      0.078117
     17 HN2        -0.1710    2.2200   -0.8400 hn        1 M44      0.442800
     18 H3          2.7830   -0.0370    2.3070 hc        1 M44      0.078117
     19 H3A         4.1540   -0.3980    1.1620 hc        1 M44      0.078117
     20 H3B         3.5060   -1.6950    2.2490 hc        1 M44      0.078117
     21 H4         -2.3620    0.5130   -0.2510 hx        1 M44      0.113700
     22 H5         -2.0780    2.8780    0.6530 hc        1 M44      0.078117
     23 H5A        -2.2770    3.5350   -1.0340 hc        1 M44      0.078117
     24 H5B        -3.6320    2.6320   -0.2390 hc        1 M44      0.078117
     25 H6         -2.4420    1.9380   -3.0190 hc        1 M44      0.078117
     26 H6A        -2.4210    0.1370   -2.7250 hc        1 M44      0.078117
     27 H6B        -3.8150    1.1350   -2.1500 hc        1 M44      0.078117
     28 H12         2.2720    0.7080   -0.0350 hn        1 M44      0.442800
     29 H22        -0.2970    1.0480   -1.9900 hn        1 M44      0.442800
@<TRIPOS>BOND
     1    1    3 1   
     2    1    4 1   
     3    1    6 1   
     4    1    7 1   
     5    2    3 1   
     6    2    5 1   
     7    2    8 1   
     8    2   12 1   
     9    3   13 1   
    10    3   28 1   
    11    5   14 1   
    12    5   15 1   
    13    5   16 1   
    14    6    9 1   
    15    6   17 1   
    16    6   29 1   
    17    8   18 1   
    18    8   19 1   
    19    8   20 1   
    20    9   10 1   
    21    9   11 1   
    22    9   21 1   
    23   10   22 1   
    24   10   23 1   
    25   10   24 1   
    26   11   25 1   
    27   11   26 1   
    28   11   27 1   
@<TRIPOS>SUBSTRUCTURE
     1 M44         1 TEMP              0 ****  ****    0 ROOT
