@<TRIPOS>MOLECULE
M44
   28    27     1     0     0
SMALL
bcc


@<TRIPOS>ATOM
      1 P          -0.0160    1.2270   -0.0660 p5        1 M44      1.664300
      2 C1         -2.2420   -0.1520    0.0030 c3        1 M44      0.218500
      3 N1         -1.2890    0.6700    0.6980 n3        1 M44     -0.993300
      4 O1         -0.0250    2.8390    0.2110 oh        1 M44     -0.797400
      5 C2         -2.3130   -1.5860    0.5420 c3        1 M44     -0.108600
      6 N2          1.2980    0.6940    0.6430 n3        1 M44     -0.993300
      7 O2         -0.0460    1.1120   -1.5380 o         1 M44     -0.870300
      8 C3         -3.6610    0.4260    0.0160 c3        1 M44     -0.108600
      9 C4          2.2360   -0.1100   -0.0930 c3        1 M44      0.218500
     10 C5          3.6430    0.4940   -0.1400 c3        1 M44     -0.108600
     11 C6          2.3570   -1.5420    0.4420 c3        1 M44     -0.108600
     12 H1         -1.8990   -0.2010   -1.0810 h1        1 M44      0.087700
     13 HN1        -1.5340    0.8810    1.6290 hn        1 M44      0.433800
     14 HO1        -0.0470    3.3600   -0.5880 ho        1 M44      0.473000
     15 H2         -3.0250   -2.1740   -0.0850 hc        1 M44      0.039200
     16 H2A        -1.3140   -2.0830    0.5040 hc        1 M44      0.039200
     17 H2B        -2.6740   -1.5960    1.5980 hc        1 M44      0.039200
     18 HN2         1.5790    0.9100    1.5630 hn        1 M44      0.433800
     19 H3         -3.6790    1.4520   -0.4220 hc        1 M44      0.039200
     20 H3A        -4.3270   -0.2310   -0.5930 hc        1 M44      0.039200
     21 H3B        -4.0610    0.4740    1.0560 hc        1 M44      0.039200
     22 H4          1.8490   -0.1660   -1.1610 h1        1 M44      0.087700
     23 H5          4.0870    0.5510    0.8820 hc        1 M44      0.039200
     24 H5A         4.2950   -0.1500   -0.7770 hc        1 M44      0.039200
     25 H5B         3.6240    1.5200   -0.5780 hc        1 M44      0.039200
     26 H6          1.3670   -2.0580    0.4460 hc        1 M44      0.039200
     27 H6A         3.0520   -2.1170   -0.2150 hc        1 M44      0.039200
     28 H6B         2.7630   -1.5450    1.4810 hc        1 M44      0.039200
@<TRIPOS>BOND
     1    1    3 1   
     2    1    4 1   
     3    1    6 1   
     4    1    7 2   
     5    2    3 1   
     6    2    5 1   
     7    2    8 1   
     8    2   12 1   
     9    3   13 1   
    10    4   14 1   
    11    5   15 1   
    12    5   16 1   
    13    5   17 1   
    14    6    9 1   
    15    6   18 1   
    16    8   19 1   
    17    8   20 1   
    18    8   21 1   
    19    9   10 1   
    20    9   11 1   
    21    9   22 1   
    22   10   23 1   
    23   10   24 1   
    24   10   25 1   
    25   11   26 1   
    26   11   27 1   
    27   11   28 1   
@<TRIPOS>SUBSTRUCTURE
     1 M44         1 TEMP              0 ****  ****    0 ROOT
