@<TRIPOS>MOLECULE
M46
   47    49     1     0     0
SMALL
bcc


@<TRIPOS>ATOM
      1 F23         0.1040   -0.0640    0.0910 f         1 M46     -0.127900
      2 C23         1.4520    0.0240    0.0260 ca        1 M46      0.139900
      3 C22         2.2130   -0.0920    1.2020 ca        1 M46     -0.170000
      4 C24         2.0860    0.2300   -1.2150 ca        1 M46     -0.147000
      5 C25         3.4730    0.3190   -1.2620 ca        1 M46     -0.094000
      6 C26         4.2340    0.2010   -0.0980 ca        1 M46     -0.135000
      7 C21         3.6060   -0.0050    1.1340 ca        1 M46     -0.084300
      8 C16         4.4120   -0.1130    2.3820 c3        1 M46     -0.026100
      9 C15         4.4420   -1.5510    2.8770 c3        1 M46     -0.110400
     10 C14         5.2280   -1.6180    4.1800 c3        1 M46      0.100800
     11 N13         5.2980   -3.0050    4.7310 ny        1 M46     -0.764000
     12 C12         6.0690   -3.0620    6.0110 c3        1 M46      0.099800
     13 C11         6.1530   -4.4780    6.5810 c3        1 M46     -0.050100
     14 C08         6.9850   -4.4430    7.8170 ca        1 M46     -0.104300
     15 C07         6.3500   -4.5060    9.0810 ca        1 M46     -0.160000
     16 C06         7.1070   -4.5010   10.2290 ca        1 M46     -0.064000
     17 C09         8.3570   -4.3720    7.7180 ca        1 M46     -0.175300
     18 C10         9.1720   -4.3560    8.8970 ca        1 M46      0.457600
     19 N01        10.5360   -4.2740    8.7600 nb        1 M46     -0.764000
     20 C05         8.5160   -4.4250   10.1640 ca        1 M46     -0.189300
     21 C04         9.3350   -4.4190   11.3330 ca        1 M46     -0.047000
     22 C03        10.6920   -4.3540   11.2170 ca        1 M46     -0.271300
     23 C02        11.2880   -4.2890    9.8860 ca        1 M46      0.698200
     24 N02        12.6640   -4.2840    9.7820 nv        1 M46     -0.961500
     25 H22         1.7030   -0.2360    2.1650 ha        1 M46      0.142000
     26 H24         1.4790    0.3240   -2.1280 ha        1 M46      0.164000
     27 H25         3.9750    0.4870   -2.2280 ha        1 M46      0.152000
     28 H26         5.3300    0.2810   -0.1530 ha        1 M46      0.138000
     29 H161        3.9640    0.5490    3.1730 hc        1 M46      0.062700
     30 H162        5.4600    0.2440    2.1980 hc        1 M46      0.062700
     31 H151        4.9160   -2.2020    2.0960 hc        1 M46      0.071200
     32 H152        3.3890   -1.9090    3.0310 hc        1 M46      0.071200
     33 H141        4.7450   -0.9610    4.9590 hx        1 M46      0.107200
     34 H142        6.2850   -1.2590    4.0150 hx        1 M46      0.107200
     35 H13         5.7410   -3.6220    4.0410 hn        1 M46      0.448800
     36 H121        5.5640   -2.3780    6.7520 hx        1 M46      0.111700
     37 H122        7.1080   -2.6700    5.8100 hx        1 M46      0.111700
     38 H111        6.6200   -5.1730    5.8320 hc        1 M46      0.069700
     39 H112        5.1250   -4.8650    6.8170 hc        1 M46      0.069700
     40 H07         5.2540   -4.5760    9.1370 ha        1 M46      0.133000
     41 H09         8.8510   -4.3430    6.7340 ha        1 M46      0.141000
     42 H06         6.6230   -4.5590   11.2180 ha        1 M46      0.146000
     43 H04         8.8510   -4.4710   12.3220 ha        1 M46      0.150000
     44 H03        11.3420   -4.3560   12.1040 ha        1 M46      0.154000
     45 H021       13.0950   -4.1490    8.9010 hn        1 M46      0.440300
     46 H022       13.1920   -4.1070   10.6000 hn        1 M46      0.440300
     47 H132        4.3460   -3.3540    4.8930 hn        1 M46      0.448800
@<TRIPOS>BOND
     1    1    2 1   
     2    2    3 ar  
     3    2    4 ar  
     4    3    7 ar  
     5    3   25 1   
     6    4    5 ar  
     7    4   26 1   
     8    5    6 ar  
     9    5   27 1   
    10    6    7 ar  
    11    6   28 1   
    12    7    8 1   
    13    8    9 1   
    14    8   29 1   
    15    8   30 1   
    16    9   10 1   
    17    9   31 1   
    18    9   32 1   
    19   10   11 1   
    20   10   33 1   
    21   10   34 1   
    22   11   12 1   
    23   11   35 1   
    24   11   47 1   
    25   12   13 1   
    26   12   36 1   
    27   12   37 1   
    28   13   14 1   
    29   13   38 1   
    30   13   39 1   
    31   14   15 ar  
    32   14   17 ar  
    33   15   16 ar  
    34   15   40 1   
    35   16   20 ar  
    36   16   42 1   
    37   17   18 ar  
    38   17   41 1   
    39   18   19 ar  
    40   18   20 ar  
    41   19   23 ar  
    42   20   21 ar  
    43   21   22 ar  
    44   21   43 1   
    45   22   23 ar  
    46   22   44 1   
    47   23   24 1   
    48   24   45 1   
    49   24   46 1   
@<TRIPOS>SUBSTRUCTURE
     1 M46         1 TEMP              0 ****  ****    0 ROOT
