@<TRIPOS>MOLECULE
M46
   48    50     1     0     0
SMALL
bcc


@<TRIPOS>ATOM
      1 F23        -0.1720   -0.8700    0.1170 f         1 M46     -0.123900
      2 C23         1.1070   -0.4340    0.0550 ca        1 M46      0.143900
      3 C22         1.9070   -0.4620    1.2100 ca        1 M46     -0.173000
      4 C24         1.6310    0.0450   -1.1620 ca        1 M46     -0.141000
      5 C25         2.9480    0.4890   -1.2060 ca        1 M46     -0.091000
      6 C26         3.7490    0.4590   -0.0630 ca        1 M46     -0.133000
      7 C21         3.2300   -0.0170    1.1450 ca        1 M46     -0.091300
      8 C16         4.0700   -0.0290    2.3740 c3        1 M46     -0.023100
      9 C15         4.4520   -1.4560    2.7430 c3        1 M46     -0.112400
     10 C14         5.2400   -1.4430    4.0460 c3        1 M46      0.103800
     11 N13         5.6370   -2.8220    4.4790 n4        1 M46     -0.765000
     12 C12         6.3860   -2.8110    5.7690 c3        1 M46      0.102800
     13 C11         6.7880   -4.2130    6.2270 c3        1 M46     -0.065100
     14 C08         7.4480   -4.1580    7.5640 ca        1 M46     -0.078300
     15 C07         6.6670   -3.8250    8.7060 ca        1 M46     -0.101000
     16 C06         7.2220   -3.8240    9.9600 ca        1 M46     -0.085000
     17 C09         8.7780   -4.4850    7.7000 ca        1 M46     -0.136300
     18 C10         9.3860   -4.5000    9.0010 ca        1 M46      0.411600
     19 N01        10.7110   -4.8490    9.1220 nb        1 M46     -0.627000
     20 C05         8.5890   -4.1620   10.1420 ca        1 M46     -0.113300
     21 C04         9.1970   -4.1910   11.4270 ca        1 M46     -0.023000
     22 C03        10.5220   -4.5430   11.5540 ca        1 M46     -0.231300
     23 C02        11.2320   -4.8670   10.3520 ca        1 M46      0.480200
     24 N02        12.6570   -5.2580   10.4780 n4        1 M46     -0.826300
     25 H22         1.4760   -0.8200    2.1560 ha        1 M46      0.139000
     26 H24         0.9930    0.0680   -2.0590 ha        1 M46      0.169000
     27 H25         3.3620    0.8730   -2.1530 ha        1 M46      0.156000
     28 H26         4.7860    0.8230   -0.1150 ha        1 M46      0.138000
     29 H161        4.9990    0.5810    2.2150 hc        1 M46      0.063200
     30 H162        3.4980    0.4390    3.2210 hc        1 M46      0.063200
     31 H151        3.5180   -2.0690    2.8490 hc        1 M46      0.075700
     32 H152        5.0650   -1.9000    1.9140 hc        1 M46      0.075700
     33 H141        4.6190   -0.9890    4.8710 hx        1 M46      0.108200
     34 H142        6.1820   -0.8350    3.9260 hx        1 M46      0.108200
     35 H13         4.7920   -3.3980    4.5760 hn        1 M46      0.453800
     36 H121        5.7290   -2.3250    6.5470 hx        1 M46      0.111700
     37 H122        7.3060   -2.1720    5.6300 hx        1 M46      0.111700
     38 H111        7.4810   -4.6800    5.4750 hc        1 M46      0.084200
     39 H112        5.8800   -4.8740    6.3060 hc        1 M46      0.084200
     40 H07         5.5990   -3.5840    8.5750 ha        1 M46      0.154000
     41 H09         9.3920   -4.7540    6.8240 ha        1 M46      0.170000
     42 H06         6.6150   -3.5690   10.8460 ha        1 M46      0.175000
     43 H04         8.5970   -3.9310   12.3180 ha        1 M46      0.189000
     44 H03        11.0110   -4.5750   12.5400 ha        1 M46      0.181000
     45 H021       12.7150   -6.1010   11.0640 hn        1 M46      0.478800
     46 H022       13.1710   -4.4910   10.9280 hn        1 M46      0.478800
     47 H132        6.2190   -3.2490    3.7470 hn        1 M46      0.453800
     48 H023       13.0770   -5.4560    9.5590 hn        1 M46      0.478800
@<TRIPOS>BOND
     1    1    2 1   
     2    2    3 ar  
     3    2    4 ar  
     4    3    7 ar  
     5    3   25 1   
     6    4    5 ar  
     7    4   26 1   
     8    5    6 ar  
     9    5   27 1   
    10    6    7 ar  
    11    6   28 1   
    12    7    8 1   
    13    8    9 1   
    14    8   29 1   
    15    8   30 1   
    16    9   10 1   
    17    9   31 1   
    18    9   32 1   
    19   10   11 1   
    20   10   33 1   
    21   10   34 1   
    22   11   12 1   
    23   11   35 1   
    24   11   47 1   
    25   12   13 1   
    26   12   36 1   
    27   12   37 1   
    28   13   14 1   
    29   13   38 1   
    30   13   39 1   
    31   14   15 ar  
    32   14   17 ar  
    33   15   16 ar  
    34   15   40 1   
    35   16   20 ar  
    36   16   42 1   
    37   17   18 ar  
    38   17   41 1   
    39   18   19 ar  
    40   18   20 ar  
    41   19   23 ar  
    42   20   21 ar  
    43   21   22 ar  
    44   21   43 1   
    45   22   23 ar  
    46   22   44 1   
    47   23   24 1   
    48   24   45 1   
    49   24   46 1   
    50   24   48 1   
@<TRIPOS>SUBSTRUCTURE
     1 M46         1 TEMP              0 ****  ****    0 ROOT
