@<TRIPOS>MOLECULE
M46
   47    49     1     0     0
SMALL
bcc


@<TRIPOS>ATOM
      1 F23         0.0900   -0.0720    0.1030 f         1 M46     -0.127900
      2 C23         1.4390    0.0110    0.0330 ca        1 M46      0.139900
      3 C22         2.2050   -0.1010    1.2060 ca        1 M46     -0.170000
      4 C24         2.0680    0.2090   -1.2120 ca        1 M46     -0.147000
      5 C25         3.4560    0.2930   -1.2650 ca        1 M46     -0.094000
      6 C26         4.2210    0.1790   -0.1040 ca        1 M46     -0.135000
      7 C21         3.5980   -0.0190    1.1320 ca        1 M46     -0.084300
      8 C16         4.4080   -0.1230    2.3770 c3        1 M46     -0.026100
      9 C15         4.4360   -1.5580    2.8790 c3        1 M46     -0.110400
     10 C14         5.2270   -1.6220    4.1790 c3        1 M46      0.100800
     11 N13         5.2940   -3.0060    4.7370 n4        1 M46     -0.764000
     12 C12         6.0700   -3.0590    6.0130 c3        1 M46      0.099800
     13 C11         6.1510   -4.4720    6.5910 c3        1 M46     -0.050100
     14 C08         6.9880   -4.4340    7.8240 ca        1 M46     -0.104300
     15 C07         6.3580   -4.4870    9.0910 ca        1 M46     -0.160000
     16 C06         7.1190   -4.4780   10.2360 ca        1 M46     -0.064000
     17 C09         8.3610   -4.3700    7.7190 ca        1 M46     -0.175300
     18 C10         9.1800   -4.3500    8.8950 ca        1 M46      0.457600
     19 N01        10.5430   -4.2750    8.7520 nb        1 M46     -0.764000
     20 C05         8.5290   -4.4080   10.1650 ca        1 M46     -0.189300
     21 C04         9.3520   -4.4000   11.3310 ca        1 M46     -0.047000
     22 C03        10.7090   -4.3410   11.2090 ca        1 M46     -0.271300
     23 C02        11.3000   -4.2870    9.8760 ca        1 M46      0.698200
     24 N02        12.6750   -4.2890    9.7660 nh        1 M46     -0.961500
     25 H22         1.6980   -0.2390    2.1720 ha        1 M46      0.142000
     26 H24         1.4580    0.3000   -2.1230 ha        1 M46      0.164000
     27 H25         3.9540    0.4550   -2.2340 ha        1 M46      0.152000
     28 H26         5.3170    0.2560   -0.1650 ha        1 M46      0.138000
     29 H161        5.4570    0.2300    2.1860 hc        1 M46      0.062700
     30 H162        3.9660    0.5440    3.1660 hc        1 M46      0.062700
     31 H151        4.9040   -2.2150    2.0990 hc        1 M46      0.071200
     32 H152        3.3820   -1.9130    3.0390 hc        1 M46      0.071200
     33 H141        4.7500   -0.9590    4.9570 hx        1 M46      0.107200
     34 H142        6.2840   -1.2670    4.0070 hx        1 M46      0.107200
     35 H13         4.3420   -3.3500    4.9040 hn        1 M46      0.448800
     36 H121        7.1100   -2.6720    5.8060 hx        1 M46      0.111700
     37 H122        5.5710   -2.3690    6.7530 hx        1 M46      0.111700
     38 H111        5.1230   -4.8540    6.8330 hc        1 M46      0.069700
     39 H112        6.6120   -5.1730    5.8440 hc        1 M46      0.069700
     40 H07         5.2620   -4.5510    9.1510 ha        1 M46      0.133000
     41 H09         8.8510   -4.3490    6.7330 ha        1 M46      0.141000
     42 H06         6.6390   -4.5280   11.2270 ha        1 M46      0.146000
     43 H04         8.8710   -4.4440   12.3210 ha        1 M46      0.150000
     44 H03        11.3620   -4.3410   12.0930 ha        1 M46      0.154000
     45 H021       13.1040   -4.1610    8.8830 hn        1 M46      0.440300
     46 H022       13.2070   -4.1100   10.5810 hn        1 M46      0.440300
     47 H132        5.7320   -3.6280    4.0480 hn        1 M46      0.448800
@<TRIPOS>BOND
     1    1    2 1   
     2    2    3 ar  
     3    2    4 ar  
     4    3    7 ar  
     5    3   25 1   
     6    4    5 ar  
     7    4   26 1   
     8    5    6 ar  
     9    5   27 1   
    10    6    7 ar  
    11    6   28 1   
    12    7    8 1   
    13    8    9 1   
    14    8   29 1   
    15    8   30 1   
    16    9   10 1   
    17    9   31 1   
    18    9   32 1   
    19   10   11 1   
    20   10   33 1   
    21   10   34 1   
    22   11   12 1   
    23   11   35 1   
    24   11   47 1   
    25   12   13 1   
    26   12   36 1   
    27   12   37 1   
    28   13   14 1   
    29   13   38 1   
    30   13   39 1   
    31   14   15 ar  
    32   14   17 ar  
    33   15   16 ar  
    34   15   40 1   
    35   16   20 ar  
    36   16   42 1   
    37   17   18 ar  
    38   17   41 1   
    39   18   19 ar  
    40   18   20 ar  
    41   19   23 ar  
    42   20   21 ar  
    43   21   22 ar  
    44   21   43 1   
    45   22   23 ar  
    46   22   44 1   
    47   23   24 1   
    48   24   45 1   
    49   24   46 1   
@<TRIPOS>SUBSTRUCTURE
     1 M46         1 TEMP              0 ****  ****    0 ROOT
