@<TRIPOS>MOLECULE
M48
   44    46     1     0     0
SMALL
bcc


@<TRIPOS>ATOM
      1 F23        -0.2170    0.6330   -0.3430 f         1 M48     -0.120900
      2 C25         3.3440   -0.0610    0.0730 ca        1 M48     -0.091000
      3 C24         2.0160    0.1980    0.3970 ca        1 M48     -0.138000
      4 C23         1.0780    0.3820   -0.6390 ca        1 M48      0.145900
      5 C22         1.4810    0.3050   -1.9840 ca        1 M48     -0.168000
      6 C26         3.7510   -0.1350   -1.2600 ca        1 M48     -0.129000
      7 C21         2.8210    0.0490   -2.2870 ca        1 M48     -0.098300
      8 C15         3.2440   -0.0530   -3.7110 c3        1 M48     -0.051100
      9 C14         3.3350    1.3530   -4.3040 c3        1 M48      0.099800
     10 N13         3.7130    1.3430   -5.7490 n4        1 M48     -0.764000
     11 C12         3.7890    2.7240   -6.3160 c3        1 M48      0.099800
     12 C11         4.1730    2.7270   -7.7960 c3        1 M48     -0.050100
     13 C08         4.1630    4.1350   -8.2860 ca        1 M48     -0.104300
     14 C07         5.3920    4.8140   -8.4670 ca        1 M48     -0.160000
     15 C06         5.4000    6.1050   -8.9410 ca        1 M48     -0.064000
     16 C09         2.9660    4.7520   -8.5760 ca        1 M48     -0.175300
     17 C10         2.9400    6.0990   -9.0640 ca        1 M48      0.457600
     18 N01         1.7280    6.6850   -9.3330 nb        1 M48     -0.763000
     19 C05         4.1890    6.7690   -9.2450 ca        1 M48     -0.188300
     20 C04         4.1570    8.1060   -9.7420 ca        1 M48     -0.047000
     21 C03         2.9630    8.6990  -10.0290 ca        1 M48     -0.271300
     22 C02         1.7290    7.9480   -9.8210 ca        1 M48      0.698200
     23 N02         0.5330    8.5380  -10.1750 nh        1 M48     -0.960500
     24 H22         0.7330    0.4330   -2.7790 ha        1 M48      0.145000
     25 H26         4.8040   -0.3500   -1.4960 ha        1 M48      0.140000
     26 H151        2.4950   -0.6690   -4.2800 hc        1 M48      0.071700
     27 H152        4.2380   -0.5710   -3.7820 hc        1 M48      0.071700
     28 H141        2.3380    1.8730   -4.2070 hx        1 M48      0.111700
     29 H142        4.1090    1.9560   -3.7470 hx        1 M48      0.111700
     30 H13         4.6220    0.8800   -5.8590 hn        1 M48      0.447300
     31 H121        2.7800    3.2120   -6.1840 hx        1 M48      0.112700
     32 H122        4.5500    3.3030   -5.7200 hx        1 M48      0.112700
     33 H111        3.4420    2.1160   -8.3910 hc        1 M48      0.069700
     34 H112        5.1920    2.2770   -7.9360 hc        1 M48      0.069700
     35 H07         6.3370    4.2990   -8.2410 ha        1 M48      0.133000
     36 H09         2.0110    4.2160   -8.4540 ha        1 M48      0.142000
     37 H06         6.3510    6.6390   -9.0950 ha        1 M48      0.146000
     38 H04         5.1080    8.6420   -9.8890 ha        1 M48      0.150000
     39 H03         2.9140    9.7260  -10.4200 ha        1 M48      0.154000
     40 H021       -0.3250    8.0920   -9.9580 hn        1 M48      0.440300
     41 H022        0.5270    9.5140  -10.3410 hn        1 M48      0.440300
     42 H24         1.6880    0.2560    1.4460 ha        1 M48      0.170000
     43 H132        3.0210    0.7980   -6.2770 hn        1 M48      0.447300
     44 H25         4.0810   -0.2130    0.8790 ha        1 M48      0.158000
@<TRIPOS>BOND
     1    1    4 1   
     2    2    3 ar  
     3    2    6 ar  
     4    2   44 1   
     5    3    4 ar  
     6    3   42 1   
     7    4    5 ar  
     8    5    7 ar  
     9    5   24 1   
    10    6    7 ar  
    11    6   25 1   
    12    7    8 1   
    13    8    9 1   
    14    8   26 1   
    15    8   27 1   
    16    9   10 1   
    17    9   28 1   
    18    9   29 1   
    19   10   11 1   
    20   10   30 1   
    21   10   43 1   
    22   11   12 1   
    23   11   31 1   
    24   11   32 1   
    25   12   13 1   
    26   12   33 1   
    27   12   34 1   
    28   13   14 ar  
    29   13   16 ar  
    30   14   15 ar  
    31   14   35 1   
    32   15   19 ar  
    33   15   37 1   
    34   16   17 ar  
    35   16   36 1   
    36   17   18 ar  
    37   17   19 ar  
    38   18   22 ar  
    39   19   20 ar  
    40   20   21 ar  
    41   20   38 1   
    42   21   22 ar  
    43   21   39 1   
    44   22   23 1   
    45   23   40 1   
    46   23   41 1   
@<TRIPOS>SUBSTRUCTURE
     1 M48         1 TEMP              0 ****  ****    0 ROOT
