@<TRIPOS>MOLECULE
M48
   45    47     1     0     0
SMALL
bcc


@<TRIPOS>ATOM
      1 F23         0.3380    0.6090    0.2170 f         1 M48     -0.117900
      2 C25         3.8200   -0.4760    0.0470 ca        1 M48     -0.088000
      3 C24         2.5900   -0.1130    0.5830 ca        1 M48     -0.131000
      4 C23         1.5400    0.2530   -0.2850 ca        1 M48      0.148900
      5 C22         1.7370    0.2490   -1.6770 ca        1 M48     -0.173000
      6 C26         4.0240   -0.4770   -1.3340 ca        1 M48     -0.126000
      7 C21         2.9840   -0.1150   -2.1940 ca        1 M48     -0.107300
      8 C15         3.1830   -0.1460   -3.6700 c3        1 M48     -0.049100
      9 C14         3.2720    1.2920   -4.1840 c3        1 M48      0.101800
     10 N13         3.4040    1.3580   -5.6750 n4        1 M48     -0.765000
     11 C12         3.4540    2.7670   -6.1670 c3        1 M48      0.102800
     12 C11         3.5910    2.8540   -7.6870 c3        1 M48     -0.065100
     13 C08         3.7050    4.2770   -8.1190 ca        1 M48     -0.078300
     14 C07         4.8900    5.0000   -7.8090 ca        1 M48     -0.101000
     15 C06         5.0580    6.2920   -8.2390 ca        1 M48     -0.085000
     16 C09         2.7040    4.8640   -8.8600 ca        1 M48     -0.136300
     17 C10         2.8540    6.2110   -9.3320 ca        1 M48      0.411600
     18 N01         1.8530    6.7770  -10.0870 nb        1 M48     -0.627000
     19 C05         4.0510    6.9290   -9.0110 ca        1 M48     -0.113300
     20 C04         4.1940    8.2590   -9.4910 ca        1 M48     -0.023000
     21 C03         3.1970    8.8290  -10.2510 ca        1 M48     -0.231300
     22 C02         2.0390    8.0270  -10.5190 ca        1 M48      0.480200
     23 N02         0.9640    8.6270  -11.3450 n4        1 M48     -0.826300
     24 H22         0.9010    0.5110   -2.3400 ha        1 M48      0.141000
     25 H26         5.0030   -0.7790   -1.7380 ha        1 M48      0.142000
     26 H151        4.1220   -0.7090   -3.9220 hc        1 M48      0.074700
     27 H152        2.3190   -0.6810   -4.1510 hc        1 M48      0.074700
     28 H141        2.3420    1.8590   -3.8900 hx        1 M48      0.112700
     29 H142        4.1680    1.8070   -3.7330 hx        1 M48      0.112700
     30 H13         2.6060    0.8730   -6.1040 hn        1 M48      0.452300
     31 H121        2.5080    3.2830   -5.8340 hx        1 M48      0.111700
     32 H122        4.3310    3.2750   -5.6700 hx        1 M48      0.111700
     33 H111        2.7050    2.3710   -8.1820 hc        1 M48      0.083700
     34 H112        4.5120    2.3020   -8.0290 hc        1 M48      0.083700
     35 H07         5.6860    4.5040   -7.2290 ha        1 M48      0.155000
     36 H09         1.7840    4.3100   -9.1170 ha        1 M48      0.170000
     37 H06         5.9790    6.8510   -8.0010 ha        1 M48      0.174000
     38 H04         5.1110    8.8280   -9.2520 ha        1 M48      0.189000
     39 H03         3.2900    9.8560  -10.6350 ha        1 M48      0.181000
     40 H021        0.6300    9.4800  -10.8820 hn        1 M48      0.478800
     41 H022        1.3500    8.8640  -12.2660 hn        1 M48      0.478800
     42 H24         2.4210   -0.1140    1.6720 ha        1 M48      0.175000
     43 H132        4.2570    0.8630   -5.9590 hn        1 M48      0.452300
     44 H023        0.1740    7.9760  -11.4660 hn        1 M48      0.478800
     45 H25         4.6410   -0.7730    0.7210 ha        1 M48      0.163000
@<TRIPOS>BOND
     1    1    4 1   
     2    2    3 ar  
     3    2    6 ar  
     4    2   45 1   
     5    3    4 ar  
     6    3   42 1   
     7    4    5 ar  
     8    5    7 ar  
     9    5   24 1   
    10    6    7 ar  
    11    6   25 1   
    12    7    8 1   
    13    8    9 1   
    14    8   26 1   
    15    8   27 1   
    16    9   10 1   
    17    9   28 1   
    18    9   29 1   
    19   10   11 1   
    20   10   30 1   
    21   10   43 1   
    22   11   12 1   
    23   11   31 1   
    24   11   32 1   
    25   12   13 1   
    26   12   33 1   
    27   12   34 1   
    28   13   14 ar  
    29   13   16 ar  
    30   14   15 ar  
    31   14   35 1   
    32   15   19 ar  
    33   15   37 1   
    34   16   17 ar  
    35   16   36 1   
    36   17   18 ar  
    37   17   19 ar  
    38   18   22 ar  
    39   19   20 ar  
    40   20   21 ar  
    41   20   38 1   
    42   21   22 ar  
    43   21   39 1   
    44   22   23 1   
    45   23   40 1   
    46   23   41 1   
    47   23   44 1   
@<TRIPOS>SUBSTRUCTURE
     1 M48         1 TEMP              0 ****  ****    0 ROOT
