@<TRIPOS>MOLECULE
M48
   44    46     1     0     0
SMALL
bcc


@<TRIPOS>ATOM
      1 F23        -0.2300    0.6130   -0.3620 f         1 M48     -0.120900
      2 C25         3.3330   -0.0600    0.0720 ca        1 M48     -0.091000
      3 C24         2.0020    0.1910    0.3890 ca        1 M48     -0.138000
      4 C23         1.0680    0.3690   -0.6520 ca        1 M48      0.145900
      5 C22         1.4790    0.2950   -1.9940 ca        1 M48     -0.168000
      6 C26         3.7480   -0.1320   -1.2590 ca        1 M48     -0.129000
      7 C21         2.8220    0.0460   -2.2900 ca        1 M48     -0.098300
      8 C15         3.2520   -0.0540   -3.7130 c3        1 M48     -0.051100
      9 C14         3.3390    1.3530   -4.3050 c3        1 M48      0.099800
     10 N13         3.7240    1.3450   -5.7480 ny        1 M48     -0.764000
     11 C12         3.7960    2.7260   -6.3150 c3        1 M48      0.099800
     12 C11         4.1850    2.7320   -7.7930 c3        1 M48     -0.050100
     13 C08         4.1700    4.1400   -8.2830 ca        1 M48     -0.104300
     14 C07         5.3970    4.8240   -8.4620 ca        1 M48     -0.160000
     15 C06         5.4000    6.1150   -8.9360 ca        1 M48     -0.064000
     16 C09         2.9710    4.7520   -8.5750 ca        1 M48     -0.175300
     17 C10         2.9410    6.1000   -9.0620 ca        1 M48      0.457600
     18 N01         1.7270    6.6810   -9.3320 nb        1 M48     -0.763000
     19 C05         4.1870    6.7740   -9.2410 ca        1 M48     -0.188300
     20 C04         4.1500    8.1110   -9.7380 ca        1 M48     -0.047000
     21 C03         2.9540    8.7000  -10.0260 ca        1 M48     -0.271300
     22 C02         1.7230    7.9440   -9.8200 ca        1 M48      0.698200
     23 N02         0.5250    8.5300  -10.1750 nv        1 M48     -0.960500
     24 H22         0.7340    0.4180   -2.7940 ha        1 M48      0.145000
     25 H26         4.8030   -0.3410   -1.4890 ha        1 M48      0.140000
     26 H151        2.5100   -0.6730   -4.2860 hc        1 M48      0.071700
     27 H152        4.2500   -0.5660   -3.7780 hc        1 M48      0.071700
     28 H141        2.3390    1.8680   -4.2130 hx        1 M48      0.111700
     29 H142        4.1070    1.9600   -3.7440 hx        1 M48      0.111700
     30 H13         4.6360    0.8870   -5.8550 hn        1 M48      0.447300
     31 H121        4.5520    3.3090   -5.7150 hx        1 M48      0.112700
     32 H122        2.7840    3.2100   -6.1860 hx        1 M48      0.112700
     33 H111        5.2070    2.2870   -7.9290 hc        1 M48      0.069700
     34 H112        3.4590    2.1180   -8.3910 hc        1 M48      0.069700
     35 H07         6.3430    4.3120   -8.2350 ha        1 M48      0.133000
     36 H09         2.0180    4.2130   -8.4530 ha        1 M48      0.141000
     37 H06         6.3490    6.6530   -9.0880 ha        1 M48      0.146000
     38 H04         5.0990    8.6510   -9.8830 ha        1 M48      0.150000
     39 H03         2.9020    9.7260  -10.4170 ha        1 M48      0.154000
     40 H021       -0.3310    8.0800   -9.9590 hn        1 M48      0.440300
     41 H022        0.5160    9.5050  -10.3410 hn        1 M48      0.440300
     42 H24         1.6680    0.2470    1.4360 ha        1 M48      0.170000
     43 H132        3.0370    0.7970   -6.2790 hn        1 M48      0.447300
     44 H25         4.0670   -0.2080    0.8820 ha        1 M48      0.158000
@<TRIPOS>BOND
     1    1    4 1   
     2    2    3 ar  
     3    2    6 ar  
     4    2   44 1   
     5    3    4 ar  
     6    3   42 1   
     7    4    5 ar  
     8    5    7 ar  
     9    5   24 1   
    10    6    7 ar  
    11    6   25 1   
    12    7    8 1   
    13    8    9 1   
    14    8   26 1   
    15    8   27 1   
    16    9   10 1   
    17    9   28 1   
    18    9   29 1   
    19   10   11 1   
    20   10   30 1   
    21   10   43 1   
    22   11   12 1   
    23   11   31 1   
    24   11   32 1   
    25   12   13 1   
    26   12   33 1   
    27   12   34 1   
    28   13   14 ar  
    29   13   16 ar  
    30   14   15 ar  
    31   14   35 1   
    32   15   19 ar  
    33   15   37 1   
    34   16   17 ar  
    35   16   36 1   
    36   17   18 ar  
    37   17   19 ar  
    38   18   22 ar  
    39   19   20 ar  
    40   20   21 ar  
    41   20   38 1   
    42   21   22 ar  
    43   21   39 1   
    44   22   23 1   
    45   23   40 1   
    46   23   41 1   
@<TRIPOS>SUBSTRUCTURE
     1 M48         1 TEMP              0 ****  ****    0 ROOT
