@<TRIPOS>MOLECULE
M49
   38    39     1     0     0
SMALL
bcc


@<TRIPOS>ATOM
      1 O12         0.1600    0.3730    0.2960 o         1 M49     -0.595100
      2 C11         1.0620   -0.4570    0.0880 c         1 M49      0.675100
      3 C20         1.7640   -1.1660    1.2200 c3        1 M49     -0.178100
      4 N10         1.4810   -0.7920   -1.2000 n         1 M49     -0.478100
      5 C6          1.0080   -0.2590   -2.4050 ca        1 M49      0.079600
      6 C1         -0.1980    0.4900   -2.4770 ca        1 M49     -0.106000
      7 C2         -0.5950    0.9880   -3.6970 ca        1 M49     -0.129300
      8 C5          1.7480   -0.4900   -3.5900 ca        1 M49     -0.150000
      9 C4          1.3390    0.0080   -4.8280 ca        1 M49     -0.098000
     10 C3          0.1680    0.7560   -4.8820 ca        1 M49     -0.002400
     11 N9         -0.4490    1.3890   -5.9890 n         1 M49     -0.427100
     12 C8         -1.6020    2.0320   -5.5770 c         1 M49      0.700500
     13 O13        -2.3540    2.7030   -6.3170 o         1 M49     -0.707500
     14 C7         -1.8190    1.7880   -4.0600 c3        1 M49     -0.096400
     15 C14        -1.9540    3.0590   -3.2520 c3        1 M49     -0.094400
     16 C15        -3.3110    3.7340   -3.4200 c3        1 M49      0.116800
     17 N16        -3.3590    4.7150   -4.5460 n4        1 M49     -0.697800
     18 C17        -4.7840    5.0020   -4.9760 c         1 M49      0.559100
     19 O18        -5.2510    6.0500   -4.5590 o         1 M49     -0.413100
     20 C19        -5.4200    3.9820   -5.8550 c3        1 M49     -0.190100
     21 H1          1.6230   -2.2710    1.1410 hc        1 M49      0.079367
     22 H2          2.8570   -0.9340    1.2110 hc        1 M49      0.079367
     23 H3          1.3270   -0.8120    2.1860 hc        1 M49      0.079367
     24 H4          2.2470   -1.4250   -1.2770 hn        1 M49      0.326500
     25 H5         -0.8070    0.6710   -1.5760 ha        1 M49      0.182000
     26 H6          2.6800   -1.0790   -3.5550 ha        1 M49      0.151000
     27 H7          1.9390   -0.1920   -5.7280 ha        1 M49      0.157000
     28 H8         -0.1200    1.3310   -6.9200 hn        1 M49      0.361500
     29 H9         -2.7380    1.1480   -3.9470 hc        1 M49      0.106700
     30 H10        -1.1110    3.7620   -3.4860 hc        1 M49      0.097700
     31 H11        -1.8530    2.7860   -2.1620 hc        1 M49      0.097700
     32 H12        -3.5790    4.2930   -2.4760 hx        1 M49      0.104700
     33 H13        -4.1050    2.9540   -3.6120 hx        1 M49      0.104700
     34 H14        -2.8430    4.3300   -5.3590 hn        1 M49      0.472800
     35 H15        -4.6760    3.3730   -6.4310 hc        1 M49      0.119367
     36 H16        -6.0430    3.2970   -5.2230 hc        1 M49      0.119367
     37 H17        -6.0980    4.5110   -6.5770 hc        1 M49      0.119367
     38 H162       -2.9050    5.5870   -4.2510 hn        1 M49      0.472800
@<TRIPOS>BOND
     1    1    2 2   
     2    2    3 1   
     3    2    4 1   
     4    3   21 1   
     5    3   22 1   
     6    3   23 1   
     7    4    5 1   
     8    4   24 1   
     9    5    6 ar  
    10    5    8 ar  
    11    6    7 ar  
    12    6   25 1   
    13    7   10 ar  
    14    7   14 1   
    15    8    9 ar  
    16    8   26 1   
    17    9   10 ar  
    18    9   27 1   
    19   10   11 1   
    20   11   12 1   
    21   11   28 1   
    22   12   13 2   
    23   12   14 1   
    24   14   15 1   
    25   14   29 1   
    26   15   16 1   
    27   15   30 1   
    28   15   31 1   
    29   16   17 1   
    30   16   32 1   
    31   16   33 1   
    32   17   18 1   
    33   17   34 1   
    34   17   38 1   
    35   18   19 2   
    36   18   20 1   
    37   20   35 1   
    38   20   36 1   
    39   20   37 1   
@<TRIPOS>SUBSTRUCTURE
     1 M49         1 TEMP              0 ****  ****    0 ROOT
