@<TRIPOS>MOLECULE
M49
   37    38     1     0     0
SMALL
bcc


@<TRIPOS>ATOM
      1 O12         2.4700    2.7810    0.0990 o         1 M49     -0.588100
      2 C11         3.6280    2.3290    0.0460 c         1 M49      0.664100
      3 C20         4.8280    3.2470    0.0960 c3        1 M49     -0.178100
      4 N10         3.9040    0.9710   -0.0480 n         1 M49     -0.476100
      5 C6          2.9710   -0.0760   -0.1570 ca        1 M49      0.041600
      6 C1          1.6120    0.0840    0.2230 ca        1 M49     -0.092000
      7 C2          0.7610   -0.9910    0.1080 ca        1 M49     -0.123300
      8 C5          3.4150   -1.3280   -0.6360 ca        1 M49     -0.152000
      9 C4          2.5540   -2.4210   -0.7500 ca        1 M49     -0.141000
     10 C3          1.2230   -2.2560   -0.3820 ca        1 M49      0.033600
     11 N9          0.1670   -3.1830   -0.4020 n         1 M49     -0.479100
     12 C8         -1.0150   -2.5740    0.0550 c         1 M49      0.698500
     13 O13        -2.1010   -3.1600    0.1310 o         1 M49     -0.608500
     14 C7         -0.7020   -1.1080    0.4450 c3        1 M49     -0.075400
     15 C14        -1.5680   -0.1170   -0.3020 c3        1 M49     -0.091400
     16 C15        -2.9890   -0.1110    0.2720 c3        1 M49      0.077000
     17 N16        -3.9100    0.7290   -0.4390 n         1 M49     -0.569900
     18 C17        -4.2960    1.9740    0.0240 c         1 M49      0.654100
     19 O18        -3.9490    2.3860    1.1480 o         1 M49     -0.607100
     20 C19        -5.1920    2.7940   -0.8730 c3        1 M49     -0.175100
     21 H1          5.4660    3.0110    0.9820 hc        1 M49      0.069367
     22 H2          5.4390    3.1470   -0.8340 hc        1 M49      0.069367
     23 H3          4.4650    4.3010    0.1810 hc        1 M49      0.069367
     24 H4          4.8580    0.7080   -0.1540 hn        1 M49      0.314500
     25 H5          1.2380    1.0520    0.5970 ha        1 M49      0.181000
     26 H6          4.4670   -1.4680   -0.9310 ha        1 M49      0.131000
     27 H7          2.9320   -3.3810   -1.1250 ha        1 M49      0.141000
     28 H8          0.2440   -4.1090   -0.7310 hn        1 M49      0.339500
     29 H9         -0.8600   -1.0040    1.5540 hc        1 M49      0.102700
     30 H10        -1.1090    0.9030   -0.2030 hc        1 M49      0.059700
     31 H11        -1.5870   -0.3760   -1.3930 hc        1 M49      0.059700
     32 H12        -3.3870   -1.1690    0.2500 h1        1 M49      0.076700
     33 H13        -2.9470    0.2300    1.3470 h1        1 M49      0.076700
     34 H14        -4.1130    0.4850   -1.3770 hn        1 M49      0.304500
     35 H15        -6.1430    2.2470   -1.0820 hc        1 M49      0.064700
     36 H16        -5.4330    3.7550   -0.3560 hc        1 M49      0.064700
     37 H17        -4.6800    3.0190   -1.8390 hc        1 M49      0.064700
@<TRIPOS>BOND
     1    1    2 2   
     2    2    3 1   
     3    2    4 1   
     4    3   21 1   
     5    3   22 1   
     6    3   23 1   
     7    4    5 1   
     8    4   24 1   
     9    5    6 ar  
    10    5    8 ar  
    11    6    7 ar  
    12    6   25 1   
    13    7   10 ar  
    14    7   14 1   
    15    8    9 ar  
    16    8   26 1   
    17    9   10 ar  
    18    9   27 1   
    19   10   11 1   
    20   11   12 1   
    21   11   28 1   
    22   12   13 2   
    23   12   14 1   
    24   14   15 1   
    25   14   29 1   
    26   15   16 1   
    27   15   30 1   
    28   15   31 1   
    29   16   17 1   
    30   16   32 1   
    31   16   33 1   
    32   17   18 1   
    33   17   34 1   
    34   18   19 2   
    35   18   20 1   
    36   20   35 1   
    37   20   36 1   
    38   20   37 1   
@<TRIPOS>SUBSTRUCTURE
     1 M49         1 TEMP              0 ****  ****    0 ROOT
