@<TRIPOS>MOLECULE
M49
   37    34     1     0     0
SMALL
bcc


@<TRIPOS>ATOM
      1 O12        -0.7830   -2.5800    4.9500 o         1 M49     -0.350000
      2 C11        -0.0710   -1.6060    4.9710 c1        1 M49      0.309000
      3 C20         0.7140   -1.2570    6.2440 c3        1 M49     -0.246000
      4 N10        -0.0290   -0.7260    3.8420 n2        1 M49     -0.328000
      5 C6         -0.8410   -1.0060    2.6780 c2        1 M49      0.047000
      6 C1         -0.3600   -0.2060    1.6360 c2        1 M49     -0.130000
      7 C2         -1.0510   -0.1540    0.4200 c1        1 M49     -0.115000
      8 C5         -2.0160   -1.7570    2.5050 c1        1 M49     -0.121000
      9 C4         -2.6990   -1.7060    1.3010 c1        1 M49     -0.139000
     10 C3         -2.2180   -0.9010    0.2500 c1        1 M49      0.043000
     11 N9         -2.6600   -0.7450   -1.1350 n2        1 M49     -0.331000
     12 C8         -2.0790    0.4310   -1.6470 c2        1 M49      0.308000
     13 O13        -2.4010    0.9950   -2.6730 o         1 M49     -0.321000
     14 C7         -0.9090    0.7790   -0.7840 c3        1 M49     -0.076000
     15 C14         0.4690    0.6560   -1.5180 c3        1 M49     -0.170000
     16 C15         0.6160    1.7970   -2.5160 c3        1 M49     -0.036000
     17 N16         1.8720    1.6600   -3.2260 n         1 M49     -0.381000
     18 C17         1.8790    1.5680   -4.6660 c2        1 M49      0.296000
     19 O18         0.9770    2.0830   -5.3130 o         1 M49     -0.356000
     20 C19         3.0870    0.9760   -5.3820 c3        1 M49     -0.244000
     21 H1          1.3080   -0.4880    6.0650 hc        1 M49      0.108333
     22 H2          1.2540   -2.0310    6.5170 hc        1 M49      0.108333
     23 H3          0.0800   -1.0240    6.9690 hc        1 M49      0.108333
     24 H4          0.5250    0.0060    3.8500 hn        1 M49      0.226000
     25 H5          0.4030    0.3890    1.7900 ha        1 M49      0.132000
     26 H6         -2.2990   -2.3870    3.1990 ha        1 M49      0.179000
     27 H7         -3.5280   -2.2360    1.1800 ha        1 M49      0.145000
     28 H8         -3.2360   -1.3110   -1.5890 hn        1 M49      0.256000
     29 H9         -0.9130    1.7280   -0.5180 hc        1 M49      0.133000
     30 H10         1.2010    0.7010   -0.8570 hc        1 M49      0.094500
     31 H11         0.5090   -0.2030   -1.9950 hc        1 M49      0.094500
     32 H12        -0.1250    1.7670   -3.1570 h1        1 M49      0.115000
     33 H13         0.6020    2.6510   -2.0410 h1        1 M49      0.115000
     34 H14         2.6700    1.5960   -2.7510 hn        1 M49      0.212000
     35 H15         2.8000    0.2190   -5.9390 hc        1 M49      0.104000
     36 H16         3.7520    0.6600   -4.7080 hc        1 M49      0.104000
     37 H17         3.4990    1.6620   -5.9510 hc        1 M49      0.104000
@<TRIPOS>BOND
     1    1    2 1   
     2    2    3 1   
     3    3   21 1   
     4    3   22 1   
     5    3   23 1   
     6    4    5 1   
     7    4   24 1   
     8    5    6 1   
     9    5    8 1   
    10    6    7 1   
    11    6   25 1   
    12    7   14 1   
    13    8   26 1   
    14    9   10 1   
    15    9   27 1   
    16   11   12 1   
    17   11   28 1   
    18   12   13 1   
    19   12   14 1   
    20   14   15 1   
    21   14   29 1   
    22   15   16 1   
    23   15   30 1   
    24   15   31 1   
    25   16   17 1   
    26   16   32 1   
    27   16   33 1   
    28   17   18 1   
    29   17   34 1   
    30   18   19 1   
    31   18   20 1   
    32   20   35 1   
    33   20   36 1   
    34   20   37 1   
@<TRIPOS>SUBSTRUCTURE
     1 M49         1 TEMP              0 ****  ****    0 ROOT
