@<TRIPOS>MOLECULE
M49
   38    39     1     0     0
SMALL
bcc


@<TRIPOS>ATOM
      1 O12         0.2590    0.4520    0.2850 o         1 M49     -0.595100
      2 C11         1.1360   -0.4030    0.0720 c         1 M49      0.675100
      3 C20         1.8630   -1.0930    1.1990 c3        1 M49     -0.178100
      4 N10         1.5040   -0.7840   -1.2200 ns        1 M49     -0.478100
      5 C6          1.0010   -0.2760   -2.4230 ca        1 M49      0.079600
      6 C1         -0.1920    0.4950   -2.4770 ca        1 M49     -0.106000
      7 C2         -0.6210    0.9660   -3.6960 ca        1 M49     -0.129300
      8 C5          1.6940   -0.5570   -3.6250 ca        1 M49     -0.150000
      9 C4          1.2520   -0.0870   -4.8620 ca        1 M49     -0.098000
     10 C3          0.0960    0.6830   -4.8990 ca        1 M49     -0.002400
     11 N9         -0.5470    1.2960   -6.0030 ns        1 M49     -0.427100
     12 C8         -1.6720    1.9750   -5.5720 c         1 M49      0.700500
     13 O13        -2.4360    2.6400   -6.3050 o         1 M49     -0.707500
     14 C7         -1.8400    1.7800   -4.0410 c3        1 M49     -0.096400
     15 C14        -1.9220    3.0780   -3.2680 c3        1 M49     -0.094400
     16 C15        -3.2710    3.7760   -3.4090 c3        1 M49      0.116800
     17 N16        -3.3380    4.7230   -4.5620 ny        1 M49     -0.697800
     18 C17        -4.7710    5.0270   -4.9520 c         1 M49      0.559100
     19 O18        -5.2020    6.0970   -4.5520 o         1 M49     -0.413100
     20 C19        -5.4580    3.9950   -5.7770 c3        1 M49     -0.190100
     21 H1          1.6950   -2.1970    1.1590 hc        1 M49      0.079367
     22 H2          1.4680   -0.7020    2.1690 hc        1 M49      0.079367
     23 H3          2.9600   -0.8860    1.1460 hc        1 M49      0.079367
     24 H4          2.2540   -1.4350   -1.3040 hn        1 M49      0.326500
     25 H5         -0.7660    0.7160   -1.5610 ha        1 M49      0.182000
     26 H6          2.6150   -1.1650   -3.6040 ha        1 M49      0.151000
     27 H7          1.8170   -0.3260   -5.7760 ha        1 M49      0.157000
     28 H8         -0.2520    1.2040   -6.9430 hn        1 M49      0.361500
     29 H9         -2.7680    1.1640   -3.8780 hc        1 M49      0.106700
     30 H10        -1.0740    3.7560   -3.5510 hc        1 M49      0.097700
     31 H11        -1.7890    2.8340   -2.1740 hc        1 M49      0.097700
     32 H12        -3.4940    4.3670   -2.4740 hx        1 M49      0.104700
     33 H13        -4.0850    3.0070   -3.5500 hx        1 M49      0.104700
     34 H14        -2.8570    5.5940   -4.3100 hn        1 M49      0.472800
     35 H15        -6.0710    3.3420   -5.1020 hc        1 M49      0.119367
     36 H16        -4.7460    3.3540   -6.3600 hc        1 M49      0.119367
     37 H17        -6.1500    4.5160   -6.4900 hc        1 M49      0.119367
     38 H162       -2.8580    4.3040   -5.3800 hn        1 M49      0.472800
@<TRIPOS>BOND
     1    1    2 2   
     2    2    3 1   
     3    2    4 1   
     4    3   21 1   
     5    3   22 1   
     6    3   23 1   
     7    4    5 1   
     8    4   24 1   
     9    5    6 ar  
    10    5    8 ar  
    11    6    7 ar  
    12    6   25 1   
    13    7   10 ar  
    14    7   14 1   
    15    8    9 ar  
    16    8   26 1   
    17    9   10 ar  
    18    9   27 1   
    19   10   11 1   
    20   11   12 1   
    21   11   28 1   
    22   12   13 2   
    23   12   14 1   
    24   14   15 1   
    25   14   29 1   
    26   15   16 1   
    27   15   30 1   
    28   15   31 1   
    29   16   17 1   
    30   16   32 1   
    31   16   33 1   
    32   17   18 1   
    33   17   34 1   
    34   17   38 1   
    35   18   19 2   
    36   18   20 1   
    37   20   35 1   
    38   20   36 1   
    39   20   37 1   
@<TRIPOS>SUBSTRUCTURE
     1 M49         1 TEMP              0 ****  ****    0 ROOT
