@<TRIPOS>MOLECULE
M49
   39    40     1     0     0
SMALL
bcc


@<TRIPOS>ATOM
      1 O12         0.5850    0.5370    0.7270 o         1 M49     -0.407100
      2 C11         1.3700   -0.2630    0.2480 c         1 M49      0.570100
      3 C20         1.6920   -1.6490    0.6750 c3        1 M49     -0.188100
      4 N10         2.1520    0.2570   -0.9650 n4        1 M49     -0.551200
      5 C6          1.3610    0.1800   -2.1940 ca        1 M49     -0.107400
      6 C1          0.1830    0.9590   -2.3070 ca        1 M49     -0.038000
      7 C2         -0.5420    0.8770   -3.4730 ca        1 M49     -0.152300
      8 C5          1.7880   -0.6520   -3.2450 ca        1 M49     -0.041000
      9 C4          1.0560   -0.7410   -4.4270 ca        1 M49     -0.144000
     10 C3         -0.1150    0.0170   -4.5470 ca        1 M49      0.130600
     11 N9         -1.0100    0.0820   -5.6120 n         1 M49     -0.448100
     12 C8         -2.0660    0.9620   -5.3000 c         1 M49      0.700500
     13 O13        -2.9920    1.2550   -6.0570 o         1 M49     -0.568500
     14 C7         -1.8510    1.5100   -3.8620 c3        1 M49     -0.090400
     15 C14        -1.8580    3.0270   -3.8590 c3        1 M49     -0.086400
     16 C15        -3.2910    3.5270   -4.0490 c3        1 M49      0.088800
     17 N16        -3.3740    4.9440   -4.5030 n4        1 M49     -0.691800
     18 C17        -4.8390    5.4000   -4.5720 c         1 M49      0.563100
     19 O18        -5.2840    5.8150   -3.5180 o         1 M49     -0.381100
     20 C19        -5.4820    5.2810   -5.9060 c3        1 M49     -0.189100
     21 H1          0.9850   -1.9420    1.4990 hc        1 M49      0.122700
     22 H2          1.5800   -2.3750   -0.1700 hc        1 M49      0.122700
     23 H3          2.7390   -1.7040    1.0740 hc        1 M49      0.122700
     24 H4          3.0130   -0.2910   -1.0770 hn        1 M49      0.464300
     25 H5         -0.1540    1.6010   -1.4740 ha        1 M49      0.170000
     26 H6          2.7110   -1.2540   -3.1600 ha        1 M49      0.168000
     27 H7          1.3990   -1.4010   -5.2420 ha        1 M49      0.191000
     28 H8         -0.9330   -0.4380   -6.4540 hn        1 M49      0.380500
     29 H9         -2.6770    1.1120   -3.2080 hc        1 M49      0.121700
     30 H10        -1.4500    3.3960   -2.8800 hc        1 M49      0.079200
     31 H11        -1.1840    3.4060   -4.6740 hc        1 M49      0.079200
     32 H12        -3.8540    3.4490   -3.0730 hx        1 M49      0.127700
     33 H13        -3.8210    2.8920   -4.8240 hx        1 M49      0.127700
     34 H14        -2.8660    5.5430   -3.8400 hn        1 M49      0.458300
     35 H15        -5.0680    6.0520   -6.6070 hc        1 M49      0.125033
     36 H16        -5.3360    4.2630   -6.3480 hc        1 M49      0.125033
     37 H17        -6.5850    5.4690   -5.7860 hc        1 M49      0.125033
     38 H102        2.4040    1.2420   -0.8040 hn        1 M49      0.464300
     39 H162       -2.9420    5.0370   -5.4270 hn        1 M49      0.458300
@<TRIPOS>BOND
     1    1    2 2   
     2    2    3 1   
     3    2    4 1   
     4    3   21 1   
     5    3   22 1   
     6    3   23 1   
     7    4    5 1   
     8    4   24 1   
     9    4   38 1   
    10    5    6 ar  
    11    5    8 ar  
    12    6    7 ar  
    13    6   25 1   
    14    7   10 ar  
    15    7   14 1   
    16    8    9 ar  
    17    8   26 1   
    18    9   10 ar  
    19    9   27 1   
    20   10   11 1   
    21   11   12 1   
    22   11   28 1   
    23   12   13 2   
    24   12   14 1   
    25   14   15 1   
    26   14   29 1   
    27   15   16 1   
    28   15   30 1   
    29   15   31 1   
    30   16   17 1   
    31   16   32 1   
    32   16   33 1   
    33   17   18 1   
    34   17   34 1   
    35   17   39 1   
    36   18   19 2   
    37   18   20 1   
    38   20   35 1   
    39   20   36 1   
    40   20   37 1   
@<TRIPOS>SUBSTRUCTURE
     1 M49         1 TEMP              0 ****  ****    0 ROOT
