@<TRIPOS>MOLECULE
M4A
   22    23     1     0     0
SMALL
bcc


@<TRIPOS>ATOM
      1 CAA         3.3600   -1.2090   -0.0080 c3        1 M4A     -0.153400
      2 NAB         0.5020    2.7720    0.1930 nh        1 M4A     -0.831200
      3 CAC        -2.7470   -1.2160   -0.0570 ca        1 M4A     -0.117000
      4 CAD        -2.9500    0.1810    0.0120 ca        1 M4A     -0.142000
      5 CAE        -1.4790   -1.7360   -0.0770 ca        1 M4A     -0.174300
      6 CAF        -1.8750    1.0360    0.0560 ca        1 M4A     -0.104000
      7 CAG         1.8750    0.7860    0.0450 ca        1 M4A     -0.348300
      8 NAH         0.9210   -1.4460   -0.0440 nb        1 M4A     -0.697000
      9 CAI         1.9760   -0.6370   -0.0020 ca        1 M4A      0.467600
     10 CAJ         0.6210    1.3930    0.0680 ca        1 M4A      0.201600
     11 CAK        -0.3340   -0.8730   -0.0300 ca        1 M4A      0.430600
     12 CAL        -0.5470    0.5390    0.0300 ca        1 M4A     -0.183300
     13 HAA         3.8860   -0.9030    0.9300 hc        1 M4A      0.054033
     14 HAAA        3.3600   -2.3240   -0.0700 hc        1 M4A      0.054033
     15 HAAB        3.9220   -0.8020   -0.8850 hc        1 M4A      0.054033
     16 HNAB        1.3230    3.2920   -0.0210 hn        1 M4A      0.403800
     17 HNAA       -0.3410    3.1750   -0.1430 hn        1 M4A      0.403800
     18 HAC        -3.6220   -1.8820   -0.0930 ha        1 M4A      0.134000
     19 HAD        -3.9770    0.5730    0.0340 ha        1 M4A      0.133000
     20 HAE        -1.3180   -2.8250   -0.1260 ha        1 M4A      0.150000
     21 HAF        -2.0630    2.1180    0.1240 ha        1 M4A      0.125000
     22 HAG         2.8010    1.3760    0.0720 ha        1 M4A      0.140000
@<TRIPOS>BOND
     1    1    9 1   
     2    1   13 1   
     3    1   14 1   
     4    1   15 1   
     5    2   10 1   
     6    2   16 1   
     7    2   17 1   
     8    3    4 ar  
     9    3    5 ar  
    10    3   18 1   
    11    4    6 ar  
    12    4   19 1   
    13    5   11 ar  
    14    5   20 1   
    15    6   12 ar  
    16    6   21 1   
    17    7    9 ar  
    18    7   10 ar  
    19    7   22 1   
    20    8    9 ar  
    21    8   11 ar  
    22   10   12 ar  
    23   11   12 ar  
@<TRIPOS>SUBSTRUCTURE
     1 M4A         1 TEMP              0 ****  ****    0 ROOT
