@<TRIPOS>MOLECULE
M4A
   22    23     1     0     0
SMALL
bcc


@<TRIPOS>ATOM
      1 CAA        -0.0130   -0.0330    0.0180 c3        1 M4A     -0.153400
      2 NAB         2.8600    0.1170    3.9890 nv        1 M4A     -0.831200
      3 CAC         6.0930    0.0300   -0.0180 ca        1 M4A     -0.117000
      4 CAD         6.3020    0.0670    1.3780 ca        1 M4A     -0.142000
      5 CAE         4.8230    0.0010   -0.5330 ca        1 M4A     -0.174300
      6 CAF         5.2310    0.0690    2.2390 ca        1 M4A     -0.104000
      7 CAG         1.4800   -0.0040    2.0060 ca        1 M4A     -0.348300
      8 NAH         2.4250   -0.0180   -0.2310 nb        1 M4A     -0.697000
      9 CAI         1.3730   -0.0160    0.5830 ca        1 M4A      0.467600
     10 CAJ         2.7370    0.0260    2.6080 ca        1 M4A      0.201600
     11 CAK         3.6820    0.0040    0.3360 ca        1 M4A      0.430600
     12 CAL         3.9010    0.0310    1.7480 ca        1 M4A     -0.183300
     13 HAA        -0.5520    0.8900    0.3450 hc        1 M4A      0.054033
     14 HAAA       -0.5590   -0.9260    0.4090 hc        1 M4A      0.054033
     15 HAAB       -0.0180   -0.0720   -1.0990 hc        1 M4A      0.054033
     16 HNAB        2.0470   -0.1260    4.5070 hn        1 M4A      0.403800
     17 HNAA        3.7110   -0.2130    4.3800 hn        1 M4A      0.403800
     18 HAC         6.9660    0.0280   -0.6900 ha        1 M4A      0.134000
     19 HAD         7.3310    0.0980    1.7660 ha        1 M4A      0.133000
     20 HAE         4.6580   -0.0230   -1.6220 ha        1 M4A      0.150000
     21 HAF         5.4230    0.1130    3.3210 ha        1 M4A      0.125000
     22 HAG         0.5570   -0.0100    2.6010 ha        1 M4A      0.140000
@<TRIPOS>BOND
     1    1    9 1   
     2    1   13 1   
     3    1   14 1   
     4    1   15 1   
     5    2   10 1   
     6    2   16 1   
     7    2   17 1   
     8    3    4 ar  
     9    3    5 ar  
    10    3   18 1   
    11    4    6 ar  
    12    4   19 1   
    13    5   11 ar  
    14    5   20 1   
    15    6   12 ar  
    16    6   21 1   
    17    7    9 ar  
    18    7   10 ar  
    19    7   22 1   
    20    8    9 ar  
    21    8   11 ar  
    22   10   12 ar  
    23   11   12 ar  
@<TRIPOS>SUBSTRUCTURE
     1 M4A         1 TEMP              0 ****  ****    0 ROOT
