@<TRIPOS>MOLECULE
M4A
   22    23     1     0     0
SMALL
bcc


@<TRIPOS>ATOM
      1 CAA        -0.0180    0.0290    0.0210 c3        1 M4A     -0.153400
      2 NAB         2.8600   -0.1310    3.9890 nh        1 M4A     -0.831200
      3 CAC         6.0890   -0.0270   -0.0210 ca        1 M4A     -0.117000
      4 CAD         6.2990   -0.0680    1.3760 ca        1 M4A     -0.142000
      5 CAE         4.8190    0.0020   -0.5340 ca        1 M4A     -0.174300
      6 CAF         5.2290   -0.0740    2.2370 ca        1 M4A     -0.104000
      7 CAG         1.4780   -0.0050    2.0080 ca        1 M4A     -0.348300
      8 NAH         2.4210    0.0180   -0.2300 nb        1 M4A     -0.697000
      9 CAI         1.3690    0.0120    0.5850 ca        1 M4A      0.467600
     10 CAJ         2.7350   -0.0350    2.6090 ca        1 M4A      0.201600
     11 CAK         3.6780   -0.0050    0.3360 ca        1 M4A      0.430600
     12 CAL         3.8990   -0.0370    1.7470 ca        1 M4A     -0.183300
     13 HAA        -0.5560   -0.8950    0.3470 hc        1 M4A      0.054033
     14 HAAA       -0.5630    0.9210    0.4130 hc        1 M4A      0.054033
     15 HAAB       -0.0230    0.0690   -1.0960 hc        1 M4A      0.054033
     16 HNAB        3.7110    0.1990    4.3800 hn        1 M4A      0.403800
     17 HNAA        2.0460    0.1090    4.5090 hn        1 M4A      0.403800
     18 HAC         6.9610   -0.0220   -0.6920 ha        1 M4A      0.134000
     19 HAD         7.3280   -0.0990    1.7630 ha        1 M4A      0.133000
     20 HAE         4.6520    0.0300   -1.6230 ha        1 M4A      0.150000
     21 HAF         5.4220   -0.1210    3.3190 ha        1 M4A      0.125000
     22 HAG         0.5550   -0.0030    2.6040 ha        1 M4A      0.140000
@<TRIPOS>BOND
     1    1    9 1   
     2    1   13 1   
     3    1   14 1   
     4    1   15 1   
     5    2   10 1   
     6    2   16 1   
     7    2   17 1   
     8    3    4 ar  
     9    3    5 ar  
    10    3   18 1   
    11    4    6 ar  
    12    4   19 1   
    13    5   11 ar  
    14    5   20 1   
    15    6   12 ar  
    16    6   21 1   
    17    7    9 ar  
    18    7   10 ar  
    19    7   22 1   
    20    8    9 ar  
    21    8   11 ar  
    22   10   12 ar  
    23   11   12 ar  
@<TRIPOS>SUBSTRUCTURE
     1 M4A         1 TEMP              0 ****  ****    0 ROOT
