@<TRIPOS>MOLECULE
M4A
   23    24     1     0     0
SMALL
bcc


@<TRIPOS>ATOM
      1 CAA        -0.0310    0.0130   -0.0210 c3        1 M4A     -0.165400
      2 NAB         2.8530   -0.0190    4.0170 n4        1 M4A     -0.707000
      3 CAC         6.0850    0.0040   -0.0050 ca        1 M4A     -0.106000
      4 CAD         6.2830   -0.0060    1.3960 ca        1 M4A     -0.060000
      5 CAE         4.8200    0.0090   -0.5350 ca        1 M4A     -0.134300
      6 CAF         5.2070   -0.0110    2.2530 ca        1 M4A     -0.169000
      7 CAG         1.4490   -0.0030    1.9900 ca        1 M4A     -0.193300
      8 NAH         2.4170    0.0110   -0.2380 nb        1 M4A     -0.596000
      9 CAI         1.3500    0.0070    0.5530 ca        1 M4A      0.445600
     10 CAJ         2.7060   -0.0090    2.5590 ca        1 M4A     -0.024400
     11 CAK         3.6720    0.0050    0.3260 ca        1 M4A      0.418600
     12 CAL         3.8850   -0.0050    1.7450 ca        1 M4A     -0.140300
     13 HAA        -0.5790   -0.9000    0.3230 hc        1 M4A      0.077367
     14 HAAA       -0.0220    0.0210   -1.1400 hc        1 M4A      0.077367
     15 HAAB       -0.5760    0.9220    0.3360 hc        1 M4A      0.077367
     16 HNAB        3.3770    0.8150    4.3100 hn        1 M4A      0.466467
     17 HNAA        3.3740   -0.8580    4.2990 hn        1 M4A      0.466467
     18 HAC         6.9670    0.0070   -0.6690 ha        1 M4A      0.170000
     19 HAD         7.3130   -0.0110    1.7920 ha        1 M4A      0.163000
     20 HAE         4.6630    0.0170   -1.6280 ha        1 M4A      0.182000
     21 HAF         5.3950   -0.0180    3.3370 ha        1 M4A      0.117000
     22 HAG         0.5160   -0.0060    2.5740 ha        1 M4A      0.167000
     23 HAB3        1.9320   -0.0210    4.4700 hn        1 M4A      0.466467
@<TRIPOS>BOND
     1    1    9 1   
     2    1   13 1   
     3    1   14 1   
     4    1   15 1   
     5    2   10 1   
     6    2   16 1   
     7    2   17 1   
     8    2   23 1   
     9    3    4 ar  
    10    3    5 ar  
    11    3   18 1   
    12    4    6 ar  
    13    4   19 1   
    14    5   11 ar  
    15    5   20 1   
    16    6   12 ar  
    17    6   21 1   
    18    7    9 ar  
    19    7   10 ar  
    20    7   22 1   
    21    8    9 ar  
    22    8   11 ar  
    23   10   12 ar  
    24   11   12 ar  
@<TRIPOS>SUBSTRUCTURE
     1 M4A         1 TEMP              0 ****  ****    0 ROOT
