@<TRIPOS>MOLECULE
M4C
   39    40     1     0     0
SMALL
bcc


@<TRIPOS>ATOM
      1 P1          2.8980   -0.7410   -0.0800 p5        1 M4C      1.340900
      2 N1         -2.2010    0.4730   -0.2120 n         1 M4C     -0.372000
      3 C1         -3.6360    0.3930   -0.2790 c         1 M4C      0.821900
      4 O1         -4.2960    1.4430   -0.4720 o         1 M4C     -0.682500
      5 C2         -0.3770    4.0800    2.1750 c3        1 M4C      0.123700
      6 N2         -4.2960   -0.8330   -0.1020 nc        1 M4C     -0.757100
      7 C3         -3.5520   -1.9390    0.0890 cd        1 M4C      0.711500
      8 N3         -4.1670   -3.2060    0.1790 nh        1 M4C     -0.807200
      9 C4         -2.1120   -1.8920    0.1620 cd        1 M4C     -0.459600
     10 C5         -1.4800   -0.6740   -0.0010 cc        1 M4C      0.083600
     11 C6         -1.5430    1.7670   -0.4330 c3        1 M4C      0.291500
     12 C7         -5.5670   -3.3080    0.4590 c3        1 M4C      0.193100
     13 C8         -0.6290    2.1890    0.7640 c3        1 M4C      0.102100
     14 O2         -0.8980    3.5770    0.9570 os        1 M4C     -0.419600
     15 C9          0.7850    1.8460    0.2710 c3        1 M4C      0.088100
     16 O3          1.7470    2.7910    0.6700 oh        1 M4C     -0.649800
     17 C10         0.6790    1.7490   -1.2630 c3        1 M4C      0.067100
     18 O4         -0.7290    1.7420   -1.6020 os        1 M4C     -0.432600
     19 C11         1.3300    0.4780   -1.8630 c3        1 M4C      0.222400
     20 O5          2.6170    0.2870   -1.4470 os        1 M4C     -0.570200
     21 O6          3.2550    0.3480    0.9030 o         1 M4C     -0.925167
     22 O7          1.4990   -1.2700    0.1800 o         1 M4C     -0.925167
     23 HN4        -3.5990   -3.8630    0.6730 hn        1 M4C      0.401800
     24 H5         -1.5000   -2.7880    0.3200 ha        1 M4C      0.170000
     25 H6         -0.3410   -0.6280    0.0530 h4        1 M4C      0.303000
     26 H1'        -2.3480    2.5360   -0.6300 h2        1 M4C      0.113700
     27 H10        -5.8480   -2.8930    1.4650 h1        1 M4C      0.027700
     28 H10A       -6.1500   -2.7530   -0.3230 h1        1 M4C      0.027700
     29 H10B       -5.8560   -4.3930    0.4270 h1        1 M4C      0.027700
     30 H2'        -0.8640    1.6320    1.7090 h1        1 M4C      0.049700
     31 H3'         1.0850    0.8190    0.6750 h1        1 M4C      0.147700
     32 HO3'        2.5730    2.2680    0.7890 ho        1 M4C      0.485000
     33 H4'         1.1000    2.6710   -1.7430 h1        1 M4C      0.049700
     34 H5'         0.6830   -0.4120   -1.6240 h1        1 M4C     -0.002300
     35 H5'A        1.3270    0.6250   -2.9850 h1        1 M4C     -0.002300
     36 O8          3.9360   -1.7180   -0.5230 o         1 M4C     -0.925167
     37 H14         0.7200    3.8800    2.2580 h1        1 M4C      0.026367
     38 H15        -0.5780    5.1800    2.1290 h1        1 M4C      0.026367
     39 H16        -0.9190    3.6250    3.0430 h1        1 M4C      0.026367
@<TRIPOS>BOND
     1    1   20 1   
     2    1   21 1   
     3    1   22 1   
     4    1   36 1   
     5    2    3 1   
     6    2   10 1   
     7    2   11 1   
     8    3    4 2   
     9    3    6 1   
    10    5   14 1   
    11    5   37 1   
    12    5   38 1   
    13    5   39 1   
    14    6    7 2   
    15    7    8 1   
    16    7    9 1   
    17    8   12 1   
    18    8   23 1   
    19    9   10 2   
    20    9   24 1   
    21   10   25 1   
    22   11   13 1   
    23   11   18 1   
    24   11   26 1   
    25   12   27 1   
    26   12   28 1   
    27   12   29 1   
    28   13   14 1   
    29   13   15 1   
    30   13   30 1   
    31   15   16 1   
    32   15   17 1   
    33   15   31 1   
    34   16   32 1   
    35   17   18 1   
    36   17   19 1   
    37   17   33 1   
    38   19   20 1   
    39   19   34 1   
    40   19   35 1   
@<TRIPOS>SUBSTRUCTURE
     1 M4C         1 TEMP              0 ****  ****    0 ROOT
