@<TRIPOS>MOLECULE
M4C
   39    38     1     0     0
SMALL
bcc


@<TRIPOS>ATOM
      1 P1         -4.1440    3.3440   -0.8070 p3        1 M4C      2.517000
      2 N1          0.8370   -0.6240    0.7080 n         1 M4C     -0.264000
      3 C1          0.1770   -0.8830    1.9790 c2        1 M4C      0.341000
      4 O1         -0.2030    0.0740    2.6940 o         1 M4C     -0.400000
      5 C2          2.1720    0.4720   -3.0420 c3        1 M4C     -0.065000
      6 N2          0.0150   -2.2620    2.4570 n2        1 M4C     -0.326000
      7 C3          0.4960   -3.3440    1.6840 c1        1 M4C      0.189000
      8 N3          0.2330   -4.6790    2.0940 n2        1 M4C     -0.292000
      9 C4          1.1590   -3.0920    0.3990 c2        1 M4C     -0.372000
     10 C5          1.3280   -1.7180   -0.0780 c2        1 M4C      0.090000
     11 C6          1.1340    0.7030    0.3300 c3        1 M4C      0.143000
     12 C7          0.2870   -5.0150    3.4370 c3        1 M4C     -0.084000
     13 C8          0.9950    0.8490   -0.9680 c3        1 M4C     -0.009000
     14 O2          2.2810    0.6670   -1.6380 os        1 M4C     -0.275000
     15 C9          0.4530    2.3570   -1.1990 c3        1 M4C     -0.013000
     16 O3          1.5260    3.2650   -1.1750 oh        1 M4C     -0.380000
     17 C10        -0.4100    2.6200   -0.1590 c3        1 M4C     -0.045000
     18 O4          0.0670    1.7310    0.9920 os        1 M4C     -0.290000
     19 C11        -1.8030    2.2640   -0.5410 c3        1 M4C      0.056000
     20 O5         -2.5380    3.4350   -0.7860 o         1 M4C     -0.742000
     21 O6         -4.6580    3.3450    0.5900 o         1 M4C     -1.242667
     22 O7         -4.7000    4.5170   -1.5400 o         1 M4C     -1.242667
     23 HN4        -0.0220   -5.2770    1.5030 hn        1 M4C      0.199000
     24 H5          1.5080   -3.8770   -0.1610 ha        1 M4C      0.168000
     25 H6          1.7730   -1.5470   -0.9380 h4        1 M4C      0.274000
     26 H1'         2.0310    0.9350    0.5980 h2        1 M4C      0.150000
     27 H10        -0.0620   -5.9200    3.5590 h1        1 M4C      0.069000
     28 H10A        1.1960   -4.9790    3.7400 h1        1 M4C      0.069000
     29 H10B       -0.2410   -4.3990    3.9410 h1        1 M4C      0.069000
     30 H2'         0.3520    0.2100   -1.3080 h1        1 M4C      0.088000
     31 H3'        -0.0380    2.4190   -2.0850 h1        1 M4C      0.192000
     32 HO3'        1.2920    4.0270   -1.6310 ho        1 M4C      0.282000
     33 H4'        -0.3570    3.5790    0.0990 h1        1 M4C      0.082000
     34 H5'        -1.7850    1.7260   -1.3360 h1        1 M4C      0.054000
     35 H5'A       -2.2290    1.7550    0.1940 h1        1 M4C      0.054000
     36 O8         -4.5730    2.0610   -1.5060 o         1 M4C     -1.242667
     37 H14         2.7220    1.1430   -3.5110 h1        1 M4C      0.066000
     38 H15         1.2360    0.5720   -3.3110 h1        1 M4C      0.066000
     39 H16         2.4930   -0.4540   -3.2800 h1        1 M4C      0.066000
@<TRIPOS>BOND
     1    1   21 1   
     2    1   22 1   
     3    1   36 1   
     4    2    3 1   
     5    2   10 1   
     6    2   11 1   
     7    3    4 1   
     8    3    6 1   
     9    5   14 1   
    10    5   37 1   
    11    5   38 1   
    12    5   39 1   
    13    6    7 1   
    14    7    9 1   
    15    8   12 1   
    16    8   23 1   
    17    9   10 1   
    18    9   24 1   
    19   10   25 1   
    20   11   13 1   
    21   11   18 1   
    22   11   26 1   
    23   12   27 1   
    24   12   28 1   
    25   12   29 1   
    26   13   14 1   
    27   13   15 1   
    28   13   30 1   
    29   15   16 1   
    30   15   17 1   
    31   15   31 1   
    32   16   32 1   
    33   17   18 1   
    34   17   19 1   
    35   17   33 1   
    36   19   20 1   
    37   19   34 1   
    38   19   35 1   
@<TRIPOS>SUBSTRUCTURE
     1 M4C         1 TEMP              0 ****  ****    0 ROOT
