@<TRIPOS>MOLECULE
M4M
   46    49     1     0     0
SMALL
bcc


@<TRIPOS>ATOM
      1 C1          1.1790   -3.6030    0.6640 ca        1 M4M     -0.130600
      2 N1          4.2500    0.1750   -1.0120 nh        1 M4M     -0.841200
      3 O1          4.4740   -2.4640   -0.1250 o         1 M4M     -0.580100
      4 S1          2.7640    2.8940   -0.9970 s6        1 M4M      1.461100
      5 C2          0.3950   -4.7590    0.6780 ca        1 M4M     -0.089000
      6 N2         -0.7220    0.1450    1.6000 nh        1 M4M     -0.624000
      7 O2          2.5670    2.7240   -2.3780 o         1 M4M     -0.735533
      8 S2         -5.7890    2.1640   -0.5970 sy        1 M4M      1.542200
      9 C3          0.8390   -5.9050    0.0190 ca        1 M4M     -0.132000
     10 N3         -5.5940    3.7590   -0.5060 n3        1 M4M     -1.022700
     11 O3          4.1290    3.0040   -0.6440 o         1 M4M     -0.735533
     12 C4          2.0700   -5.9030   -0.6370 ca        1 M4M     -0.124000
     13 O4          1.9130    3.8360   -0.3900 o         1 M4M     -0.735533
     14 C5          2.8630   -4.7550   -0.6370 ca        1 M4M     -0.094000
     15 C6          2.4150   -3.5980    0.0070 ca        1 M4M     -0.113600
     16 O6         -6.8530    1.7850    0.2630 o         1 M4M     -0.677800
     17 C7          3.2410   -2.3630    0.0060 c         1 M4M      0.605300
     18 O7         -0.0190   -2.4380    2.3360 o         1 M4M     -0.561100
     19 C8          2.5110   -1.1000    0.1430 ca        1 M4M     -0.280600
     20 O8         -5.9390    1.8150   -1.9610 o         1 M4M     -0.677800
     21 C9          3.0440    0.1180   -0.3810 ca        1 M4M      0.338600
     22 C10         2.2540    1.3130   -0.2870 ca        1 M4M     -0.293500
     23 C11         1.0420    1.2810    0.3430 ca        1 M4M     -0.010000
     24 C12         0.5060    0.0830    0.9030 ca        1 M4M      0.074600
     25 C13        -1.9050    0.5650    1.0290 ca        1 M4M      0.261600
     26 C14        -3.1020    0.5230    1.8040 ca        1 M4M     -0.235000
     27 C15        -4.2840    1.0170    1.2900 ca        1 M4M      0.030000
     28 C16        -4.3640    1.5580   -0.0030 ca        1 M4M     -0.491500
     29 C17        -3.1920    1.5590   -0.7780 ca        1 M4M      0.030000
     30 C18        -1.9910    1.0810   -0.2930 ca        1 M4M     -0.235000
     31 C19         1.2470   -1.1010    0.7870 ca        1 M4M     -0.090600
     32 C20         0.7340   -2.3710    1.3510 c         1 M4M      0.593300
     33 HN1         4.6360    1.0690   -1.2390 hn        1 M4M      0.456300
     34 HN1A        4.8670   -0.5990   -0.9740 hn        1 M4M      0.456300
     35 H2         -0.5680   -4.7530    1.2130 ha        1 M4M      0.149000
     36 HN2        -0.7900   -0.4320    2.4130 hn        1 M4M      0.454800
     37 H3          0.2170   -6.8120    0.0190 ha        1 M4M      0.130000
     38 HN3        -5.7520    4.2840    0.3140 hn        1 M4M      0.440300
     39 HN3A       -5.2530    4.3060   -1.2540 hn        1 M4M      0.440300
     40 H4          2.4200   -6.8090   -1.1530 ha        1 M4M      0.130000
     41 H5          3.8450   -4.7460   -1.1370 ha        1 M4M      0.153000
     42 H11         0.4650    2.2250    0.4360 ha        1 M4M      0.178000
     43 H14        -3.0850    0.1010    2.8200 ha        1 M4M      0.150500
     44 H15        -5.2010    0.9790    1.9060 ha        1 M4M      0.143000
     45 H17        -3.2370    1.9440   -1.8130 ha        1 M4M      0.143000
     46 H18        -1.0960    1.1010   -0.9360 ha        1 M4M      0.150500
@<TRIPOS>BOND
     1    1    5 ar  
     2    1   15 ar  
     3    1   32 1   
     4    2   21 1   
     5    2   33 1   
     6    2   34 1   
     7    3   17 2   
     8    4    7 1   
     9    4   11 1   
    10    4   13 1   
    11    4   22 1   
    12    5    9 ar  
    13    5   35 1   
    14    6   24 1   
    15    6   25 1   
    16    6   36 1   
    17    8   10 1   
    18    8   16 2   
    19    8   20 2   
    20    8   28 1   
    21    9   12 ar  
    22    9   37 1   
    23   10   38 1   
    24   10   39 1   
    25   12   14 ar  
    26   12   40 1   
    27   14   15 ar  
    28   14   41 1   
    29   15   17 1   
    30   17   19 1   
    31   18   32 2   
    32   19   21 ar  
    33   19   31 ar  
    34   21   22 ar  
    35   22   23 ar  
    36   23   24 ar  
    37   23   42 1   
    38   24   31 ar  
    39   25   26 ar  
    40   25   30 ar  
    41   26   27 ar  
    42   26   43 1   
    43   27   28 ar  
    44   27   44 1   
    45   28   29 ar  
    46   29   30 ar  
    47   29   45 1   
    48   30   46 1   
    49   31   32 1   
@<TRIPOS>SUBSTRUCTURE
     1 M4M         1 TEMP              0 ****  ****    0 ROOT
