@<TRIPOS>MOLECULE
M4M
   47    50     1     0     0
SMALL
bcc


@<TRIPOS>ATOM
      1 C1         -0.0100   -1.0100    0.7150 ca        1 M4M     -0.138600
      2 N1         -4.6470    1.2570    0.2330 nh        1 M4M     -0.830200
      3 O1         -3.4760   -0.8390    1.6230 o         1 M4M     -0.555100
      4 S1         -4.5650    3.3030   -2.1370 s6        1 M4M      1.490100
      5 C2          1.2260   -1.4270    1.2160 ca        1 M4M     -0.083000
      6 N2         -0.1470    1.0270   -3.1180 nh        1 M4M     -0.575000
      7 O2         -4.2100    3.6320   -3.4890 o         1 M4M     -0.748200
      8 S2         -1.3970    5.4430   -6.2140 sy        1 M4M      1.516200
      9 C3          1.3560   -1.7380    2.5710 ca        1 M4M     -0.122000
     10 N3         -3.0870    4.9190   -5.6190 n4        1 M4M     -0.799500
     11 O3         -4.2710    4.3640   -1.2720 o         1 M4M     -0.748200
     12 C4          0.2530   -1.6480    3.4180 ca        1 M4M     -0.112000
     13 O4         -5.8340    2.7280   -1.9870 o         1 M4M     -0.748200
     14 C5         -0.9880   -1.2500    2.9180 ca        1 M4M     -0.086000
     15 C6         -1.1220   -0.9220    1.5660 ca        1 M4M     -0.119600
     16 O6         -1.4900    5.2080   -7.5820 o         1 M4M     -0.613300
     17 C7         -2.4390   -0.5020    1.0280 c         1 M4M      0.601300
     18 O7          0.5820   -1.1420   -1.5780 o         1 M4M     -0.545100
     19 C8         -2.4190    0.3170   -0.1950 ca        1 M4M     -0.261600
     20 O8         -1.3550    6.7560   -5.7660 o         1 M4M     -0.613300
     21 C9         -3.5220    1.1800   -0.5200 ca        1 M4M      0.354600
     22 C10        -3.4170    2.0150   -1.6830 ca        1 M4M     -0.327500
     23 C11        -2.3320    1.8790   -2.5000 ca        1 M4M     -0.016000
     24 C12        -1.2310    1.0340   -2.1970 ca        1 M4M      0.017600
     25 C13         0.0930    2.1680   -3.8210 ca        1 M4M      0.308600
     26 C14         0.4200    2.1620   -5.2200 ca        1 M4M     -0.237000
     27 C15         0.0480    3.2410   -5.9790 ca        1 M4M      0.054000
     28 C16        -0.5470    4.3990   -5.4070 ca        1 M4M     -0.672500
     29 C17        -0.4170    4.5350   -3.9920 ca        1 M4M      0.054000
     30 C18        -0.1160    3.4580   -3.2110 ca        1 M4M     -0.237000
     31 C19        -1.2880    0.2510   -1.0360 ca        1 M4M     -0.036600
     32 C20        -0.1710   -0.6740   -0.7100 c         1 M4M      0.592300
     33 HN1        -4.7840    0.6520    1.0080 hn        1 M4M      0.466800
     34 HN1A       -5.4280    1.7850   -0.1000 hn        1 M4M      0.466800
     35 H2          2.0860   -1.5120    0.5330 ha        1 M4M      0.153000
     36 HN2         0.2100    0.1420   -3.4140 hn        1 M4M      0.476800
     37 H3          2.3320   -2.0580    2.9660 ha        1 M4M      0.141000
     38 HN3        -3.0770    4.0380   -5.0770 hn        1 M4M      0.472133
     39 HN3A       -3.5040    5.5980   -4.9780 hn        1 M4M      0.472133
     40 H4          0.3560   -1.8980    4.4860 ha        1 M4M      0.142000
     41 H5         -1.8710   -1.1960    3.5750 ha        1 M4M      0.160000
     42 H11        -2.3260    2.4640   -3.4420 ha        1 M4M      0.146000
     43 H14         0.8800    1.2740   -5.6780 ha        1 M4M      0.171500
     44 H15         0.1610    3.2020   -7.0790 ha        1 M4M      0.161500
     45 H17        -0.6090    5.5220   -3.5310 ha        1 M4M      0.161500
     46 H18        -0.0880    3.5420   -2.1120 ha        1 M4M      0.171500
     47 H33        -3.7420    4.7840   -6.3830 hn        1 M4M      0.472133
@<TRIPOS>BOND
     1    1    5 ar  
     2    1   15 ar  
     3    1   32 1   
     4    2   21 1   
     5    2   33 1   
     6    2   34 1   
     7    3   17 2   
     8    4    7 1   
     9    4   11 1   
    10    4   13 1   
    11    4   22 1   
    12    5    9 ar  
    13    5   35 1   
    14    6   24 1   
    15    6   25 1   
    16    6   36 1   
    17    8   10 1   
    18    8   16 2   
    19    8   20 2   
    20    8   28 1   
    21    9   12 ar  
    22    9   37 1   
    23   10   38 1   
    24   10   39 1   
    25   10   47 1   
    26   12   14 ar  
    27   12   40 1   
    28   14   15 ar  
    29   14   41 1   
    30   15   17 1   
    31   17   19 1   
    32   18   32 2   
    33   19   21 ar  
    34   19   31 ar  
    35   21   22 ar  
    36   22   23 ar  
    37   23   24 ar  
    38   23   42 1   
    39   24   31 ar  
    40   25   26 ar  
    41   25   30 ar  
    42   26   27 ar  
    43   26   43 1   
    44   27   28 ar  
    45   27   44 1   
    46   28   29 ar  
    47   29   30 ar  
    48   29   45 1   
    49   30   46 1   
    50   31   32 1   
@<TRIPOS>SUBSTRUCTURE
     1 M4M         1 TEMP              0 ****  ****    0 ROOT
