@<TRIPOS>MOLECULE
M4M
   47    50     1     0     0
SMALL
bcc


@<TRIPOS>ATOM
      1 C1         -0.0560   -0.9860    0.7670 ca        1 M4M     -0.138600
      2 N1         -4.6760    1.2930    0.1970 nv        1 M4M     -0.830200
      3 O1         -3.5320   -0.7890    1.6290 o         1 M4M     -0.555100
      4 S1         -4.5560    3.3080   -2.1960 s6        1 M4M      1.490100
      5 C2          1.1720   -1.4010    1.2890 ca        1 M4M     -0.083000
      6 N2         -0.1360    1.0020   -3.0930 nu        1 M4M     -0.575000
      7 O2         -4.1820    3.6200   -3.5480 o         1 M4M     -0.748200
      8 S2         -1.3270    5.3850   -6.2590 sy        1 M4M      1.516200
      9 C3          1.2840   -1.6940    2.6490 ca        1 M4M     -0.122000
     10 N3         -3.0260    4.8760   -5.6800 nz        1 M4M     -0.799500
     11 O3         -4.2690    4.3790   -1.3410 o         1 M4M     -0.748200
     12 C4          0.1710   -1.5900    3.4820 ca        1 M4M     -0.112000
     13 O4         -5.8290    2.7410   -2.0560 o         1 M4M     -0.748200
     14 C5         -1.0620   -1.1930    2.9600 ca        1 M4M     -0.086000
     15 C6         -1.1780   -0.8820    1.6020 ca        1 M4M     -0.119600
     16 O6         -1.4030    5.1330   -7.6250 o         1 M4M     -0.613300
     17 C7         -2.4860   -0.4650    1.0430 c         1 M4M      0.601300
     18 O7          0.5640   -1.1500   -1.5160 o         1 M4M     -0.545100
     19 C8         -2.4480    0.3390   -0.1900 ca        1 M4M     -0.261600
     20 O8         -1.2840    6.7040   -5.8270 o         1 M4M     -0.613300
     21 C9         -3.5430    1.2020   -0.5400 ca        1 M4M      0.354600
     22 C10        -3.4200    2.0220   -1.7120 ca        1 M4M     -0.327500
     23 C11        -2.3240    1.8710   -2.5130 ca        1 M4M     -0.016000
     24 C12        -1.2310    1.0250   -2.1860 ca        1 M4M      0.017600
     25 C13         0.1180    2.1330   -3.8070 ca        1 M4M      0.308600
     26 C14         0.4630    2.1080   -5.2010 ca        1 M4M     -0.237000
     27 C15         0.1050    3.1800   -5.9790 ca        1 M4M      0.054000
     28 C16        -0.4920    4.3480   -5.4280 ca        1 M4M     -0.672500
     29 C17        -0.3790    4.5000   -4.0130 ca        1 M4M      0.054000
     30 C18        -0.0930    3.4320   -3.2160 ca        1 M4M     -0.237000
     31 C19        -1.3070    0.2570   -1.0160 ca        1 M4M     -0.036600
     32 C20        -0.1980   -0.6680   -0.6640 c         1 M4M      0.592300
     33 HN1        -5.4510    1.8200   -0.1520 hn        1 M4M      0.466800
     34 HN1A       -4.8260    0.6990    0.9780 hn        1 M4M      0.466800
     35 H2          2.0400   -1.4990    0.6180 ha        1 M4M      0.153000
     36 HN2         0.2210    0.1120   -3.3740 hn        1 M4M      0.476800
     37 H3          2.2530   -2.0140    3.0610 ha        1 M4M      0.141000
     38 HN3        -3.0270    4.0030   -5.1240 hn        1 M4M      0.472133
     39 HN3A       -3.4490    5.5650   -5.0540 hn        1 M4M      0.472133
     40 H4          0.2600   -1.8260    4.5530 ha        1 M4M      0.142000
     41 H5         -1.9520   -1.1280    3.6060 ha        1 M4M      0.160000
     42 H11        -2.3050    2.4440   -3.4630 ha        1 M4M      0.146000
     43 H14         0.9240    1.2130   -5.6420 ha        1 M4M      0.171500
     44 H15         0.2320    3.1260   -7.0760 ha        1 M4M      0.161500
     45 H17        -0.5730    5.4930   -3.5670 ha        1 M4M      0.161500
     46 H18        -0.0790    3.5290   -2.1170 ha        1 M4M      0.171500
     47 H33        -3.6720    4.7310   -6.4500 hn        1 M4M      0.472133
@<TRIPOS>BOND
     1    1    5 ar  
     2    1   15 ar  
     3    1   32 1   
     4    2   21 1   
     5    2   33 1   
     6    2   34 1   
     7    3   17 2   
     8    4    7 1   
     9    4   11 1   
    10    4   13 1   
    11    4   22 1   
    12    5    9 ar  
    13    5   35 1   
    14    6   24 1   
    15    6   25 1   
    16    6   36 1   
    17    8   10 1   
    18    8   16 2   
    19    8   20 2   
    20    8   28 1   
    21    9   12 ar  
    22    9   37 1   
    23   10   38 1   
    24   10   39 1   
    25   10   47 1   
    26   12   14 ar  
    27   12   40 1   
    28   14   15 ar  
    29   14   41 1   
    30   15   17 1   
    31   17   19 1   
    32   18   32 2   
    33   19   21 ar  
    34   19   31 ar  
    35   21   22 ar  
    36   22   23 ar  
    37   23   24 ar  
    38   23   42 1   
    39   24   31 ar  
    40   25   26 ar  
    41   25   30 ar  
    42   26   27 ar  
    43   26   43 1   
    44   27   28 ar  
    45   27   44 1   
    46   28   29 ar  
    47   29   30 ar  
    48   29   45 1   
    49   30   46 1   
    50   31   32 1   
@<TRIPOS>SUBSTRUCTURE
     1 M4M         1 TEMP              0 ****  ****    0 ROOT
