@<TRIPOS>MOLECULE
M4M
   49    52     1     0     0
SMALL
bcc


@<TRIPOS>ATOM
      1 C1         -0.0640   -0.5600    0.3290 ca        1 M4M     -0.142600
      2 N1         -3.4040    1.2500   -1.9350 n4        1 M4M     -0.727000
      3 O1         -2.2080    0.4360    0.2640 o         1 M4M     -0.538100
      4 S1         -3.1910    2.1620   -5.2580 s6        1 M4M      1.499100
      5 C2          2.2450   -1.3100    0.3790 ca        1 M4M     -0.051000
      6 N2          1.6030    0.5240   -4.5530 n4        1 M4M     -0.529800
      7 O2         -4.0180    2.6920   -4.2830 o         1 M4M     -0.695533
      8 S2          3.6960    6.0080   -5.3540 sy        1 M4M      1.467200
      9 C3          2.0340   -1.8600    1.6500 ca        1 M4M     -0.091000
     10 N3          4.3690    5.9460   -7.1210 n4        1 M4M     -0.799500
     11 O3         -3.6480    1.1610   -6.0630 o         1 M4M     -0.695533
     12 C4          0.7870   -1.7580    2.2570 ca        1 M4M     -0.078000
     13 O4         -2.1270    2.9240   -5.7180 o         1 M4M     -0.695533
     14 C5         -0.2630   -1.1010    1.6010 ca        1 M4M     -0.052000
     15 C6          1.1980   -0.6660   -0.2880 ca        1 M4M     -0.156600
     16 O6          2.6960    6.9390   -5.5020 o         1 M4M     -0.537300
     17 C7         -1.1670    0.1340   -0.3400 c         1 M4M      0.594300
     18 O7          2.5750    0.0360   -2.0820 o         1 M4M     -0.588100
     19 C8         -1.0150    0.4550   -1.7920 ca        1 M4M     -0.100600
     20 O8          4.8560    6.2240   -4.6490 o         1 M4M     -0.537300
     21 C9         -2.1190    0.9270   -2.5570 ca        1 M4M      0.093600
     22 C10        -2.0100    1.1060   -3.9310 ca        1 M4M     -0.084500
     23 C11        -0.8180    0.8010   -4.5690 ca        1 M4M     -0.044000
     24 C12         0.3280    0.5260   -3.8160 ca        1 M4M     -0.010400
     25 C13         2.1120    1.8910   -4.7850 ca        1 M4M      0.077600
     26 C14         1.3090    2.8670   -5.4010 ca        1 M4M     -0.117000
     27 C15         1.8330    4.1410   -5.6130 ca        1 M4M      0.020000
     28 C16         3.1450    4.4720   -5.2300 ca        1 M4M     -0.480500
     29 C17         3.9250    3.4780   -4.6080 ca        1 M4M      0.020000
     30 C18         3.4230    2.2020   -4.3750 ca        1 M4M     -0.117000
     31 C19         0.2350    0.3030   -2.4170 ca        1 M4M     -0.093600
     32 C20         1.4270   -0.0990   -1.6150 c         1 M4M      0.614300
     33 HN1        -3.9920    1.8220   -2.5810 hn        1 M4M      0.491133
     34 HN1A       -3.8940    0.3790   -1.6990 hn        1 M4M      0.491133
     35 H2          3.2370   -1.3810   -0.0990 ha        1 M4M      0.169000
     36 HN2         2.3190   -0.0210   -4.0290 hn        1 M4M      0.487800
     37 H3          2.8640   -2.3730    2.1660 ha        1 M4M      0.175000
     38 HN3         3.9050    6.6490   -7.7030 hn        1 M4M      0.469133
     39 HN3A        5.3690    6.1620   -7.1300 hn        1 M4M      0.469133
     40 H4          0.6180   -2.1880    3.2600 ha        1 M4M      0.177000
     41 H5         -1.2500   -1.0050    2.0880 ha        1 M4M      0.179000
     42 H11        -0.8010    0.8440   -5.6770 ha        1 M4M      0.185000
     43 H14         0.2500    2.6880   -5.7000 ha        1 M4M      0.218000
     44 H15         1.1710    4.9090   -6.0660 ha        1 M4M      0.199500
     45 H17         4.9520    3.7170   -4.2640 ha        1 M4M      0.199500
     46 H18         4.0520    1.4600   -3.8430 ha        1 M4M      0.218000
     47 H13        -3.2480    1.7740   -1.0610 hn        1 M4M      0.491133
     48 H22         1.4480    0.0770   -5.4700 hn        1 M4M      0.487800
     49 H33         4.2490    5.0460   -7.5780 hn        1 M4M      0.469133
@<TRIPOS>BOND
     1    1   14 ar  
     2    1   15 ar  
     3    1   17 1   
     4    2   21 1   
     5    2   33 1   
     6    2   34 1   
     7    2   47 1   
     8    3   17 2   
     9    4    7 1   
    10    4   11 1   
    11    4   13 1   
    12    4   22 1   
    13    5    9 ar  
    14    5   15 ar  
    15    5   35 1   
    16    6   24 1   
    17    6   25 1   
    18    6   36 1   
    19    6   48 1   
    20    8   10 1   
    21    8   16 2   
    22    8   20 2   
    23    8   28 1   
    24    9   12 ar  
    25    9   37 1   
    26   10   38 1   
    27   10   39 1   
    28   10   49 1   
    29   12   14 ar  
    30   12   40 1   
    31   14   41 1   
    32   15   32 1   
    33   17   19 1   
    34   18   32 2   
    35   19   21 ar  
    36   19   31 ar  
    37   21   22 ar  
    38   22   23 ar  
    39   23   24 ar  
    40   23   42 1   
    41   24   31 ar  
    42   25   26 ar  
    43   25   30 ar  
    44   26   27 ar  
    45   26   43 1   
    46   27   28 ar  
    47   27   44 1   
    48   28   29 ar  
    49   29   30 ar  
    50   29   45 1   
    51   30   46 1   
    52   31   32 1   
@<TRIPOS>SUBSTRUCTURE
     1 M4M         1 TEMP              0 ****  ****    0 ROOT
