@<TRIPOS>MOLECULE
M4S
   22    22     1     0     0
SMALL
bcc


@<TRIPOS>ATOM
      1 C1          0.0020    0.0030    0.0130 ca        1 M4S      0.050500
      2 N1         -2.8190   -1.6590    1.1180 nz        1 M4S     -0.783500
      3 O1          3.3770   -0.0940    1.2720 os        1 M4S     -0.279900
      4 S1         -2.3610    0.2340    1.1090 sy        1 M4S      1.510200
      5 C2          1.3730   -0.0570    0.0610 ca        1 M4S     -0.213000
      6 O2         -2.8720    0.5680   -0.1260 o         1 M4S     -0.574300
      7 C3          2.0290   -0.0350    1.3230 ca        1 M4S      0.275100
      8 O3         -2.9870    0.6100    2.2790 o         1 M4S     -0.574300
      9 C4          1.2670    0.0450    2.5120 ca        1 M4S     -0.213000
     10 C5         -0.7920    0.0780    1.1910 ca        1 M4S     -0.631500
     11 C6          4.1000   -0.0410    2.5110 c3        1 M4S      0.099700
     12 C7         -0.1070    0.1010    2.4330 ca        1 M4S      0.050500
     13 H1         -0.5060    0.0140   -0.9720 ha        1 M4S      0.169500
     14 HN1        -3.3370   -1.8970    0.2750 hn        1 M4S      0.450467
     15 HN1A       -3.4100   -1.8730    1.9180 hn        1 M4S      0.450467
     16 H2          1.9820   -0.1100   -0.8570 ha        1 M4S      0.184000
     17 H4          1.7670    0.0730    3.4930 ha        1 M4S      0.184000
     18 H6          3.8390   -0.9210    3.1460 h1        1 M4S      0.075033
     19 H6A         5.1680   -0.0910    2.1720 h1        1 M4S      0.075033
     20 H6B         3.8920    0.9200    3.0390 h1        1 M4S      0.075033
     21 H7         -0.6990    0.1860    3.3660 ha        1 M4S      0.169500
     22 H13        -1.9990   -2.2530    1.1630 hn        1 M4S      0.450467
@<TRIPOS>BOND
     1    1    5 ar  
     2    1   10 ar  
     3    1   13 1   
     4    2    4 1   
     5    2   14 1   
     6    2   15 1   
     7    2   22 1   
     8    3    7 1   
     9    3   11 1   
    10    4    6 2   
    11    4    8 2   
    12    4   10 1   
    13    5    7 ar  
    14    5   16 1   
    15    7    9 ar  
    16    9   12 ar  
    17    9   17 1   
    18   10   12 ar  
    19   11   18 1   
    20   11   19 1   
    21   11   20 1   
    22   12   21 1   
@<TRIPOS>SUBSTRUCTURE
     1 M4S         1 TEMP              0 ****  ****    0 ROOT
