@<TRIPOS>MOLECULE
M4S
   21    17     1     0     0
SMALL
bcc


@<TRIPOS>ATOM
      1 C1         -0.5020    0.0780   -1.2630 c1        1 M4S     -0.029500
      2 N1         -3.6880   -1.2630    0.0880 n3        1 M4S     -1.009500
      3 O1          2.8440   -0.2870   -0.4810 os        1 M4S     -0.303400
      4 S1         -2.9520    0.1970   -0.0570 s4        1 M4S      1.735700
      5 C2          0.8820    0.1580   -1.2650 c1        1 M4S     -0.029500
      6 O2         -3.4010    0.8940   -1.2290 o         1 M4S     -0.549400
      7 C3          1.5780    0.1590   -0.0660 c1        1 M4S      0.171600
      8 O3         -3.3710    1.0970    0.9810 o         1 M4S     -0.549400
      9 C4          0.8900    0.0800    1.1340 c1        1 M4S     -0.178500
     10 C5         -1.1900   -0.0020   -0.0630 c1        1 M4S     -0.874000
     11 C6          3.9170    0.3650    0.1600 c3        1 M4S      0.109700
     12 C7         -0.4940   -0.0010    1.1360 c1        1 M4S      0.080500
     13 H1         -0.9920    0.0770   -2.1070 ha        1 M4S      0.099000
     14 HN1        -3.9950   -1.5420    0.9020 hn        1 M4S      0.445800
     15 HN1A       -3.7930   -1.7970   -0.6470 hn        1 M4S      0.445800
     16 H2          1.3660    0.2140   -2.1110 ha        1 M4S      0.099000
     17 H4          1.3800    0.0800    1.9790 ha        1 M4S      0.087500
     18 H6          3.6730    1.2980    0.3410 h1        1 M4S      0.050700
     19 H6A         4.1180   -0.0900    1.0070 h1        1 M4S      0.050700
     20 H6B         4.7090    0.3410   -0.4200 h1        1 M4S      0.050700
     21 H7         -0.9780   -0.0570    1.9820 ha        1 M4S      0.096500
@<TRIPOS>BOND
     1    1    5 3   
     2    1   13 1   
     3    2    4 1   
     4    2   14 1   
     5    2   15 1   
     6    3    7 1   
     7    3   11 1   
     8    4    6 1   
     9    4    8 1   
    10    5   16 1   
    11    7    9 3   
    12    9   17 1   
    13   10   12 3   
    14   11   18 1   
    15   11   19 1   
    16   11   20 1   
    17   12   21 1   
@<TRIPOS>SUBSTRUCTURE
     1 M4S         1 TEMP              0 ****  ****    0 ROOT
