@<TRIPOS>MOLECULE
M4S
   22    22     1     0     0
SMALL
bcc


@<TRIPOS>ATOM
      1 C1          0.0000    0.0180    0.0160 ca        1 M4S      0.050500
      2 N1         -2.8210   -1.6520    1.1090 n4        1 M4S     -0.783500
      3 O1          3.3770   -0.0940    1.2690 os        1 M4S     -0.279900
      4 S1         -2.3610    0.2400    1.1180 sy        1 M4S      1.510200
      5 C2          1.3710   -0.0440    0.0620 ca        1 M4S     -0.213000
      6 O2         -2.8730    0.5860   -0.1130 o         1 M4S     -0.574300
      7 C3          2.0290   -0.0350    1.3230 ca        1 M4S      0.275100
      8 O3         -2.9860    0.6050    2.2920 o         1 M4S     -0.574300
      9 C4          1.2680    0.0340    2.5130 ca        1 M4S     -0.213000
     10 C5         -0.7920    0.0820    1.1960 ca        1 M4S     -0.631500
     11 C6          4.1020   -0.0550    2.5080 c3        1 M4S      0.099700
     12 C7         -0.1060    0.0920    2.4370 ca        1 M4S      0.050500
     13 H1         -0.5090    0.0400   -0.9670 ha        1 M4S      0.169500
     14 HN1        -3.4100   -1.8740    1.9080 hn        1 M4S      0.450467
     15 HN1A       -2.0010   -2.2480    1.1470 hn        1 M4S      0.450467
     16 H2          1.9790   -0.0870   -0.8570 ha        1 M4S      0.184000
     17 H4          1.7700    0.0510    3.4950 ha        1 M4S      0.184000
     18 H6          3.8950    0.9010    3.0460 h1        1 M4S      0.075033
     19 H6A         5.1690   -0.1030    2.1670 h1        1 M4S      0.075033
     20 H6B         3.8410   -0.9410    3.1340 h1        1 M4S      0.075033
     21 H7         -0.6970    0.1680    3.3720 ha        1 M4S      0.169500
     22 H13        -3.3400   -1.8820    0.2650 hn        1 M4S      0.450467
@<TRIPOS>BOND
     1    1    5 ar  
     2    1   10 ar  
     3    1   13 1   
     4    2    4 1   
     5    2   14 1   
     6    2   15 1   
     7    2   22 1   
     8    3    7 1   
     9    3   11 1   
    10    4    6 2   
    11    4    8 2   
    12    4   10 1   
    13    5    7 ar  
    14    5   16 1   
    15    7    9 ar  
    16    9   12 ar  
    17    9   17 1   
    18   10   12 ar  
    19   11   18 1   
    20   11   19 1   
    21   11   20 1   
    22   12   21 1   
@<TRIPOS>SUBSTRUCTURE
     1 M4S         1 TEMP              0 ****  ****    0 ROOT
