@<TRIPOS>MOLECULE
M4S
   21    21     1     0     0
SMALL
bcc


@<TRIPOS>ATOM
      1 C1         -0.1420   -1.3040   -0.0230 ca        1 M4S      0.017500
      2 N1          2.6290    0.0690   -1.4260 n3        1 M4S     -1.026700
      3 O1         -3.6480   -0.3950   -0.0960 os        1 M4S     -0.319900
      4 S1          2.1890    0.0220    0.1150 sy        1 M4S      1.533200
      5 C2         -1.5230   -1.3940   -0.0670 ca        1 M4S     -0.211000
      6 O2          2.6740   -1.1710    0.6930 o         1 M4S     -0.661800
      7 C3         -2.2870   -0.2080   -0.0430 ca        1 M4S      0.188100
      8 O3          2.5460    1.2430    0.7300 o         1 M4S     -0.661800
      9 C4         -1.6580    1.0430    0.0310 ca        1 M4S     -0.211000
     10 C5          0.5100   -0.0630    0.0390 ca        1 M4S     -0.429500
     11 C6         -4.4540    0.7790   -0.0410 c3        1 M4S      0.109700
     12 C7         -0.2700    1.0990    0.0720 ca        1 M4S      0.017500
     13 H1          0.4640   -2.2290   -0.0170 ha        1 M4S      0.154500
     14 HN1         2.8350   -0.7360   -1.9610 hn        1 M4S      0.445800
     15 HN1A        2.7490    0.9070   -1.9360 hn        1 M4S      0.445800
     16 H2         -2.0350   -2.3660   -0.1130 ha        1 M4S      0.151500
     17 H4         -2.2450    1.9720    0.0620 ha        1 M4S      0.151500
     18 H6         -4.2820    1.3300    0.9160 h1        1 M4S      0.050700
     19 H6A        -4.2470    1.4390   -0.9180 h1        1 M4S      0.050700
     20 H6B        -5.4980    0.3770   -0.0850 h1        1 M4S      0.050700
     21 H7          0.2320    2.0810    0.1520 ha        1 M4S      0.154500
@<TRIPOS>BOND
     1    1    5 ar  
     2    1   10 ar  
     3    1   13 1   
     4    2    4 1   
     5    2   14 1   
     6    2   15 1   
     7    3    7 1   
     8    3   11 1   
     9    4    6 2   
    10    4    8 2   
    11    4   10 1   
    12    5    7 ar  
    13    5   16 1   
    14    7    9 ar  
    15    9   12 ar  
    16    9   17 1   
    17   10   12 ar  
    18   11   18 1   
    19   11   19 1   
    20   11   20 1   
    21   12   21 1   
@<TRIPOS>SUBSTRUCTURE
     1 M4S         1 TEMP              0 ****  ****    0 ROOT
