@<TRIPOS>MOLECULE
M4S
   22    22     1     0     0
SMALL
bcc


@<TRIPOS>ATOM
      1 C1         -0.0040    0.0050    0.0150 ca        1 M4S      0.050500
      2 N1         -2.8210   -1.6570    1.1280 n4        1 M4S     -0.783500
      3 O1          3.3770   -0.0950    1.2600 os        1 M4S     -0.279900
      4 S1         -2.3620    0.2360    1.1210 sy        1 M4S      1.510200
      5 C2          1.3670   -0.0560    0.0570 ca        1 M4S     -0.213000
      6 O2         -2.8770    0.5720   -0.1120 o         1 M4S     -0.574300
      7 C3          2.0280   -0.0360    1.3170 ca        1 M4S      0.275100
      8 O3         -2.9840    0.6100    2.2930 o         1 M4S     -0.574300
      9 C4          1.2710    0.0430    2.5090 ca        1 M4S     -0.213000
     10 C5         -0.7930    0.0790    1.1960 ca        1 M4S     -0.631500
     11 C6          4.1040   -0.0450    2.4960 c3        1 M4S      0.099700
     12 C7         -0.1030    0.1000    2.4350 ca        1 M4S      0.050500
     13 H1         -0.5150    0.0190   -0.9680 ha        1 M4S      0.169500
     14 HN1        -3.3420   -1.8930    0.2870 hn        1 M4S      0.450467
     15 HN1A       -3.4090   -1.8720    1.9300 hn        1 M4S      0.450467
     16 H2          1.9740   -0.1070   -0.8630 ha        1 M4S      0.184000
     17 H4          1.7750    0.0690    3.4880 ha        1 M4S      0.184000
     18 H6          3.8450   -0.9260    3.1310 h1        1 M4S      0.075033
     19 H6A         5.1710   -0.0950    2.1540 h1        1 M4S      0.075033
     20 H6B         3.8990    0.9160    3.0260 h1        1 M4S      0.075033
     21 H7         -0.6920    0.1840    3.3700 ha        1 M4S      0.169500
     22 H13        -2.0010   -2.2510    1.1690 hn        1 M4S      0.450467
@<TRIPOS>BOND
     1    1    5 ar  
     2    1   10 ar  
     3    1   13 1   
     4    2    4 1   
     5    2   14 1   
     6    2   15 1   
     7    2   22 1   
     8    3    7 1   
     9    3   11 1   
    10    4    6 2   
    11    4    8 2   
    12    4   10 1   
    13    5    7 ar  
    14    5   16 1   
    15    7    9 ar  
    16    9   12 ar  
    17    9   17 1   
    18   10   12 ar  
    19   11   18 1   
    20   11   19 1   
    21   11   20 1   
    22   12   21 1   
@<TRIPOS>SUBSTRUCTURE
     1 M4S         1 TEMP              0 ****  ****    0 ROOT
