@<TRIPOS>MOLECULE
M4V
   38    52     1     0     0
SMALL
bcc


@<TRIPOS>ATOM
      1 NAA         0.0000    0.0000    0.0000 nz        1 M4V      0.250000
      2 OAB         3.9870   -0.0010   -2.2810 o         1 M4V     -0.213000
      3 CAD         8.8300    0.0030   -2.2520 c3        1 M4V      0.613000
      4 CAE         8.5860   -1.0980   -1.4510 c3        1 M4V     -0.134000
      5 CAF         7.9930    1.1030   -2.2000 c3        1 M4V     -0.025000
      6 CAG         7.5050   -1.1060   -0.5930 c2        1 M4V     -0.202000
      7 CAH         6.9090    1.1090   -1.3470 c2        1 M4V     -0.097000
      8 CAI         8.0120   -0.8800    4.4360 c3        1 M4V     -0.104000
      9 CAJ         8.9340    0.8750    3.0790 c2        1 M4V     -0.097000
     10 CAK         6.8680   -0.8840    3.6660 c3        1 M4V     -0.094000
     11 CAL         7.7950    0.8820    2.3020 c2        1 M4V     -0.154000
     12 NAM         2.0080    0.0000    1.1500 n2        1 M4V      0.018000
     13 NAN         2.0310    0.0000   -1.1930 n7        1 M4V     -0.275000
     14 NAO         4.2380    0.0000    2.2400 na        1 M4V      0.016000
     15 CAP         9.0430   -0.0020    4.1450 c2        1 M4V      0.244000
     16 CAQ         1.3720    0.0000    0.0000 DU        1 M4V     -0.098000
     17 CAR         6.7510    0.0000    2.5900 c3        1 M4V      0.338000
     18 CAS         6.6570    0.0010   -0.5360 c3        1 M4V      0.363000
     19 CAT         5.5290    0.0010    1.7610 c2        1 M4V      0.034000
     20 CAU         5.4960    0.0010    0.3820 c2        1 M4V      0.076000
     21 CAV         3.3830   -0.0000   -1.2220 c3        1 M4V      0.448000
     22 CAW         3.3480    0.0000    1.2050 c2        1 M4V      0.025000
     23 CAX         4.0780    0.0010    0.0070 c2        1 M4V     -0.417000
     24 HNAA        0.8380    0.1150    0.5350 DU        1 M4V      0.188500
     25 HNAB       -0.4940   -0.8630   -0.1150 hn        1 M4V      0.134000
     26 HAD         7.7780    0.1000   -2.0110 DU        1 M4V      0.090000
     27 HAE         9.1440   -0.5390   -2.1920 DU        1 M4V      0.138000
     28 HAF         8.3950    0.1220   -1.9750 DU        1 M4V     -0.587000
     29 HAG         7.6970   -0.2440   -1.2210 DU        1 M4V      0.230000
     30 HAH         7.0220    0.1160   -0.9270 ha        1 M4V     -0.290000
     31 HAI         7.7310   -0.4070    3.5030 DU        1 M4V      0.320000
     32 HAJ         8.6690    0.0940    3.7810 ha        1 M4V     -0.115000
     33 HAK         7.6750   -0.1980    3.4390 DU        1 M4V     -0.163000
     34 HAL         7.2420    0.1000    2.8090 ha        1 M4V     -0.188000
     35 HNAN        2.9040    0.2520   -0.7740 DU        1 M4V      0.238000
     36 HNAO        3.7020   -0.0000    1.3950 hn        1 M4V      0.177000
     37 HAA3        0.7790    0.0000   -0.6280 DU        1 M4V      0.188500
     38 Br         10.6100   -0.0040    5.2050 br        1 M4V      0.126000
@<TRIPOS>BOND
     1    1   16 1   
     2    1   24 1   
     3    1   25 1   
     4    1   37 1   
     5    2   21 1   
     6    3    4 1   
     7    3    5 1   
     8    3   26 1   
     9    3   27 1   
    10    4    6 1   
    11    4   27 1   
    12    4   29 1   
    13    5    7 1   
    14    5   26 1   
    15    5   28 1   
    16    6   18 1   
    17    6   29 1   
    18    7   18 1   
    19    7   30 1   
    20    8   10 1   
    21    8   15 1   
    22    8   31 1   
    23    8   33 1   
    24    9   11 1   
    25    9   15 1   
    26    9   32 1   
    27   10   17 1   
    28   10   31 1   
    29   10   33 1   
    30   11   17 1   
    31   11   34 1   
    32   12   16 1   
    33   12   22 1   
    34   13   16 1   
    35   13   21 1   
    36   13   35 1   
    37   14   19 1   
    38   14   22 1   
    39   14   36 1   
    40   15   38 1   
    41   16   24 1   
    42   16   37 1   
    43   17   19 1   
    44   17   33 1   
    45   18   20 1   
    46   18   29 1   
    47   19   20 1   
    48   20   23 1   
    49   21   23 1   
    50   21   35 1   
    51   22   23 1   
    52   26   28 1   
@<TRIPOS>SUBSTRUCTURE
     1 M4V         1 TEMP              0 ****  ****    0 ROOT
