@<TRIPOS>MOLECULE
M4V
   38    41     1     0     0
SMALL
bcc


@<TRIPOS>ATOM
      1 NAA        -0.0780   -0.1030    0.0770 n4        1 M4V     -0.792600
      2 OAB         3.9190   -0.0000   -2.4620 o         1 M4V     -0.531500
      3 CAD         8.8450    0.0400   -2.3590 ca        1 M4V     -0.104000
      4 CAE         8.4310   -1.1570   -1.7760 ca        1 M4V     -0.125500
      5 CAF         8.1770    1.2280   -2.0600 ca        1 M4V     -0.125500
      6 CAG         7.3500   -1.1720   -0.8950 ca        1 M4V     -0.103000
      7 CAH         7.0960    1.2220   -1.1800 ca        1 M4V     -0.103000
      8 CAI         7.8980   -0.7080    4.6230 ca        1 M4V     -0.101000
      9 CAJ         8.9890    0.8220    3.0980 ca        1 M4V     -0.101000
     10 CAK         6.7800   -0.7390    3.7950 ca        1 M4V     -0.100000
     11 CAL         7.8710    0.7910    2.2670 ca        1 M4V     -0.100000
     12 NAM         2.0170   -0.0710    1.2380 nc        1 M4V     -0.529100
     13 NAN         2.0360   -0.0490   -1.2080 n         1 M4V     -0.505400
     14 NAO         4.2960   -0.0360    2.2490 na        1 M4V     -0.118100
     15 CAP         9.0060    0.0750    4.2800 ca        1 M4V     -0.003900
     16 CAQ         1.4210   -0.0730    0.0460 cd        1 M4V      0.479800
     17 CAR         6.7580    0.0130    2.6100 ca        1 M4V     -0.062000
     18 CAS         6.6760    0.0190   -0.5930 ca        1 M4V     -0.061000
     19 CAT         5.5940   -0.0080    1.7380 cc        1 M4V      0.030700
     20 CAU         5.5430    0.0060    0.3110 cd        1 M4V     -0.002000
     21 CAV         3.4690   -0.0190   -1.3150 c         1 M4V      0.751100
     22 CAW         3.4020   -0.0420    1.1800 cc        1 M4V      0.081100
     23 CAX         4.1670   -0.0150   -0.0440 cd        1 M4V     -0.163600
     24 HNAA       -0.4460    0.7350   -0.3890 hn        1 M4V      0.478467
     25 HNAB       -0.4050   -0.1170    1.0550 hn        1 M4V      0.478467
     26 HAD         9.6970    0.0480   -3.0560 ha        1 M4V      0.146000
     27 HAE         8.9560   -2.0960   -2.0120 ha        1 M4V      0.144500
     28 HAF         8.5010    2.1730   -2.5210 ha        1 M4V      0.144500
     29 HAG         7.0260   -2.1190   -0.4390 ha        1 M4V      0.135500
     30 HAH         6.5690    2.1590   -0.9510 ha        1 M4V      0.135500
     31 HAI         7.9050   -1.3080    5.5480 ha        1 M4V      0.162500
     32 HAJ         9.8570    1.4400    2.8130 ha        1 M4V      0.162500
     33 HAK         5.9270   -1.3760    4.0720 ha        1 M4V      0.145500
     34 HAL         7.8650    1.3740    1.3300 ha        1 M4V      0.145500
     35 HNAN        1.5090   -0.0560   -2.0550 hn        1 M4V      0.345500
     36 HNAO        4.0530   -0.0450    3.2100 hn        1 M4V      0.329700
     37 HAA3       -0.4120   -0.9460   -0.4020 hn        1 M4V      0.478467
     38 BR         10.5040    0.1190    5.3970 br        1 M4V     -0.044100
@<TRIPOS>BOND
     1    1   16 1   
     2    1   24 1   
     3    1   25 1   
     4    1   37 1   
     5    2   21 2   
     6    3    4 ar  
     7    3    5 ar  
     8    3   26 1   
     9    4    6 ar  
    10    4   27 1   
    11    5    7 ar  
    12    5   28 1   
    13    6   18 ar  
    14    6   29 1   
    15    7   18 ar  
    16    7   30 1   
    17    8   10 ar  
    18    8   15 ar  
    19    8   31 1   
    20    9   11 ar  
    21    9   15 ar  
    22    9   32 1   
    23   10   17 ar  
    24   10   33 1   
    25   11   17 ar  
    26   11   34 1   
    27   12   16 2   
    28   12   22 1   
    29   13   16 1   
    30   13   21 1   
    31   13   35 1   
    32   14   19 1   
    33   14   22 1   
    34   14   36 1   
    35   15   38 1   
    36   17   19 1   
    37   18   20 1   
    38   19   20 2   
    39   20   23 1   
    40   21   23 1   
    41   22   23 2   
@<TRIPOS>SUBSTRUCTURE
     1 M4V         1 TEMP              0 ****  ****    0 ROOT
