@<TRIPOS>MOLECULE
M4Z
   69    71     1     0     0
SMALL
bcc


@<TRIPOS>ATOM
      1 C1         -3.2910    1.0720   -0.0170 c3        1 M4Z     -0.086700
      2 C2         -3.1140    2.4170    0.6720 c3        1 M4Z     -0.082900
      3 C3         -3.8300    3.5190   -0.0820 c3        1 M4Z     -0.072900
      4 C4         -3.3680    3.5860   -1.5230 c3        1 M4Z     -0.079400
      5 C5         -3.5420    2.2490   -2.2120 c3        1 M4Z     -0.072900
      6 C6         -2.8330    1.1380   -1.4640 c3        1 M4Z     -0.082900
      7 N7         -2.8090   -1.4080    0.3620 n3        1 M4Z     -0.806200
      8 C8         -2.5890   -0.0380    0.7970 c3        1 M4Z      0.126500
      9 C9         -1.0620    0.2070    0.8250 c         1 M4Z      0.681100
     10 O0         -0.3480    0.0380   -0.1850 o         1 M4Z     -0.618100
     11 N11        -0.4800    0.5430    2.0220 n         1 M4Z     -0.475800
     12 C12         0.8620    1.0850    2.2590 cy        1 M4Z      0.025700
     13 C13         2.0030    0.0740    2.3510 c         1 M4Z      0.661100
     14 O14         2.7820    0.0970    3.3270 o         1 M4Z     -0.625100
     15 N15         2.1220   -0.8320    1.3250 n         1 M4Z     -0.548900
     16 C16         3.2130   -1.7640    1.2500 c3        1 M4Z      0.134300
     17 C17         4.4230   -1.2610    0.5120 ca        1 M4Z     -0.107300
     18 C22         4.7440   -1.7580   -0.7530 ca        1 M4Z     -0.123500
     19 C21         5.8860   -1.3090   -1.4150 ca        1 M4Z     -0.104000
     20 C20         6.7130   -0.3590   -0.8100 ca        1 M4Z     -0.139900
     21 C19         6.3880    0.1530    0.4510 ca        1 M4Z     -0.104000
     22 C18         5.2460   -0.2990    1.1080 ca        1 M4Z     -0.123500
     23 C23         7.9430    0.1160   -1.5220 ce        1 M4Z      0.650800
     24 N24         7.8330    0.5140   -2.7530 n2        1 M4Z     -0.826100
     25 N25         9.1050    0.1400   -0.7180 nh        1 M4Z     -0.959800
     26 C26         0.3560    1.6240    3.6300 cy        1 M4Z     -0.094400
     27 C27        -1.0450    1.0630    3.2660 cy        1 M4Z      0.084000
     28 C28        -4.1430   -1.9190    0.5300 c3        1 M4Z      0.104800
     29 C10        -8.3820   -0.5650   -1.2530 c3        1 M4Z     -0.119100
     30 C29        -5.0870   -1.7560   -0.6740 c         1 M4Z      0.615100
     31 O30        -4.6390   -1.5840   -1.8270 o         1 M4Z     -0.611100
     32 C24        -7.4320   -1.7350   -1.4600 c3        1 M4Z      0.084000
     33 N3         -6.4370   -1.8850   -0.4330 n         1 M4Z     -0.569900
     34 H1         -4.3930    0.8220   -0.0190 hc        1 M4Z      0.049700
     35 H21C       -3.5170    2.3610    1.7180 hc        1 M4Z      0.052450
     36 H22C       -2.0210    2.6610    0.7390 hc        1 M4Z      0.052450
     37 H61C       -1.7240    1.3020   -1.5050 hc        1 M4Z      0.052450
     38 H62C       -3.0510    0.1600   -1.9720 hc        1 M4Z      0.052450
     39 H8         -2.9920    0.0360    1.8550 h1        1 M4Z      0.058700
     40 H31C       -4.9360    3.3350   -0.0520 hc        1 M4Z      0.040200
     41 H32C       -3.6370    4.5010    0.4230 hc        1 M4Z      0.040200
     42 H41C       -3.9540    4.3710   -2.0680 hc        1 M4Z      0.041200
     43 H42C       -2.2880    3.8870   -1.5560 hc        1 M4Z      0.041200
     44 H51C       -4.6340    2.0090   -2.2920 hc        1 M4Z      0.040200
     45 H52C       -3.1340    2.3080   -3.2550 hc        1 M4Z      0.040200
     46 H7         -2.4790   -1.5400   -0.5800 hn        1 M4Z      0.407800
     47 H281       -4.0380   -3.0330    0.6910 h1        1 M4Z      0.070700
     48 H282       -4.6120   -1.4730    1.4510 h1        1 M4Z      0.070700
     49 H12         1.1580    1.8790    1.5220 h1        1 M4Z      0.086700
     50 H271       -1.8370    1.8380    3.1180 h1        1 M4Z      0.057700
     51 H272       -1.4220    0.2520    3.9350 h1        1 M4Z      0.057700
     52 H261        0.8410    1.1400    4.5040 hc        1 M4Z      0.080700
     53 H262        0.4000    2.7280    3.7230 hc        1 M4Z      0.080700
     54 H15         1.5510   -0.7230    0.5140 hn        1 M4Z      0.344500
     55 H161        3.5270   -2.0320    2.3020 h1        1 M4Z      0.066700
     56 H162        2.8280   -2.6970    0.7440 h1        1 M4Z      0.066700
     57 H18         4.9780    0.0990    2.1020 ha        1 M4Z      0.146500
     58 H22         4.0940   -2.5050   -1.2340 ha        1 M4Z      0.146500
     59 H19         7.0220    0.9200    0.9210 ha        1 M4Z      0.146000
     60 H21         6.1270   -1.6930   -2.4180 ha        1 M4Z      0.146000
     61 H24         8.6720    0.8230   -3.1980 hn        1 M4Z      0.380400
     62 H251        9.0720   -0.4280    0.0970 hn        1 M4Z      0.397800
     63 H252        9.9770    0.1230   -1.1920 hn        1 M4Z      0.397800
     64 H101       -7.8330    0.4070   -1.2660 hc        1 M4Z      0.041367
     65 H102       -9.1300   -0.5600   -2.0820 hc        1 M4Z      0.041367
     66 H103       -8.9280   -0.6510   -0.2840 hc        1 M4Z      0.041367
     67 H241       -8.0370   -2.6880   -1.4980 h1        1 M4Z      0.062200
     68 H242       -6.9090   -1.6170   -2.4540 h1        1 M4Z      0.062200
     69 H3         -6.7580   -1.9290    0.5030 hn        1 M4Z      0.304500
@<TRIPOS>BOND
     1    1    2 1   
     2    1    6 1   
     3    1    8 1   
     4    1   34 1   
     5    2    3 1   
     6    2   35 1   
     7    2   36 1   
     8    3    4 1   
     9    3   40 1   
    10    3   41 1   
    11    4    5 1   
    12    4   42 1   
    13    4   43 1   
    14    5    6 1   
    15    5   44 1   
    16    5   45 1   
    17    6   37 1   
    18    6   38 1   
    19    7    8 1   
    20    7   28 1   
    21    7   46 1   
    22    8    9 1   
    23    8   39 1   
    24    9   10 2   
    25    9   11 1   
    26   11   12 1   
    27   11   27 1   
    28   12   13 1   
    29   12   26 1   
    30   12   49 1   
    31   13   14 2   
    32   13   15 1   
    33   15   16 1   
    34   15   54 1   
    35   16   17 1   
    36   16   55 1   
    37   16   56 1   
    38   17   18 ar  
    39   17   22 ar  
    40   18   19 ar  
    41   18   58 1   
    42   19   20 ar  
    43   19   60 1   
    44   20   21 ar  
    45   20   23 1   
    46   21   22 ar  
    47   21   59 1   
    48   22   57 1   
    49   23   24 2   
    50   23   25 1   
    51   24   61 1   
    52   25   62 1   
    53   25   63 1   
    54   26   27 1   
    55   26   52 1   
    56   26   53 1   
    57   27   50 1   
    58   27   51 1   
    59   28   30 1   
    60   28   47 1   
    61   28   48 1   
    62   29   32 1   
    63   29   64 1   
    64   29   65 1   
    65   29   66 1   
    66   30   31 2   
    67   30   33 1   
    68   32   33 1   
    69   32   67 1   
    70   32   68 1   
    71   33   69 1   
@<TRIPOS>SUBSTRUCTURE
     1 M4Z         1 TEMP              0 ****  ****    0 ROOT
