@<TRIPOS>MOLECULE
M4Z
   73    75     1     0     0
SMALL
bcc


@<TRIPOS>ATOM
      1 C1         -0.1160   -0.2630   -0.1170 c3        1 M4Z     -0.088700
      2 C2          1.3900   -0.0950    0.0600 c3        1 M4Z     -0.080400
      3 C3          1.7710   -0.2210    1.5240 c3        1 M4Z     -0.081900
      4 C4          1.0170    0.7740    2.3780 c3        1 M4Z     -0.089400
      5 C5         -0.4780    0.6350    2.1920 c3        1 M4Z     -0.081900
      6 C6         -0.8730    0.7500    0.7300 c3        1 M4Z     -0.080400
      7 N7         -1.9580   -0.4270   -1.8600 ny        1 M4Z     -0.764000
      8 C8         -0.4740   -0.1950   -1.6190 c3        1 M4Z      0.071500
      9 C9         -0.1360    1.2040   -2.2110 c         1 M4Z      0.645100
     10 O0         -0.9200    2.1470   -1.9980 o         1 M4Z     -0.555100
     11 N11         0.9470    1.3540   -3.0430 n         1 M4Z     -0.445800
     12 C12         1.5900    2.6410   -3.3640 cy        1 M4Z      0.016700
     13 C13         1.0300    3.3500   -4.5880 c         1 M4Z      0.534100
     14 O14         0.0420    3.0630   -5.2370 o         1 M4Z     -0.365100
     15 N15         1.8190    4.5740   -5.0190 ny        1 M4Z     -0.680800
     16 C16         1.4210    5.0880   -6.3770 c3        1 M4Z      0.164100
     17 C17         2.1640    6.3230   -6.7730 ca        1 M4Z     -0.148300
     18 C22         1.6620    7.5850   -6.4280 ca        1 M4Z     -0.089000
     19 C21         2.2870    8.7430   -6.8950 ca        1 M4Z     -0.079500
     20 C20         3.4200    8.6410   -7.7120 ca        1 M4Z     -0.199900
     21 C19         3.9290    7.3830   -8.0550 ca        1 M4Z     -0.079500
     22 C18         3.3010    6.2280   -7.5840 ca        1 M4Z     -0.089000
     23 C23         4.1220    9.8740   -8.1570 ce        1 M4Z      0.558800
     24 N24         5.0080   10.5800   -7.5720 n2        1 M4Z     -0.658100
     25 N25         3.6950   10.3360   -9.5220 nz        1 M4Z     -0.818600
     26 C26         2.9270    1.8730   -3.6090 cy        1 M4Z     -0.103400
     27 C27         2.1870    0.5710   -3.2010 cy        1 M4Z      0.081000
     28 C28        -2.4700   -1.6810   -1.2390 c3        1 M4Z      0.027800
     29 C10        -6.5800   -4.0910   -0.0160 c3        1 M4Z     -0.154100
     30 C29        -3.8460   -2.0740   -1.7790 c         1 M4Z      0.508100
     31 O30        -4.4070   -1.4890   -2.6960 o         1 M4Z     -0.369100
     32 C24        -5.8520   -2.8700   -0.5260 c3        1 M4Z      0.128800
     33 N3         -4.5160   -3.2440   -1.1550 ny        1 M4Z     -0.668800
     34 H1         -0.3700   -1.3020    0.2460 hc        1 M4Z      0.068700
     35 H21C        1.9290   -0.8830   -0.5280 hc        1 M4Z      0.044200
     36 H22C        1.7020    0.9140   -0.3150 hc        1 M4Z      0.044200
     37 H61C       -0.6580    1.7900    0.3660 hc        1 M4Z      0.044200
     38 H62C       -1.9800    0.5840    0.6460 hc        1 M4Z      0.044200
     39 H8          0.0820   -1.0120   -2.1690 hx        1 M4Z      0.123700
     40 H31C        2.8760   -0.0500    1.6290 hc        1 M4Z      0.073950
     41 H32C        1.5620   -1.2650    1.8800 hc        1 M4Z      0.073950
     42 H41C        1.2740    0.6080    3.4590 hc        1 M4Z      0.077200
     43 H42C        1.3360    1.8180    2.1200 hc        1 M4Z      0.077200
     44 H51C       -0.8170   -0.3550    2.5970 hc        1 M4Z      0.073950
     45 H52C       -1.0060    1.4360    2.7750 hc        1 M4Z      0.073950
     46 H7         -2.1330   -0.4440   -2.8770 hn        1 M4Z      0.485800
     47 H281       -1.7380   -2.5210   -1.4500 hx        1 M4Z      0.161700
     48 H282       -2.5270   -1.5250   -0.1150 hx        1 M4Z      0.161700
     49 H12         1.5890    3.3620   -2.4990 h1        1 M4Z      0.131700
     50 H271        2.0950   -0.1950   -4.0130 h1        1 M4Z      0.103700
     51 H272        2.5690    0.1000   -2.2610 h1        1 M4Z      0.103700
     52 H261        3.7460    2.1690   -2.9150 hc        1 M4Z      0.108200
     53 H262        3.2910    1.8760   -4.6580 hc        1 M4Z      0.108200
     54 H15         2.8200    4.3420   -5.0220 hn        1 M4Z      0.465800
     55 H161        1.6070    4.2560   -7.1190 hx        1 M4Z      0.130200
     56 H162        0.3080    5.2900   -6.3490 hx        1 M4Z      0.130200
     57 H18         3.7010    5.2440   -7.8810 ha        1 M4Z      0.165500
     58 H22         0.7560    7.6800   -5.8060 ha        1 M4Z      0.165500
     59 H19         4.8270    7.2910   -8.6900 ha        1 M4Z      0.180000
     60 H21         1.8810    9.7300   -6.6120 ha        1 M4Z      0.180000
     61 H24         5.3390   10.3310   -6.6630 hn        1 M4Z      0.500400
     62 H251        3.8720    9.5860  -10.1990 hn        1 M4Z      0.482467
     63 H252        2.6920   10.5520   -9.5040 hn        1 M4Z      0.482467
     64 H101       -6.8280   -4.8120   -0.8340 hc        1 M4Z      0.107700
     65 H102       -7.5530   -3.7390    0.4290 hc        1 M4Z      0.107700
     66 H103       -6.0130   -4.6220    0.7880 hc        1 M4Z      0.107700
     67 H241       -5.6350   -2.1520    0.3150 hx        1 M4Z      0.120200
     68 H242       -6.4580   -2.3490   -1.3250 hx        1 M4Z      0.120200
     69 H3         -3.9200   -3.6820   -0.4420 hn        1 M4Z      0.484800
     70 H72        -2.4640    0.3920   -1.4680 hn        1 M4Z      0.485800
     71 H152        1.6700    5.3190   -4.3250 hn        1 M4Z      0.465800
     72 H253        4.2140   11.1820   -9.8150 hn        1 M4Z      0.482467
     73 H32        -4.7100   -3.9490   -1.8900 hn        1 M4Z      0.484800
@<TRIPOS>BOND
     1    1    2 1   
     2    1    6 1   
     3    1    8 1   
     4    1   34 1   
     5    2    3 1   
     6    2   35 1   
     7    2   36 1   
     8    3    4 1   
     9    3   40 1   
    10    3   41 1   
    11    4    5 1   
    12    4   42 1   
    13    4   43 1   
    14    5    6 1   
    15    5   44 1   
    16    5   45 1   
    17    6   37 1   
    18    6   38 1   
    19    7    8 1   
    20    7   28 1   
    21    7   46 1   
    22    7   70 1   
    23    8    9 1   
    24    8   39 1   
    25    9   10 2   
    26    9   11 1   
    27   11   12 1   
    28   11   27 1   
    29   12   13 1   
    30   12   26 1   
    31   12   49 1   
    32   13   14 2   
    33   13   15 1   
    34   15   16 1   
    35   15   54 1   
    36   15   71 1   
    37   16   17 1   
    38   16   55 1   
    39   16   56 1   
    40   17   18 ar  
    41   17   22 ar  
    42   18   19 ar  
    43   18   58 1   
    44   19   20 ar  
    45   19   60 1   
    46   20   21 ar  
    47   20   23 1   
    48   21   22 ar  
    49   21   59 1   
    50   22   57 1   
    51   23   24 2   
    52   23   25 1   
    53   24   61 1   
    54   25   62 1   
    55   25   63 1   
    56   25   72 1   
    57   26   27 1   
    58   26   52 1   
    59   26   53 1   
    60   27   50 1   
    61   27   51 1   
    62   28   30 1   
    63   28   47 1   
    64   28   48 1   
    65   29   32 1   
    66   29   64 1   
    67   29   65 1   
    68   29   66 1   
    69   30   31 2   
    70   30   33 1   
    71   32   33 1   
    72   32   67 1   
    73   32   68 1   
    74   33   69 1   
    75   33   73 1   
@<TRIPOS>SUBSTRUCTURE
     1 M4Z         1 TEMP              0 ****  ****    0 ROOT
