@<TRIPOS>MOLECULE
M4Z
   73    75     1     0     0
SMALL
bcc


@<TRIPOS>ATOM
      1 C1         -0.0970   -0.2670   -0.1240 c3        1 M4Z     -0.088700
      2 C2          1.4110   -0.1040    0.0400 c3        1 M4Z     -0.080400
      3 C3          1.8050   -0.2340    1.5010 c3        1 M4Z     -0.081900
      4 C4          1.0620    0.7610    2.3640 c3        1 M4Z     -0.089400
      5 C5         -0.4350    0.6260    2.1910 c3        1 M4Z     -0.081900
      6 C6         -0.8440    0.7460    0.7330 c3        1 M4Z     -0.080400
      7 N7         -1.9550   -0.4220   -1.8500 n4        1 M4Z     -0.764000
      8 C8         -0.4680   -0.1940   -1.6210 c3        1 M4Z      0.071500
      9 C9         -0.1320    1.2060   -2.2140 c         1 M4Z      0.645100
     10 O0         -0.9120    2.1500   -1.9920 o         1 M4Z     -0.555100
     11 N11         0.9450    1.3550   -3.0550 n         1 M4Z     -0.445800
     12 C12         1.5870    2.6410   -3.3780 cy        1 M4Z      0.016700
     13 C13         1.0190    3.3550   -4.5950 c         1 M4Z      0.534100
     14 O14         0.0250    3.0710   -5.2370 o         1 M4Z     -0.365100
     15 N15         1.8060    4.5790   -5.0290 n4        1 M4Z     -0.680800
     16 C16         1.4020    5.0930   -6.3860 c3        1 M4Z      0.164100
     17 C17         2.1420    6.3290   -6.7840 ca        1 M4Z     -0.148300
     18 C22         1.6390    7.5900   -6.4370 ca        1 M4Z     -0.089000
     19 C21         2.2610    8.7490   -6.9060 ca        1 M4Z     -0.079500
     20 C20         3.3910    8.6490   -7.7260 ca        1 M4Z     -0.199900
     21 C19         3.9010    7.3920   -8.0710 ca        1 M4Z     -0.079500
     22 C18         3.2760    6.2360   -7.5990 ca        1 M4Z     -0.089000
     23 C23         4.0900    9.8830   -8.1740 ce        1 M4Z      0.558800
     24 N24         4.9760   10.5900   -7.5920 n2        1 M4Z     -0.658100
     25 N25         3.6600   10.3440   -9.5380 n4        1 M4Z     -0.818600
     26 C26         2.9200    1.8700   -3.6370 cy        1 M4Z     -0.103400
     27 C27         2.1810    0.5690   -3.2260 cy        1 M4Z      0.081000
     28 C28        -2.4650   -1.6760   -1.2280 c3        1 M4Z      0.027800
     29 C10        -6.5690   -4.0770    0.0280 c3        1 M4Z     -0.154100
     30 C29        -3.8470   -2.0630   -1.7560 c         1 M4Z      0.508100
     31 O30        -4.4150   -1.4750   -2.6670 o         1 M4Z     -0.369100
     32 C24        -5.8430   -2.8580   -0.4860 c3        1 M4Z      0.128800
     33 N3         -4.5140   -3.2330   -1.1290 n4        1 M4Z     -0.668800
     34 H1         -0.3500   -1.3060    0.2400 hc        1 M4Z      0.068700
     35 H21C        1.7230    0.9060   -0.3350 hc        1 M4Z      0.044200
     36 H22C        1.9430   -0.8920   -0.5550 hc        1 M4Z      0.044200
     37 H61C       -0.6290    1.7860    0.3690 hc        1 M4Z      0.044200
     38 H62C       -1.9510    0.5830    0.6590 hc        1 M4Z      0.044200
     39 H8          0.0800   -1.0110   -2.1790 hx        1 M4Z      0.123700
     40 H31C        2.9110   -0.0660    1.5950 hc        1 M4Z      0.073950
     41 H32C        1.5970   -1.2780    1.8560 hc        1 M4Z      0.073950
     42 H41C        1.3810    1.8050    2.1050 hc        1 M4Z      0.077200
     43 H42C        1.3280    0.5910    3.4420 hc        1 M4Z      0.077200
     44 H51C       -0.9560    1.4270    2.7810 hc        1 M4Z      0.073950
     45 H52C       -0.7730   -0.3640    2.5970 hc        1 M4Z      0.073950
     46 H7         -2.4550    0.3980   -1.4520 hn        1 M4Z      0.485800
     47 H281       -1.7370   -2.5170   -1.4480 hx        1 M4Z      0.161700
     48 H282       -2.5110   -1.5220   -0.1030 hx        1 M4Z      0.161700
     49 H12         1.5960    3.3600   -2.5110 h1        1 M4Z      0.131700
     50 H271        2.0790   -0.1940   -4.0390 h1        1 M4Z      0.103700
     51 H272        2.5700    0.0950   -2.2900 h1        1 M4Z      0.103700
     52 H261        3.7460    2.1630   -2.9500 hc        1 M4Z      0.108200
     53 H262        3.2750    1.8750   -4.6900 hc        1 M4Z      0.108200
     54 H15         2.8060    4.3460   -5.0370 hn        1 M4Z      0.465800
     55 H161        0.2890    5.2940   -6.3530 hx        1 M4Z      0.130200
     56 H162        1.5860    4.2620   -7.1290 hx        1 M4Z      0.130200
     57 H18         3.6770    5.2520   -7.8970 ha        1 M4Z      0.165500
     58 H22         0.7350    7.6840   -5.8120 ha        1 M4Z      0.165500
     59 H19         4.7980    7.3010   -8.7090 ha        1 M4Z      0.180000
     60 H21         1.8550    9.7360   -6.6220 ha        1 M4Z      0.180000
     61 H24         5.3110   10.3420   -6.6830 hn        1 M4Z      0.500400
     62 H251        3.8360    9.5930  -10.2150 hn        1 M4Z      0.482467
     63 H252        2.6560   10.5580   -9.5170 hn        1 M4Z      0.482467
     64 H101       -7.5370   -3.7230    0.4830 hc        1 M4Z      0.107700
     65 H102       -5.9960   -4.6120    0.8250 hc        1 M4Z      0.107700
     66 H103       -6.8280   -4.7950   -0.7900 hc        1 M4Z      0.107700
     67 H241       -5.6160   -2.1420    0.3540 hx        1 M4Z      0.120200
     68 H242       -6.4550   -2.3330   -1.2780 hx        1 M4Z      0.120200
     69 H3         -3.9130   -3.6750   -0.4230 hn        1 M4Z      0.484800
     70 H72        -2.1390   -0.4350   -2.8650 hn        1 M4Z      0.485800
     71 H152        1.6600    5.3240   -4.3350 hn        1 M4Z      0.465800
     72 H253        4.1760   11.1900   -9.8320 hn        1 M4Z      0.482467
     73 H32        -4.7180   -3.9360   -1.8640 hn        1 M4Z      0.484800
@<TRIPOS>BOND
     1    1    2 1   
     2    1    6 1   
     3    1    8 1   
     4    1   34 1   
     5    2    3 1   
     6    2   35 1   
     7    2   36 1   
     8    3    4 1   
     9    3   40 1   
    10    3   41 1   
    11    4    5 1   
    12    4   42 1   
    13    4   43 1   
    14    5    6 1   
    15    5   44 1   
    16    5   45 1   
    17    6   37 1   
    18    6   38 1   
    19    7    8 1   
    20    7   28 1   
    21    7   46 1   
    22    7   70 1   
    23    8    9 1   
    24    8   39 1   
    25    9   10 2   
    26    9   11 1   
    27   11   12 1   
    28   11   27 1   
    29   12   13 1   
    30   12   26 1   
    31   12   49 1   
    32   13   14 2   
    33   13   15 1   
    34   15   16 1   
    35   15   54 1   
    36   15   71 1   
    37   16   17 1   
    38   16   55 1   
    39   16   56 1   
    40   17   18 ar  
    41   17   22 ar  
    42   18   19 ar  
    43   18   58 1   
    44   19   20 ar  
    45   19   60 1   
    46   20   21 ar  
    47   20   23 1   
    48   21   22 ar  
    49   21   59 1   
    50   22   57 1   
    51   23   24 2   
    52   23   25 1   
    53   24   61 1   
    54   25   62 1   
    55   25   63 1   
    56   25   72 1   
    57   26   27 1   
    58   26   52 1   
    59   26   53 1   
    60   27   50 1   
    61   27   51 1   
    62   28   30 1   
    63   28   47 1   
    64   28   48 1   
    65   29   32 1   
    66   29   64 1   
    67   29   65 1   
    68   29   66 1   
    69   30   31 2   
    70   30   33 1   
    71   32   33 1   
    72   32   67 1   
    73   32   68 1   
    74   33   69 1   
    75   33   73 1   
@<TRIPOS>SUBSTRUCTURE
     1 M4Z         1 TEMP              0 ****  ****    0 ROOT
