@<TRIPOS>MOLECULE
M4Z
   73    75     1     0     0
SMALL
bcc


@<TRIPOS>ATOM
      1 C1         -0.0930   -0.2840   -0.1320 c3        1 M4Z     -0.088700
      2 C2          1.4170   -0.1330    0.0210 c3        1 M4Z     -0.080400
      3 C3          1.8210   -0.2750    1.4780 c3        1 M4Z     -0.081900
      4 C4          1.0910    0.7210    2.3530 c3        1 M4Z     -0.089400
      5 C5         -0.4080    0.5980    2.1900 c3        1 M4Z     -0.081900
      6 C6         -0.8270    0.7290    0.7360 c3        1 M4Z     -0.080400
      7 N7         -1.9660   -0.4150   -1.8460 n4        1 M4Z     -0.764000
      8 C8         -0.4760   -0.2000   -1.6270 c3        1 M4Z      0.071500
      9 C9         -0.1340    1.2010   -2.2130 c         1 M4Z      0.645100
     10 O0         -0.9040    2.1500   -1.9790 o         1 M4Z     -0.555100
     11 N11         0.9380    1.3470   -3.0620 n         1 M4Z     -0.445800
     12 C12         1.5880    2.6310   -3.3820 cy        1 M4Z      0.016700
     13 C13         1.0150    3.3560   -4.5910 c         1 M4Z      0.534100
     14 O14         0.0130    3.0840   -5.2250 o         1 M4Z     -0.365100
     15 N15         1.8100    4.5750   -5.0250 n4        1 M4Z     -0.680800
     16 C16         1.3920    5.1070   -6.3700 c3        1 M4Z      0.164100
     17 C17         2.1420    6.3370   -6.7690 ca        1 M4Z     -0.148300
     18 C22         1.6640    7.6010   -6.4020 ca        1 M4Z     -0.089000
     19 C21         2.2950    8.7550   -6.8700 ca        1 M4Z     -0.079500
     20 C20         3.4090    8.6470   -7.7100 ca        1 M4Z     -0.199900
     21 C19         3.8950    7.3860   -8.0760 ca        1 M4Z     -0.079500
     22 C18         3.2620    6.2350   -7.6040 ca        1 M4Z     -0.089000
     23 C23         4.1180    9.8750   -8.1580 ce        1 M4Z      0.558800
     24 N24         5.0260   10.5630   -7.5860 n2        1 M4Z     -0.658100
     25 N25         3.6680   10.3580   -9.5090 n4        1 M4Z     -0.818600
     26 C26         2.9120    1.8510   -3.6560 cy        1 M4Z     -0.103400
     27 C27         2.1670    0.5530   -3.2480 cy        1 M4Z      0.081000
     28 C28        -2.4800   -1.6690   -1.2260 c3        1 M4Z      0.027800
     29 C10        -6.5910   -4.0460    0.0510 c3        1 M4Z     -0.154100
     30 C29        -3.8690   -2.0420   -1.7470 c         1 M4Z      0.508100
     31 O30        -4.4400   -1.4440   -2.6490 o         1 M4Z     -0.369100
     32 C24        -5.8590   -2.8290   -0.4620 c3        1 M4Z      0.128800
     33 N3         -4.5410   -3.2110   -1.1210 n4        1 M4Z     -0.668800
     34 H1         -0.3520   -1.3230    0.2270 hc        1 M4Z      0.068700
     35 H21C        1.7330    0.8770   -0.3500 hc        1 M4Z      0.044200
     36 H22C        1.9380   -0.9210   -0.5830 hc        1 M4Z      0.044200
     37 H61C       -1.9360    0.5750    0.6700 hc        1 M4Z      0.044200
     38 H62C       -0.6070    1.7700    0.3770 hc        1 M4Z      0.044200
     39 H8          0.0620   -1.0170   -2.1930 hx        1 M4Z      0.123700
     40 H31C        2.9290   -0.1150    1.5650 hc        1 M4Z      0.073950
     41 H32C        1.6080   -1.3200    1.8290 hc        1 M4Z      0.073950
     42 H41C        1.3640    0.5420    3.4280 hc        1 M4Z      0.077200
     43 H42C        1.4160    1.7640    2.0980 hc        1 M4Z      0.077200
     44 H51C       -0.9180    1.3990    2.7890 hc        1 M4Z      0.073950
     45 H52C       -0.7500   -0.3920    2.5930 hc        1 M4Z      0.073950
     46 H7         -2.1580   -0.4200   -2.8590 hn        1 M4Z      0.485800
     47 H281       -1.7610   -2.5140   -1.4570 hx        1 M4Z      0.161700
     48 H282       -2.5170   -1.5220   -0.1010 hx        1 M4Z      0.161700
     49 H12         1.6090    3.3440   -2.5110 h1        1 M4Z      0.131700
     50 H271        2.5590    0.0710   -2.3170 h1        1 M4Z      0.103700
     51 H272        2.0520   -0.2040   -4.0640 h1        1 M4Z      0.103700
     52 H261        3.2590    1.8590   -4.7110 hc        1 M4Z      0.108200
     53 H262        3.7460    2.1330   -2.9730 hc        1 M4Z      0.108200
     54 H15         1.6830    5.3150   -4.3210 hn        1 M4Z      0.465800
     55 H161        1.5520    4.2800   -7.1230 hx        1 M4Z      0.130200
     56 H162        0.2820    5.3230   -6.3180 hx        1 M4Z      0.130200
     57 H18         3.6430    5.2480   -7.9180 ha        1 M4Z      0.165500
     58 H22         0.7720    7.7020   -5.7610 ha        1 M4Z      0.165500
     59 H19         4.7790    7.2890   -8.7300 ha        1 M4Z      0.180000
     60 H21         1.9070    9.7450   -6.5690 ha        1 M4Z      0.180000
     61 H24         5.3750   10.3000   -6.6870 hn        1 M4Z      0.500400
     62 H251        2.6680   10.5860   -9.4660 hn        1 M4Z      0.482800
     63 H252        3.8200    9.6130  -10.1970 hn        1 M4Z      0.482800
     64 H101       -6.0140   -4.5920    0.8380 hc        1 M4Z      0.107700
     65 H102       -6.8640   -4.7560   -0.7690 hc        1 M4Z      0.107700
     66 H103       -7.5500   -3.6870    0.5190 hc        1 M4Z      0.107700
     67 H241       -5.6180   -2.1210    0.3820 hx        1 M4Z      0.120200
     68 H242       -6.4750   -2.2930   -1.2440 hx        1 M4Z      0.120200
     69 H3         -4.7580   -3.9060   -1.8590 hn        1 M4Z      0.484800
     70 H72        -2.4570    0.4060   -1.4380 hn        1 M4Z      0.485800
     71 H152        2.8070    4.3310   -5.0500 hn        1 M4Z      0.465800
     72 H253        4.1910   11.2000   -9.8040 hn        1 M4Z      0.482800
     73 H32        -3.9360   -3.6640   -0.4240 hn        1 M4Z      0.484800
@<TRIPOS>BOND
     1    1    2 1   
     2    1    6 1   
     3    1    8 1   
     4    1   34 1   
     5    2    3 1   
     6    2   35 1   
     7    2   36 1   
     8    3    4 1   
     9    3   40 1   
    10    3   41 1   
    11    4    5 1   
    12    4   42 1   
    13    4   43 1   
    14    5    6 1   
    15    5   44 1   
    16    5   45 1   
    17    6   37 1   
    18    6   38 1   
    19    7    8 1   
    20    7   28 1   
    21    7   46 1   
    22    7   70 1   
    23    8    9 1   
    24    8   39 1   
    25    9   10 2   
    26    9   11 1   
    27   11   12 1   
    28   11   27 1   
    29   12   13 1   
    30   12   26 1   
    31   12   49 1   
    32   13   14 2   
    33   13   15 1   
    34   15   16 1   
    35   15   54 1   
    36   15   71 1   
    37   16   17 1   
    38   16   55 1   
    39   16   56 1   
    40   17   18 ar  
    41   17   22 ar  
    42   18   19 ar  
    43   18   58 1   
    44   19   20 ar  
    45   19   60 1   
    46   20   21 ar  
    47   20   23 1   
    48   21   22 ar  
    49   21   59 1   
    50   22   57 1   
    51   23   24 2   
    52   23   25 1   
    53   24   61 1   
    54   25   62 1   
    55   25   63 1   
    56   25   72 1   
    57   26   27 1   
    58   26   52 1   
    59   26   53 1   
    60   27   50 1   
    61   27   51 1   
    62   28   30 1   
    63   28   47 1   
    64   28   48 1   
    65   29   32 1   
    66   29   64 1   
    67   29   65 1   
    68   29   66 1   
    69   30   31 2   
    70   30   33 1   
    71   32   33 1   
    72   32   67 1   
    73   32   68 1   
    74   33   69 1   
    75   33   73 1   
@<TRIPOS>SUBSTRUCTURE
     1 M4Z         1 TEMP              0 ****  ****    0 ROOT
