@<TRIPOS>MOLECULE
M51
   60    64     1     0     0
SMALL
bcc


@<TRIPOS>ATOM
      1 C1          0.1100   -0.5860   -0.2190 cc        1 M51     -0.331300
      2 C2          1.5280   -0.3700   -0.0420 cc        1 M51      0.324600
      3 N3          1.7870    0.0200    1.2380 nd        1 M51     -0.504800
      4 N4          0.6140    0.0390    1.8970 na        1 M51      0.149300
      5 C5         -0.4690   -0.3110    1.0390 cd        1 M51      0.095300
      6 C6          0.5150    0.4260    3.2650 ca        1 M51      0.018800
      7 C7         -0.2400   -0.3460    4.1710 ca        1 M51     -0.119500
      8 C8         -0.3200    0.0400    5.5070 ca        1 M51     -0.129000
      9 C9          0.3520    1.1740    5.9610 ca        1 M51     -0.130000
     10 C10         1.1120    1.9300    5.0700 ca        1 M51     -0.129000
     11 C11         1.2010    1.5680    3.7280 ca        1 M51     -0.119500
     12 C12         2.5480   -0.5480   -1.0920 c3        1 M51     -0.121400
     13 N13        -1.8130   -0.4240    1.4620 nh        1 M51     -0.606000
     14 C14        -2.6340   -1.2010    0.5370 c3        1 M51      0.175300
     15 C15        -4.0760   -1.3780    1.0510 c3        1 M51      0.164800
     16 N16        -4.7070   -0.1140    1.4070 n3        1 M51     -0.715600
     17 C17        -3.8810    0.6650    2.3220 c3        1 M51      0.164800
     18 C18        -2.4360    0.8470    1.8210 c3        1 M51      0.175300
     19 C19        -6.0610   -0.2950    1.9210 c3        1 M51      0.157500
     20 C20        -6.9910   -1.1300    0.9820 c3        1 M51      0.142800
     21 N21        -8.3590   -0.6700    1.1760 n3        1 M51     -0.772200
     22 C22        -8.2950    0.7090    1.6750 c3        1 M51      0.102500
     23 C23        -6.8410    1.0290    2.1010 c3        1 M51     -0.101400
     24 C24        -8.7130    1.7090    0.5780 c         1 M51      0.668100
     25 N25        -9.4740    2.8160    0.9720 n         1 M51     -0.475800
     26 C26        -9.8440    3.8220   -0.0090 c3        1 M51      0.079000
     27 C27        -9.7370    5.2320    0.5700 c3        1 M51     -0.017300
     28 S28        -9.6140    5.0830    2.3360 ss        1 M51     -0.327200
     29 C29        -9.5030    3.2830    2.3300 c3        1 M51      0.175100
     30 O30        -8.4310    1.5510   -0.6200 o         1 M51     -0.559100
     31 H1         -0.3920   -0.8930   -1.1270 ha        1 M51      0.166000
     32 H7         -0.7670   -1.2520    3.8320 ha        1 M51      0.155500
     33 H8         -0.9130   -0.5660    6.2080 ha        1 M51      0.136000
     34 H9          0.2860    1.4670    7.0180 ha        1 M51      0.135000
     35 H10         1.6510    2.8210    5.4260 ha        1 M51      0.136000
     36 H11         1.8160    2.1700    3.0410 ha        1 M51      0.155500
     37 H12         2.0480   -0.6900   -2.0810 hc        1 M51      0.049367
     38 H12A        3.2220    0.3430   -1.1540 hc        1 M51      0.049367
     39 H12B        3.1760   -1.4480   -0.8750 hc        1 M51      0.049367
     40 H14        -2.1700   -2.2210    0.4340 h1        1 M51      0.052950
     41 H14A       -2.6690   -0.7250   -0.4850 h1        1 M51      0.052950
     42 H15        -4.0680   -2.1010    1.9190 h1        1 M51      0.041200
     43 H15A       -4.6710   -1.8440    0.2160 h1        1 M51      0.041200
     44 H17        -4.3380    1.6890    2.4150 h1        1 M51      0.041200
     45 H17A       -3.8510    0.2030    3.3530 h1        1 M51      0.041200
     46 H18        -2.4400    1.5650    0.9500 h1        1 M51      0.052950
     47 H18A       -1.8360    1.3060    2.6560 h1        1 M51      0.052950
     48 H19        -6.0280   -0.8190    2.9270 h1        1 M51      0.018700
     49 H20        -6.8930   -2.2250    1.1990 h1        1 M51      0.069700
     50 H20A       -6.7310   -0.9420   -0.0970 h1        1 M51      0.069700
     51 HN21       -8.8380   -1.2450    1.8450 hn        1 M51      0.356800
     52 H22        -8.9900    0.8150    2.5580 h1        1 M51      0.059700
     53 H23        -6.8090    1.3620    3.1650 hc        1 M51      0.064700
     54 H23A       -6.4180    1.8430    1.4620 hc        1 M51      0.064700
     55 H26       -10.9090    3.6220   -0.3210 h1        1 M51      0.076200
     56 H26A       -9.1910    3.7220   -0.9230 h1        1 M51      0.076200
     57 H27        -8.8370    5.7600    0.1780 h1        1 M51      0.080700
     58 H27A      -10.6390    5.8330    0.3100 h1        1 M51      0.080700
     59 H29        -8.5830    2.9870    2.9000 h2        1 M51      0.067200
     60 H29A      -10.4060    2.8770    2.8590 h2        1 M51      0.067200
@<TRIPOS>BOND
     1    1    2 1   
     2    1    5 2   
     3    1   31 1   
     4    2    3 2   
     5    2   12 1   
     6    3    4 1   
     7    4    5 1   
     8    4    6 1   
     9    5   13 1   
    10    6    7 ar  
    11    6   11 ar  
    12    7    8 ar  
    13    7   32 1   
    14    8    9 ar  
    15    8   33 1   
    16    9   10 ar  
    17    9   34 1   
    18   10   11 ar  
    19   10   35 1   
    20   11   36 1   
    21   12   37 1   
    22   12   38 1   
    23   12   39 1   
    24   13   14 1   
    25   13   18 1   
    26   14   15 1   
    27   14   40 1   
    28   14   41 1   
    29   15   16 1   
    30   15   42 1   
    31   15   43 1   
    32   16   17 1   
    33   16   19 1   
    34   17   18 1   
    35   17   44 1   
    36   17   45 1   
    37   18   46 1   
    38   18   47 1   
    39   19   20 1   
    40   19   23 1   
    41   19   48 1   
    42   20   21 1   
    43   20   49 1   
    44   20   50 1   
    45   21   22 1   
    46   21   51 1   
    47   22   23 1   
    48   22   24 1   
    49   22   52 1   
    50   23   53 1   
    51   23   54 1   
    52   24   25 1   
    53   24   30 2   
    54   25   26 1   
    55   25   29 1   
    56   26   27 1   
    57   26   55 1   
    58   26   56 1   
    59   27   28 1   
    60   27   57 1   
    61   27   58 1   
    62   28   29 1   
    63   29   59 1   
    64   29   60 1   
@<TRIPOS>SUBSTRUCTURE
     1 M51         1 TEMP              0 ****  ****    0 ROOT
