@<TRIPOS>MOLECULE
M51
   60    64     1     0     0
SMALL
bcc


@<TRIPOS>ATOM
      1 C1          0.1060   -1.0390   -0.1870 cc        1 M51     -0.332300
      2 C2          1.5470   -1.0330   -0.0820 cc        1 M51      0.324600
      3 N3          1.9260   -0.6000    1.1530 nd        1 M51     -0.504800
      4 N4          0.8030   -0.3530    1.8530 na        1 M51      0.150300
      5 C5         -0.3610   -0.5900    1.0670 cd        1 M51      0.096300
      6 C6          0.8330    0.1410    3.1900 ca        1 M51      0.018800
      7 C7          0.0150   -0.4390    4.1820 ca        1 M51     -0.119000
      8 C8          0.0620    0.0480    5.4850 ca        1 M51     -0.129000
      9 C9          0.9200    1.0930    5.8240 ca        1 M51     -0.130000
     10 C10         1.7400    1.6580    4.8490 ca        1 M51     -0.129000
     11 C11         1.7060    1.1920    3.5370 ca        1 M51     -0.119000
     12 C12         2.4750   -1.4390   -1.1540 c3        1 M51     -0.120400
     13 N13        -1.6850   -0.4640    1.5480 nh        1 M51     -0.606000
     14 C14        -2.6580   -1.1640    0.7160 c3        1 M51      0.175800
     15 C15        -4.0820   -1.0820    1.2980 c3        1 M51      0.163800
     16 N16        -4.4970    0.2860    1.5830 n3        1 M51     -0.714600
     17 C17        -3.5190    0.9890    2.4050 c3        1 M51      0.163800
     18 C18        -2.0890    0.9100    1.8370 c3        1 M51      0.175800
     19 C19        -5.8370    0.3410    2.1610 c3        1 M51      0.158500
     20 C20        -6.9320   -0.2980    1.2500 c3        1 M51      0.146800
     21 N21        -8.1850    0.4080    1.4740 n3        1 M51     -0.796200
     22 C22        -7.8850    1.7000    2.1010 c3        1 M51      0.102500
     23 C23        -6.3680    1.7730    2.3920 c3        1 M51     -0.094400
     24 C24        -8.3240    2.8840    1.2200 c         1 M51      0.682100
     25 N25        -9.6330    2.9460    0.7760 n         1 M51     -0.470800
     26 C26       -10.0970    4.0910    0.0110 c3        1 M51      0.089000
     27 C27       -11.5970    4.3010    0.1990 c3        1 M51     -0.013300
     28 S28       -12.2630    2.8300    0.9430 ss        1 M51     -0.332200
     29 C29       -10.6620    2.0180    1.1450 c3        1 M51      0.196100
     30 O30        -7.5320    3.8010    0.9280 o         1 M51     -0.604100
     31 H1         -0.4820   -1.3260   -1.0500 ha        1 M51      0.165000
     32 H7         -0.6590   -1.2740    3.9350 ha        1 M51      0.155500
     33 H8         -0.5800   -0.4070    6.2540 ha        1 M51      0.136000
     34 H9          0.9530    1.4680    6.8570 ha        1 M51      0.135000
     35 H10         2.4250    2.4780    5.1130 ha        1 M51      0.136000
     36 H11         2.3690    1.6420    2.7800 ha        1 M51      0.155500
     37 H12         1.9070   -1.5940   -2.1040 hc        1 M51      0.049367
     38 H12A        2.9890   -2.3960   -0.8830 hc        1 M51      0.049367
     39 H12B        3.2570   -0.6580   -1.3260 hc        1 M51      0.049367
     40 H14        -2.6720   -0.7560   -0.3370 h1        1 M51      0.052700
     41 H14A       -2.3600   -2.2480    0.6690 h1        1 M51      0.052700
     42 H15        -4.7850   -1.5050    0.5270 h1        1 M51      0.041950
     43 H15A       -4.1380   -1.7370    2.2170 h1        1 M51      0.041950
     44 H17        -3.5100    0.6010    3.4650 h1        1 M51      0.041950
     45 H17A       -3.8080    2.0770    2.4360 h1        1 M51      0.041950
     46 H18        -1.3860    1.3240    2.6130 h1        1 M51      0.052700
     47 H18A       -2.0260    1.5600    0.9170 h1        1 M51      0.052700
     48 H19        -5.8550   -0.2040    3.1550 h1        1 M51      0.018700
     49 H20        -7.0340   -1.3930    1.4670 h1        1 M51      0.062700
     50 H20A       -6.6670   -0.1700    0.1640 h1        1 M51      0.062700
     51 HN21       -8.7950   -0.1230    2.0680 hn        1 M51      0.355800
     52 H22        -8.4510    1.8180    3.0730 h1        1 M51      0.055700
     53 H23        -5.8770    2.5120    1.7070 hc        1 M51      0.079700
     54 H23A       -6.1900    2.0970    3.4440 hc        1 M51      0.079700
     55 H26        -9.5230    5.0060    0.3330 h1        1 M51      0.071700
     56 H26A       -9.8710    3.9100   -1.0790 h1        1 M51      0.071700
     57 H27       -11.8000    5.1730    0.8630 h1        1 M51      0.079700
     58 H27A      -12.0960    4.4790   -0.7810 h1        1 M51      0.079700
     59 H29       -10.5630    1.6910    2.2120 h2        1 M51      0.071200
     60 H29A      -10.6450    1.1130    0.4810 h2        1 M51      0.071200
@<TRIPOS>BOND
     1    1    2 1   
     2    1    5 2   
     3    1   31 1   
     4    2    3 2   
     5    2   12 1   
     6    3    4 1   
     7    4    5 1   
     8    4    6 1   
     9    5   13 1   
    10    6    7 ar  
    11    6   11 ar  
    12    7    8 ar  
    13    7   32 1   
    14    8    9 ar  
    15    8   33 1   
    16    9   10 ar  
    17    9   34 1   
    18   10   11 ar  
    19   10   35 1   
    20   11   36 1   
    21   12   37 1   
    22   12   38 1   
    23   12   39 1   
    24   13   14 1   
    25   13   18 1   
    26   14   15 1   
    27   14   40 1   
    28   14   41 1   
    29   15   16 1   
    30   15   42 1   
    31   15   43 1   
    32   16   17 1   
    33   16   19 1   
    34   17   18 1   
    35   17   44 1   
    36   17   45 1   
    37   18   46 1   
    38   18   47 1   
    39   19   20 1   
    40   19   23 1   
    41   19   48 1   
    42   20   21 1   
    43   20   49 1   
    44   20   50 1   
    45   21   22 1   
    46   21   51 1   
    47   22   23 1   
    48   22   24 1   
    49   22   52 1   
    50   23   53 1   
    51   23   54 1   
    52   24   25 1   
    53   24   30 2   
    54   25   26 1   
    55   25   29 1   
    56   26   27 1   
    57   26   55 1   
    58   26   56 1   
    59   27   28 1   
    60   27   57 1   
    61   27   58 1   
    62   28   29 1   
    63   29   59 1   
    64   29   60 1   
@<TRIPOS>SUBSTRUCTURE
     1 M51         1 TEMP              0 ****  ****    0 ROOT
