@<TRIPOS>MOLECULE
M51
   60    64     1     0     0
SMALL
bcc


@<TRIPOS>ATOM
      1 C1          0.1370   -0.9520   -0.2070 cc        1 M51     -0.332300
      2 C2          1.5750   -0.9490   -0.0810 cc        1 M51      0.324600
      3 N3          1.9370   -0.5690    1.1760 nd        1 M51     -0.504800
      4 N4          0.8040   -0.3540    1.8710 na        1 M51      0.150300
      5 C5         -0.3490   -0.5580    1.0600 cd        1 M51      0.096300
      6 C6          0.8140    0.0820    3.2280 ca        1 M51      0.018800
      7 C7         -0.0150   -0.5410    4.1820 ca        1 M51     -0.119000
      8 C8          0.0130   -0.1110    5.5060 ca        1 M51     -0.129000
      9 C9          0.8630    0.9200    5.9010 ca        1 M51     -0.130000
     10 C10         1.6960    1.5280    4.9630 ca        1 M51     -0.129000
     11 C11         1.6810    1.1190    3.6320 ca        1 M51     -0.119000
     12 C12         2.5190   -1.3070   -1.1570 c3        1 M51     -0.120400
     13 N13        -1.6790   -0.4550    1.5270 nh        1 M51     -0.606000
     14 C14        -2.6390   -1.1190    0.6520 c3        1 M51      0.175800
     15 C15        -4.0720   -1.0640    1.2180 c3        1 M51      0.163800
     16 N16        -4.4930    0.2900    1.5550 n3        1 M51     -0.714600
     17 C17        -3.5280    0.9580    2.4200 c3        1 M51      0.163800
     18 C18        -2.0900    0.9050    1.8690 c3        1 M51      0.175800
     19 C19        -5.8410    0.3190    2.1150 c3        1 M51      0.158500
     20 C20        -6.9220   -0.2820    1.1630 c3        1 M51      0.146800
     21 N21        -8.1800    0.4130    1.3990 n7        1 M51     -0.796200
     22 C22        -7.8900    1.6760    2.0860 c3        1 M51      0.102500
     23 C23        -6.3780    1.7390    2.4010 c3        1 M51     -0.094400
     24 C24        -8.3180    2.8970    1.2500 c         1 M51      0.682100
     25 N25        -9.6210    2.9770    0.7900 n         1 M51     -0.470800
     26 C26       -10.0760    4.1530    0.0690 c3        1 M51      0.089000
     27 C27       -11.5790    4.3530    0.2450 c3        1 M51     -0.013300
     28 S28       -12.2530    2.8500    0.9150 ss        1 M51     -0.332200
     29 C29       -10.6540    2.0320    1.1040 c3        1 M51      0.196100
     30 O30        -7.5240    3.8270    1.0100 o         1 M51     -0.604100
     31 H1         -0.4390   -1.2020   -1.0890 ha        1 M51      0.165000
     32 H7         -0.6850   -1.3660    3.8900 ha        1 M51      0.155500
     33 H8         -0.6390   -0.5990    6.2460 ha        1 M51      0.136000
     34 H9          0.8810    1.2500    6.9500 ha        1 M51      0.135000
     35 H10         2.3750    2.3370    5.2720 ha        1 M51      0.136000
     36 H11         2.3530    1.6020    2.9050 ha        1 M51      0.155500
     37 H12         1.9650   -1.4150   -2.1210 hc        1 M51      0.049367
     38 H12A        3.0260   -2.2770   -0.9230 hc        1 M51      0.049367
     39 H12B        3.3060   -0.5210   -1.2800 hc        1 M51      0.049367
     40 H14        -2.6400   -0.6670   -0.3820 h1        1 M51      0.052700
     41 H14A       -2.3390   -2.2000    0.5630 h1        1 M51      0.052700
     42 H15        -4.7630   -1.4550    0.4190 h1        1 M51      0.041950
     43 H15A       -4.1390   -1.7580    2.1070 h1        1 M51      0.041950
     44 H17        -3.5330    0.5240    3.4630 h1        1 M51      0.041950
     45 H17A       -3.8190    2.0430    2.4940 h1        1 M51      0.041950
     46 H18        -2.0150    1.5940    0.9790 h1        1 M51      0.052700
     47 H18A       -1.3990    1.2860    2.6720 h1        1 M51      0.052700
     48 H19        -5.8720   -0.2690    3.0850 h1        1 M51      0.018700
     49 H20        -6.6420   -0.1070    0.0870 h1        1 M51      0.062700
     50 H20A       -7.0250   -1.3860    1.3310 h1        1 M51      0.062700
     51 HN21       -8.7960   -0.1440    1.9610 hn        1 M51      0.355800
     52 H22        -8.4700    1.7520    3.0540 h1        1 M51      0.055700
     53 H23        -5.8780    2.5060    1.7550 hc        1 M51      0.079700
     54 H23A       -6.2150    2.0180    3.4680 hc        1 M51      0.079700
     55 H26        -9.8350    4.0190   -1.0240 h1        1 M51      0.071700
     56 H26A       -9.5080    5.0540    0.4380 h1        1 M51      0.071700
     57 H27       -12.0640    4.5730   -0.7350 h1        1 M51      0.079700
     58 H27A      -11.7930    5.1960    0.9420 h1        1 M51      0.079700
     59 H29       -10.6260    1.1570    0.4020 h2        1 M51      0.071200
     60 H29A      -10.5690    1.6600    2.1580 h2        1 M51      0.071200
@<TRIPOS>BOND
     1    1    2 1   
     2    1    5 2   
     3    1   31 1   
     4    2    3 2   
     5    2   12 1   
     6    3    4 1   
     7    4    5 1   
     8    4    6 1   
     9    5   13 1   
    10    6    7 ar  
    11    6   11 ar  
    12    7    8 ar  
    13    7   32 1   
    14    8    9 ar  
    15    8   33 1   
    16    9   10 ar  
    17    9   34 1   
    18   10   11 ar  
    19   10   35 1   
    20   11   36 1   
    21   12   37 1   
    22   12   38 1   
    23   12   39 1   
    24   13   14 1   
    25   13   18 1   
    26   14   15 1   
    27   14   40 1   
    28   14   41 1   
    29   15   16 1   
    30   15   42 1   
    31   15   43 1   
    32   16   17 1   
    33   16   19 1   
    34   17   18 1   
    35   17   44 1   
    36   17   45 1   
    37   18   46 1   
    38   18   47 1   
    39   19   20 1   
    40   19   23 1   
    41   19   48 1   
    42   20   21 1   
    43   20   49 1   
    44   20   50 1   
    45   21   22 1   
    46   21   51 1   
    47   22   23 1   
    48   22   24 1   
    49   22   52 1   
    50   23   53 1   
    51   23   54 1   
    52   24   25 1   
    53   24   30 2   
    54   25   26 1   
    55   25   29 1   
    56   26   27 1   
    57   26   55 1   
    58   26   56 1   
    59   27   28 1   
    60   27   57 1   
    61   27   58 1   
    62   28   29 1   
    63   29   59 1   
    64   29   60 1   
@<TRIPOS>SUBSTRUCTURE
     1 M51         1 TEMP              0 ****  ****    0 ROOT
