@<TRIPOS>MOLECULE
M51
   60    64     1     0     0
SMALL
bcc


@<TRIPOS>ATOM
      1 C1         -4.3090   -2.5690    0.4670 cc        1 M51     -0.331300
      2 C2         -5.6030   -2.3190    1.0580 cc        1 M51      0.324600
      3 N3         -5.8280   -0.9780    1.1450 nd        1 M51     -0.504800
      4 N4         -4.7570   -0.3560    0.6160 na        1 M51      0.150300
      5 C5         -3.7710   -1.2930    0.1930 cd        1 M51      0.095300
      6 C6         -4.6500    1.0640    0.5630 ca        1 M51      0.018800
      7 C7         -4.2360    1.7030   -0.6230 ca        1 M51     -0.119000
      8 C8         -4.1440    3.0920   -0.6620 ca        1 M51     -0.128500
      9 C9         -4.4730    3.8580    0.4550 ca        1 M51     -0.130000
     10 C10        -4.8990    3.2300    1.6240 ca        1 M51     -0.128500
     11 C11        -4.9910    1.8420    1.6900 ca        1 M51     -0.119000
     12 C12        -6.5470   -3.3610    1.5020 c3        1 M51     -0.120400
     13 N13        -2.5590   -0.9380   -0.4450 nh        1 M51     -0.606000
     14 C14        -1.9460   -2.0560   -1.1550 c3        1 M51      0.175800
     15 C15        -0.6680   -1.6310   -1.9050 c3        1 M51      0.163300
     16 N16         0.2900   -0.9500   -1.0420 n3        1 M51     -0.719600
     17 C17        -0.3270    0.1630   -0.3300 c3        1 M51      0.163300
     18 C18        -1.6110   -0.2420    0.4200 c3        1 M51      0.175800
     19 C19         1.4840   -0.5350   -1.7760 c3        1 M51      0.172500
     20 C20         2.2420   -1.7190   -2.4520 c3        1 M51      0.147800
     21 N21         3.6730   -1.4380   -2.4110 n3        1 M51     -0.791200
     22 C22         3.9060   -0.3010   -1.5170 c3        1 M51      0.103500
     23 C23         2.5620    0.1370   -0.8970 c3        1 M51     -0.096400
     24 C24         4.9120   -0.6000   -0.3930 c         1 M51      0.653100
     25 N25         5.6250    0.4510    0.1580 n         1 M51     -0.480800
     26 C26         6.5410    0.2220    1.2620 c3        1 M51      0.093000
     27 C27         6.8140    1.5160    2.0230 c3        1 M51     -0.015300
     28 S28         6.1780    2.8660    1.0560 ss        1 M51     -0.308200
     29 C29         5.4390    1.8250   -0.2110 c3        1 M51      0.179100
     30 O30         5.1060   -1.7610    0.0160 o         1 M51     -0.601100
     31 H1         -3.8570   -3.5340    0.2780 ha        1 M51      0.166000
     32 H7         -3.9850    1.1140   -1.5190 ha        1 M51      0.155500
     33 H8         -3.8180    3.5850   -1.5910 ha        1 M51      0.136500
     34 H9         -4.4020    4.9550    0.4120 ha        1 M51      0.135000
     35 H10        -5.1670    3.8310    2.5050 ha        1 M51      0.136500
     36 H11        -5.3400    1.3620    2.6170 ha        1 M51      0.155500
     37 H12        -6.9020   -3.1670    2.5450 hc        1 M51      0.049700
     38 H12A       -7.4400   -3.3900    0.8280 hc        1 M51      0.049700
     39 H12B       -6.0440   -4.3590    1.4740 hc        1 M51      0.049700
     40 H14        -1.6920   -2.9030   -0.4540 h1        1 M51      0.052450
     41 H14A       -2.6870   -2.4350   -1.9120 h1        1 M51      0.052450
     42 H15        -0.1830   -2.5670   -2.2980 h1        1 M51      0.042200
     43 H15A       -0.9610   -0.9930   -2.7900 h1        1 M51      0.042200
     44 H17         0.4060    0.5360    0.4390 h1        1 M51      0.042200
     45 H17A       -0.5670    1.0200   -1.0250 h1        1 M51      0.042200
     46 H18        -2.1040    0.7000    0.7910 h1        1 M51      0.052450
     47 H18A       -1.3280   -0.8700    1.3130 h1        1 M51      0.052450
     48 H19         1.2030    0.1980   -2.5940 h1        1 M51      0.031700
     49 H20         1.9940   -2.6960   -1.9530 h1        1 M51      0.053700
     50 H20A        1.9420   -1.7900   -3.5330 h1        1 M51      0.053700
     51 HN21        4.1850   -2.2470   -2.1030 hn        1 M51      0.384800
     52 H22         4.3180    0.5230   -2.1700 h1        1 M51      0.078700
     53 H23         2.4520    1.2470   -0.9230 hc        1 M51      0.063200
     54 H23A        2.4970   -0.2030    0.1660 hc        1 M51      0.063200
     55 H26         6.1020   -0.5590    1.9460 h1        1 M51      0.071200
     56 H26A        7.5050   -0.1920    0.8480 h1        1 M51      0.071200
     57 H27         6.3130    1.5080    3.0190 h1        1 M51      0.082200
     58 H27A        7.9080    1.6580    2.1800 h1        1 M51      0.082200
     59 H29         5.9410    2.0480   -1.1900 h2        1 M51      0.069200
     60 H29A        4.3500    2.0820   -0.2970 h2        1 M51      0.069200
@<TRIPOS>BOND
     1    1    2 1   
     2    1    5 2   
     3    1   31 1   
     4    2    3 2   
     5    2   12 1   
     6    3    4 1   
     7    4    5 1   
     8    4    6 1   
     9    5   13 1   
    10    6    7 ar  
    11    6   11 ar  
    12    7    8 ar  
    13    7   32 1   
    14    8    9 ar  
    15    8   33 1   
    16    9   10 ar  
    17    9   34 1   
    18   10   11 ar  
    19   10   35 1   
    20   11   36 1   
    21   12   37 1   
    22   12   38 1   
    23   12   39 1   
    24   13   14 1   
    25   13   18 1   
    26   14   15 1   
    27   14   40 1   
    28   14   41 1   
    29   15   16 1   
    30   15   42 1   
    31   15   43 1   
    32   16   17 1   
    33   16   19 1   
    34   17   18 1   
    35   17   44 1   
    36   17   45 1   
    37   18   46 1   
    38   18   47 1   
    39   19   20 1   
    40   19   23 1   
    41   19   48 1   
    42   20   21 1   
    43   20   49 1   
    44   20   50 1   
    45   21   22 1   
    46   21   51 1   
    47   22   23 1   
    48   22   24 1   
    49   22   52 1   
    50   23   53 1   
    51   23   54 1   
    52   24   25 1   
    53   24   30 2   
    54   25   26 1   
    55   25   29 1   
    56   26   27 1   
    57   26   55 1   
    58   26   56 1   
    59   27   28 1   
    60   27   57 1   
    61   27   58 1   
    62   28   29 1   
    63   29   59 1   
    64   29   60 1   
@<TRIPOS>SUBSTRUCTURE
     1 M51         1 TEMP              0 ****  ****    0 ROOT
