@<TRIPOS>MOLECULE
M52
   43    50     1     0     0
SMALL
bcc


@<TRIPOS>ATOM
      1 C10         0.0000    0.0000    0.0000 DU        1 M52     -0.384000
      2 C13         2.7870   -2.3420   -4.5050 c2        1 M52      0.239000
      3 C15         3.3700   -2.7230   -2.3050 c3        1 M52      0.236000
      4 C12         1.8700   -1.3770   -4.1360 c3        1 M52      0.390000
      5 C14         1.7010   -1.0790   -2.7880 c3        1 M52      0.063000
      6 N03         3.5000   -2.9790   -3.5970 n2        1 M52      0.032000
      7 N04         4.1440   -3.4190   -1.3830 n8        1 M52     -0.087000
      8 C11         2.4650   -1.7640   -1.8610 c2        1 M52     -0.870000
      9 S01         2.2940   -1.4270   -0.1400 s6        1 M52      2.406000
     10 O04         1.4430   -2.4370    0.3840 o         1 M52     -0.771500
     11 C09         2.1970    1.2630    0.1240 c3        1 M52      0.020000
     12 O03         3.6040   -1.1800    0.3530 o         1 M52     -0.771500
     13 N01         1.4640    0.0000    0.0000 nx        1 M52     -0.419000
     14 C01        -0.5020    0.0000    1.4210 c2        1 M52      0.569000
     15 O01         0.2860   -0.0000    2.3430 o         1 M52     -0.393000
     16 N02        -1.8270   -0.0000    1.6680 ns        1 M52     -0.021000
     17 C02        -2.2940    0.0960    2.9850 c3        1 M52     -0.098000
     18 C04        -3.4600    0.7990    3.2590 c2        1 M52     -0.234000
     19 C05        -1.5950   -0.5150    4.0170 c3        1 M52     -0.171000
     20 C07        -2.0560   -0.4190    5.3150 c2        1 M52     -0.371000
     21 C08        -3.2180    0.2880    5.5880 c2        1 M52      0.459000
     22 C03        -3.9200    0.8940    4.5560 c2        1 M52     -0.113000
     23 O02        -3.6720    0.3820    6.8660 os        1 M52     -0.087000
     24 C06        -4.8750    1.1250    7.0740 c3        1 M52     -0.046000
     25 H10         0.2390   -0.0170   -1.0570 hx        1 M52      0.207500
     26 H10A       -0.3610   -0.8840   -0.5110 hx        1 M52      0.207500
     27 H13         2.2200   -1.7610   -3.7870 DU        1 M52     -0.384000
     28 H14         2.0920   -1.5600   -3.6770 hc        1 M52     -0.252000
     29 HN04        3.4500   -2.7390   -1.6220 DU        1 M52      0.066000
     30 HN0A        3.7560   -4.2020   -0.8940 hn        1 M52      0.131000
     31 H09         2.7720    0.3870   -0.1490 hx        1 M52      0.097667
     32 H09A        2.3210    1.7060   -0.8570 hx        1 M52      0.097667
     33 H09B        1.6410    1.9420    0.7590 hx        1 M52      0.097667
     34 HN02       -0.8710    0.2050    1.4570 hn        1 M52     -0.083000
     35 H04        -3.0670    0.4370    2.3160 DU        1 M52      0.314000
     36 H05        -2.3720    0.0500    3.5150 hc        1 M52      0.068000
     37 H07        -1.3620   -0.7480    4.5510 DU        1 M52      0.240000
     38 H03        -3.1490    0.3220    5.0570 ha        1 M52     -0.091000
     39 H06        -4.8550    1.2750    6.0020 h1        1 M52      0.091667
     40 H06A       -4.7320    2.1450    6.7380 h1        1 M52      0.091667
     41 H06B       -5.6820    0.6700    6.5140 h1        1 M52      0.091667
     42 H011        0.8380    0.1070    0.7730 DU        1 M52      0.315000
     43 Br          0.8520   -0.4730   -5.4480 br        1 M52      0.119000
@<TRIPOS>BOND
     1    1   13 1   
     2    1   14 1   
     3    1   25 1   
     4    1   26 1   
     5    1   42 1   
     6    2    4 1   
     7    2    6 1   
     8    2   27 1   
     9    3    6 1   
    10    3    7 1   
    11    3    8 1   
    12    3   29 1   
    13    4    5 1   
    14    4   27 1   
    15    4   43 1   
    16    5    8 1   
    17    5   27 1   
    18    5   28 1   
    19    7   29 1   
    20    7   30 1   
    21    8    9 1   
    22    9   10 1   
    23    9   12 1   
    24    9   13 1   
    25   11   13 1   
    26   11   31 1   
    27   11   32 1   
    28   11   33 1   
    29   13   42 1   
    30   14   15 1   
    31   14   16 1   
    32   16   17 1   
    33   16   34 1   
    34   17   18 1   
    35   17   19 1   
    36   17   35 1   
    37   18   22 1   
    38   18   35 1   
    39   19   20 1   
    40   19   36 1   
    41   19   37 1   
    42   20   21 1   
    43   20   37 1   
    44   21   22 1   
    45   21   23 1   
    46   22   38 1   
    47   23   24 1   
    48   24   39 1   
    49   24   40 1   
    50   24   41 1   
@<TRIPOS>SUBSTRUCTURE
     1 M52         1 TEMP              0 ****  ****    0 ROOT
