@<TRIPOS>MOLECULE
M52
   42    43     1     0     0
SMALL
bcc


@<TRIPOS>ATOM
      1 C10         0.2910   -0.4140   -1.5960 c3        1 M52      0.152800
      2 C13        -4.7510    0.6040    0.2350 ca        1 M52      0.536200
      3 C15        -3.3780   -1.2360    0.6530 ca        1 M52      0.795200
      4 C12        -3.6510    1.5070    0.2360 ca        1 M52     -0.240200
      5 C14        -2.3920    0.9740    0.4460 ca        1 M52      0.065000
      6 N03        -4.6440   -0.7000    0.4380 nb        1 M52     -0.746000
      7 N04        -3.2910   -2.5950    0.8190 nh        1 M52     -0.946500
      8 C11        -2.2030   -0.4100    0.6460 ca        1 M52     -0.597800
      9 S01        -0.6360   -0.9470    0.8590 sy        1 M52      1.527200
     10 O04         0.1660    0.1480    1.2740 o         1 M52     -0.664800
     11 C09        -0.1700   -2.7440   -1.0900 c3        1 M52      0.199100
     12 O03        -0.6430   -2.0790    1.7090 o         1 M52     -0.664800
     13 N01        -0.1570   -1.3820   -0.6390 n3        1 M52     -0.808500
     14 C01         1.8310   -0.3300   -1.7310 c         1 M52      0.642100
     15 O01         2.3570   -0.6970   -2.7970 o         1 M52     -0.595100
     16 N02         2.5110    0.1770   -0.6470 n         1 M52     -0.460100
     17 C02         3.9020    0.3540   -0.5240 ca        1 M52      0.030600
     18 C04         4.4090    0.8180    0.7120 ca        1 M52     -0.133500
     19 C05         4.8120    0.0960   -1.5740 ca        1 M52     -0.133500
     20 C07         6.1730    0.2930   -1.3910 ca        1 M52     -0.156500
     21 C08         6.6580    0.7550   -0.1560 ca        1 M52      0.098100
     22 C03         5.7730    1.0170    0.8940 ca        1 M52     -0.156500
     23 O02         8.0300    0.9170   -0.0890 os        1 M52     -0.326900
     24 C06         8.5440    1.3760    1.1550 c3        1 M52      0.114700
     25 H10        -0.0990   -0.6740   -2.6230 h1        1 M52      0.078200
     26 H10A       -0.1060    0.6040   -1.3130 h1        1 M52      0.078200
     27 H13        -5.7830    0.9740    0.0660 h4        1 M52      0.043100
     28 H14        -1.5020    1.6340    0.4730 ha        1 M52      0.172000
     29 HN04       -4.1300   -3.1240    0.8870 hn        1 M52      0.454800
     30 HN0A       -2.4780   -2.9800    1.2510 hn        1 M52      0.454800
     31 H09         0.8170   -3.0050   -1.5620 h1        1 M52      0.054367
     32 H09A       -0.3480   -3.4320   -0.2190 h1        1 M52      0.054367
     33 H09B       -0.9800   -2.9010   -1.8540 h1        1 M52      0.054367
     34 HN02        1.9750    0.4500    0.1540 hn        1 M52      0.346500
     35 H04         3.7270    1.0290    1.5520 ha        1 M52      0.157000
     36 H05         4.4530   -0.2680   -2.5520 ha        1 M52      0.157000
     37 H07         6.8810    0.0910   -2.2080 ha        1 M52      0.144500
     38 H03         6.1370    1.3790    1.8660 ha        1 M52      0.144500
     39 H06         8.1390    2.3880    1.4010 h1        1 M52      0.042700
     40 H06A        8.3090    0.6510    1.9720 h1        1 M52      0.042700
     41 H06B        9.6480    1.4260    0.9780 h1        1 M52      0.042700
     42 BR         -3.9260    3.3240   -0.0330 br        1 M52     -0.052100
@<TRIPOS>BOND
     1    1   13 1   
     2    1   14 1   
     3    1   25 1   
     4    1   26 1   
     5    2    4 ar  
     6    2    6 ar  
     7    2   27 1   
     8    3    6 ar  
     9    3    7 1   
    10    3    8 ar  
    11    4    5 ar  
    12    4   42 1   
    13    5    8 ar  
    14    5   28 1   
    15    7   29 1   
    16    7   30 1   
    17    8    9 1   
    18    9   10 2   
    19    9   12 2   
    20    9   13 1   
    21   11   13 1   
    22   11   31 1   
    23   11   32 1   
    24   11   33 1   
    25   14   15 2   
    26   14   16 1   
    27   16   17 1   
    28   16   34 1   
    29   17   18 ar  
    30   17   19 ar  
    31   18   22 ar  
    32   18   35 1   
    33   19   20 ar  
    34   19   36 1   
    35   20   21 ar  
    36   20   37 1   
    37   21   22 ar  
    38   21   23 1   
    39   22   38 1   
    40   23   24 1   
    41   24   39 1   
    42   24   40 1   
    43   24   41 1   
@<TRIPOS>SUBSTRUCTURE
     1 M52         1 TEMP              0 ****  ****    0 ROOT
