@<TRIPOS>MOLECULE
M52
   43    41     1     0     0
SMALL
bcc


@<TRIPOS>ATOM
      1 C10         0.6140    1.1360   -0.0610 c3        1 M52     -0.031000
      2 C13         2.2960   -3.2840   -3.7760 c1        1 M52      0.082000
      3 C15         3.1900   -2.3530   -1.7650 c2        1 M52      0.375000
      4 C12         1.5650   -4.0220   -4.5740 c2        1 M52     -0.258000
      5 C14         0.8850   -1.4400   -1.6050 c1        1 M52     -0.234000
      6 N03         3.0930   -2.5570   -3.1640 n2        1 M52     -0.143000
      7 N04         4.3340   -2.7250   -1.1660 n3        1 M52     -0.285000
      8 C11         2.1240   -1.6670   -1.0740 c2        1 M52     -1.014000
      9 S01         2.1360   -1.0360    0.4570 s6        1 M52      2.915000
     10 O04         1.0980   -1.5610    1.2790 o         1 M52     -0.990000
     11 C09         2.9310    1.5190    0.5670 c3        1 M52     -0.087000
     12 O03         3.4250   -1.2630    1.0190 o         1 M52     -0.990000
     13 N01         1.8720    0.5740    0.3390 n3        1 M52     -0.821000
     14 C01        -0.5420    1.0950    1.0020 c3        1 M52      0.043000
     15 O01        -0.1550    0.8370    2.3470 oh        1 M52     -0.356000
     16 N02        -1.6150    0.2120    0.5730 n2        1 M52     -0.100000
     17 C02        -2.0340   -0.7760    1.2630 c2        1 M52     -0.093000
     18 C04        -4.7180    2.9500    4.4470 c1        1 M52     -0.224500
     19 C05        -1.5160   -1.2860    2.5460 c2        1 M52      0.291000
     20 C07        -2.1990   -1.1790    3.6910 c1        1 M52     -0.241000
     21 C08        -2.7840   -1.0560    4.7660 c1        1 M52      0.225000
     22 C03        -3.6860    3.0990    5.0330 c1        1 M52     -0.224500
     23 O02        -3.2900   -1.0010    5.9410 os        1 M52     -0.026000
     24 C06        -4.5590   -0.2770    6.0890 c3        1 M52     -0.099000
     25 H10         0.7530    2.2260   -0.3140 h1        1 M52      0.138000
     26 H10A        0.2570    0.6060   -1.0000 h1        1 M52      0.138000
     27 H13         1.9250   -5.0080   -4.9130 h4        1 M52      0.207000
     28 H14         0.5260   -1.7460   -2.5850 ha        1 M52      0.098000
     29 HN04        4.5170   -2.4550   -0.2130 hn        1 M52      0.280500
     30 HN0A        5.0690   -3.1800   -1.6620 hn        1 M52      0.280500
     31 H09         3.8550    0.9870    0.9240 h1        1 M52      0.096667
     32 H09A        2.6230    2.2640    1.3500 h1        1 M52      0.096667
     33 H09B        3.1760    2.0770   -0.3780 h1        1 M52      0.096667
     34 HN02       -1.0090    2.1310    1.0450 h2        1 M52      0.154000
     35 H04        -5.6370    2.8460    3.9240 ha        1 M52      0.227000
     36 H05        -2.8810   -1.3740    0.8520 h4        1 M52      0.200000
     37 H07        -0.5350   -1.8310    2.5180 ha        1 M52      0.253000
     38 H03        -2.7710    3.2590    5.5490 ha        1 M52      0.227000
     39 H06        -4.4380    0.7710    5.7180 h1        1 M52      0.138000
     40 H06A       -5.3550   -0.8330    5.5400 h1        1 M52      0.138000
     41 H06B       -4.7070   -0.3180    7.1990 h1        1 M52      0.138000
     42 H011        0.6280    0.2710    2.3680 ho        1 M52      0.231000
     43 BR         -0.0810   -3.5180   -5.2340 br        1 M52      0.149000
@<TRIPOS>BOND
     1    1   13 1   
     2    1   14 1   
     3    1   25 1   
     4    1   26 1   
     5    2    4 1   
     6    2    6 1   
     7    3    6 1   
     8    3    7 1   
     9    3    8 1   
    10    4   27 1   
    11    4   43 1   
    12    5    8 1   
    13    5   28 1   
    14    7   29 1   
    15    7   30 1   
    16    8    9 1   
    17    9   10 1   
    18    9   12 1   
    19    9   13 1   
    20   11   13 1   
    21   11   31 1   
    22   11   32 1   
    23   11   33 1   
    24   14   15 1   
    25   14   16 1   
    26   14   34 1   
    27   15   42 1   
    28   16   17 1   
    29   17   19 1   
    30   17   36 1   
    31   18   22 1   
    32   18   35 1   
    33   19   20 1   
    34   19   37 1   
    35   20   21 1   
    36   21   23 1   
    37   22   38 1   
    38   23   24 1   
    39   24   39 1   
    40   24   40 1   
    41   24   41 1   
@<TRIPOS>SUBSTRUCTURE
     1 M52         1 TEMP              0 ****  ****    0 ROOT
