@<TRIPOS>MOLECULE
M52
   42    40     1     0     0
SMALL
bcc


@<TRIPOS>ATOM
      1 C10         0.8530    0.5480    0.3050 c3        1 M52     -0.051000
      2 C13         2.3570   -2.4260   -4.7020 c1        1 M52      0.092000
      3 C15         3.2560   -2.4010   -2.4920 c2        1 M52      0.373000
      4 C12         1.5340   -2.6630   -5.6940 c2        1 M52     -0.277000
      5 C14         1.1510   -1.1280   -2.1600 c1        1 M52     -0.220000
      6 N03         3.2700   -2.1790   -3.8990 n2        1 M52     -0.153000
      7 N04         4.2690   -3.1310   -1.9920 n3        1 M52     -0.294000
      8 C11         2.2470   -1.7900   -1.6750 c2        1 M52     -1.000000
      9 S01         2.1310   -1.7830    0.0010 s6        1 M52      2.901000
     10 O04         0.9710   -2.4660    0.4230 o         1 M52     -0.967000
     11 C09         3.1880    0.4810    0.9770 c3        1 M52     -0.078000
     12 O03         3.3400   -2.3600    0.4990 o         1 M52     -0.967000
     13 N01         2.0520   -0.2260    0.4590 n3        1 M52     -0.810000
     14 C01         0.0240    0.6820    1.5990 c2        1 M52      0.278000
     15 O01        -0.1340    1.8030    2.1150 o         1 M52     -0.355000
     16 N02        -0.5370   -0.4790    2.1050 n         1 M52     -0.317000
     17 C02        -1.3170   -0.5870    3.2480 c2        1 M52      0.003000
     18 C04        -5.6130    2.8530    2.7510 c1        1 M52     -0.223500
     19 C05        -1.6690    0.4080    4.1010 c2        1 M52     -0.131000
     20 C07        -2.4540    0.1550    5.2280 c1        1 M52     -0.148000
     21 C08        -3.1130   -0.0410    6.2080 c1        1 M52     -0.070000
     22 C03        -4.6120    2.2990    3.0990 c1        1 M52     -0.223500
     23 O02        -3.7700   -0.3060    7.3300 os        1 M52     -0.113000
     24 C06        -5.0880    0.2800    7.3720 c3        1 M52     -0.082000
     25 H10         0.2080    0.0820   -0.5050 h1        1 M52      0.143000
     26 H10A        1.1090    1.6000   -0.0120 h1        1 M52      0.143000
     27 H13         1.6160   -3.5930   -6.2790 h4        1 M52      0.198000
     28 H14         0.8970   -0.9710   -3.2050 ha        1 M52      0.086000
     29 HN04        4.3880   -3.2040   -0.9940 hn        1 M52      0.276500
     30 HN0A        4.9690   -3.5350   -2.5730 hn        1 M52      0.276500
     31 H09         3.9990   -0.2460    1.2540 h1        1 M52      0.090333
     32 H09A        2.8940    1.0600    1.8950 h1        1 M52      0.090333
     33 H09B        3.5870    1.2050    0.2160 h1        1 M52      0.090333
     34 HN02       -0.3780   -1.3310    1.6010 hn        1 M52      0.270000
     35 H04        -6.4980    3.3460    2.4400 ha        1 M52      0.222500
     36 H05        -1.6540   -1.6290    3.4330 h4        1 M52      0.144000
     37 H07        -1.3430    1.4550    3.9560 ha        1 M52      0.173000
     38 H03        -3.7200    1.8060    3.4080 ha        1 M52      0.222500
     39 H06        -5.7160   -0.1250    6.5440 h1        1 M52      0.090000
     40 H06A       -5.0180    1.3910    7.3080 h1        1 M52      0.090000
     41 H06B       -5.4730   -0.0460    8.3700 h1        1 M52      0.090000
     42 BR          0.1960   -1.5150   -6.2340 br        1 M52      0.137000
@<TRIPOS>BOND
     1    1   13 1   
     2    1   14 1   
     3    1   25 1   
     4    1   26 1   
     5    2    4 1   
     6    2    6 1   
     7    3    6 1   
     8    3    7 1   
     9    3    8 1   
    10    4   27 1   
    11    4   42 1   
    12    5    8 1   
    13    5   28 1   
    14    7   29 1   
    15    7   30 1   
    16    8    9 1   
    17    9   10 1   
    18    9   12 1   
    19    9   13 1   
    20   11   13 1   
    21   11   31 1   
    22   11   32 1   
    23   11   33 1   
    24   14   15 1   
    25   14   16 1   
    26   16   17 1   
    27   16   34 1   
    28   17   19 1   
    29   17   36 1   
    30   18   22 1   
    31   18   35 1   
    32   19   20 1   
    33   19   37 1   
    34   20   21 1   
    35   21   23 1   
    36   22   38 1   
    37   23   24 1   
    38   24   39 1   
    39   24   40 1   
    40   24   41 1   
@<TRIPOS>SUBSTRUCTURE
     1 M52         1 TEMP              0 ****  ****    0 ROOT
