@<TRIPOS>MOLECULE
M54
   54    58     1     0     0
SMALL
bcc


@<TRIPOS>ATOM
      1 C           0.0330   -0.0320    0.0020 ca        1 M54      0.036000
      2 C1          1.4480   -0.1310    0.0380 ca        1 M54     -0.116000
      3 C2          2.1110   -0.0990    1.2390 ca        1 M54     -0.144000
      4 C3         -0.6630    0.0940    1.1960 ca        1 M54     -0.117000
      5 C4         -0.0040    0.1370    2.4510 ca        1 M54      0.028000
      6 C5          1.4150    0.0350    2.4680 ca        1 M54     -0.060000
      7 C6          2.1070    0.0540    3.7200 ca        1 M54     -0.067300
      8 C7          1.4050    0.1140    4.8940 ca        1 M54     -0.126000
      9 C8         -0.7150    0.2570    3.6940 ca        1 M54     -0.135600
     10 C9         -0.0180    0.1940    4.9070 ca        1 M54      0.044200
     11 C10        -0.7250    0.2320    6.1630 cc        1 M54     -0.135400
     12 C11        -2.0940    0.3720    6.1520 cd        1 M54      0.039600
     13 N          -2.8000    0.4840    4.9870 ns        1 M54     -0.437100
     14 C12        -2.1790    0.4560    3.7240 c         1 M54      0.700100
     15 O          -2.9340    0.6240    2.7480 o         1 M54     -0.628500
     16 C13        -0.6620   -0.0660   -1.2530 cc        1 M54     -0.234300
     17 C14        -0.1900   -0.5060   -2.5090 cd        1 M54     -0.124300
     18 N15        -1.2440   -0.3390   -3.4010 na        1 M54     -0.012600
     19 N16        -2.3350    0.1650   -2.8180 nd        1 M54     -0.501800
     20 C17        -2.0330    0.3480   -1.5100 cc        1 M54      0.323200
     21 C18         3.5970    0.0010    3.7730 c3        1 M54     -0.028100
     22 C19         4.1820    1.3600    3.4200 c3        1 M54     -0.115400
     23 C20         5.7010    1.2800    3.4520 c3        1 M54      0.099800
     24 N21         6.3450    2.5870    3.1170 nz        1 M54     -0.839600
     25 C22        -0.0400    0.1120    7.4490 ca        1 M54     -0.007800
     26 C23        -0.2170    1.1030    8.4270 ca        1 M54     -0.163000
     27 C24         1.1960   -0.1190    9.9640 ca        1 M54     -0.207000
     28 C25         1.3740   -1.1070    8.9850 ca        1 M54      0.123100
     29 C26         0.3960    0.9820    9.6720 ca        1 M54     -0.088000
     30 C27         0.7550   -1.0040    7.7290 ca        1 M54     -0.156000
     31 O28         2.1680   -2.2140    9.1820 oh        1 M54     -0.499100
     32 H1          2.0020   -0.2400   -0.9070 ha        1 M54      0.132000
     33 H2          3.2060   -0.1990    1.2470 ha        1 M54      0.106000
     34 H3         -1.7650    0.1470    1.1490 ha        1 M54      0.186000
     35 H7          1.9310    0.1060    5.8640 ha        1 M54      0.149000
     36 H11        -2.6820    0.3980    7.0900 h4        1 M54      0.169000
     37 HN         -3.7930    0.5920    5.0110 hn        1 M54      0.347500
     38 H14         0.7720   -0.9160   -2.8100 h4        1 M54      0.176000
     39 HN15       -1.2540   -0.5690   -4.3680 hn        1 M54      0.328700
     40 H17        -2.7500    0.7540   -0.7940 h4        1 M54      0.059100
     41 H181        3.9330   -0.2920    4.8060 hc        1 M54      0.064200
     42 H182        3.9820   -0.7840    3.0680 hc        1 M54      0.064200
     43 H191        3.8110    2.1220    4.1570 hc        1 M54      0.078700
     44 H192        3.8190    1.6620    2.4000 hc        1 M54      0.078700
     45 H201        6.0660    0.5180    2.7040 hx        1 M54      0.112200
     46 H202        6.0550    0.9780    4.4800 hx        1 M54      0.112200
     47 H211        6.0530    3.3040    3.7900 hn        1 M54      0.461133
     48 H212        7.3640    2.4970    3.1430 hn        1 M54      0.461133
     49 H23        -0.8460    1.9780    8.2070 ha        1 M54      0.138000
     50 H24         1.6740   -0.2190   10.9480 ha        1 M54      0.142000
     51 H26         0.2440    1.7610   10.4350 ha        1 M54      0.142000
     52 H27         0.8900   -1.8060    6.9890 ha        1 M54      0.157000
     53 HO28        2.4060   -2.2480   10.1210 ho        1 M54      0.426000
     54 H213        6.0580    2.8890    2.1790 hn        1 M54      0.461133
@<TRIPOS>BOND
     1    1    2 ar  
     2    1    4 ar  
     3    1   16 1   
     4    2    3 ar  
     5    2   32 1   
     6    3    6 ar  
     7    3   33 1   
     8    4    5 ar  
     9    4   34 1   
    10    5    6 ar  
    11    5    9 ar  
    12    6    7 ar  
    13    7    8 ar  
    14    7   21 1   
    15    8   10 ar  
    16    8   35 1   
    17    9   10 ar  
    18    9   14 1   
    19   10   11 1   
    20   11   12 2   
    21   11   25 1   
    22   12   13 1   
    23   12   36 1   
    24   13   14 1   
    25   13   37 1   
    26   14   15 2   
    27   16   17 2   
    28   16   20 1   
    29   17   18 1   
    30   17   38 1   
    31   18   19 1   
    32   18   39 1   
    33   19   20 2   
    34   20   40 1   
    35   21   22 1   
    36   21   41 1   
    37   21   42 1   
    38   22   23 1   
    39   22   43 1   
    40   22   44 1   
    41   23   24 1   
    42   23   45 1   
    43   23   46 1   
    44   24   47 1   
    45   24   48 1   
    46   24   54 1   
    47   25   26 ar  
    48   25   30 ar  
    49   26   29 ar  
    50   26   49 1   
    51   27   28 ar  
    52   27   29 ar  
    53   27   50 1   
    54   28   30 ar  
    55   28   31 1   
    56   29   51 1   
    57   30   52 1   
    58   31   53 1   
@<TRIPOS>SUBSTRUCTURE
     1 M54         1 TEMP              0 ****  ****    0 ROOT
