@<TRIPOS>MOLECULE
M54
   54    58     1     0     0
SMALL
bcc


@<TRIPOS>ATOM
      1 C           0.0350   -0.0170    0.0010 ca        1 M54      0.036000
      2 C1          1.4500   -0.1190    0.0370 ca        1 M54     -0.116000
      3 C2          2.1120   -0.0900    1.2390 ca        1 M54     -0.144000
      4 C3         -0.6610    0.1070    1.1940 ca        1 M54     -0.117000
      5 C4         -0.0040    0.1460    2.4500 ca        1 M54      0.028000
      6 C5          1.4160    0.0420    2.4670 ca        1 M54     -0.060000
      7 C6          2.1060    0.0580    3.7200 ca        1 M54     -0.067300
      8 C7          1.4030    0.1170    4.8940 ca        1 M54     -0.126000
      9 C8         -0.7150    0.2650    3.6920 ca        1 M54     -0.135600
     10 C9         -0.0190    0.1990    4.9050 ca        1 M54      0.044200
     11 C10        -0.7270    0.2340    6.1620 cc        1 M54     -0.135400
     12 C11        -2.0960    0.3770    6.1490 cd        1 M54      0.039600
     13 N          -2.8010    0.4930    4.9840 n         1 M54     -0.437100
     14 C12        -2.1790    0.4660    3.7220 c         1 M54      0.700100
     15 O          -2.9330    0.6380    2.7460 o         1 M54     -0.628500
     16 C13        -0.6590   -0.0490   -1.2550 cc        1 M54     -0.234300
     17 C14        -0.1870   -0.4870   -2.5110 cd        1 M54     -0.124300
     18 N15        -1.2400   -0.3170   -3.4050 na        1 M54     -0.012600
     19 N16        -2.3300    0.1870   -2.8210 nd        1 M54     -0.501800
     20 C17        -2.0290    0.3670   -1.5120 cc        1 M54      0.323200
     21 C18         3.5960    0.0030    3.7750 c3        1 M54     -0.028100
     22 C19         4.1830    1.3630    3.4250 c3        1 M54     -0.115400
     23 C20         5.7020    1.2810    3.4580 c3        1 M54      0.099800
     24 N21         6.3480    2.5880    3.1260 n4        1 M54     -0.839600
     25 C22        -0.0430    0.1100    7.4480 ca        1 M54     -0.007800
     26 C23        -0.2200    1.0990    8.4280 ca        1 M54     -0.163000
     27 C24         1.1900   -0.1290    9.9630 ca        1 M54     -0.207000
     28 C25         1.3680   -1.1150    8.9820 ca        1 M54      0.123100
     29 C26         0.3920    0.9740    9.6730 ca        1 M54     -0.088000
     30 C27         0.7500   -1.0080    7.7250 ca        1 M54     -0.156000
     31 O28         2.1600   -2.2230    9.1770 oh        1 M54     -0.499100
     32 H1          2.0040   -0.2270   -0.9070 ha        1 M54      0.132000
     33 H2          3.2070   -0.1910    1.2480 ha        1 M54      0.106000
     34 H3         -1.7630    0.1620    1.1470 ha        1 M54      0.186000
     35 H7          1.9290    0.1060    5.8640 ha        1 M54      0.149000
     36 H11        -2.6850    0.4010    7.0880 h4        1 M54      0.169000
     37 HN         -3.7940    0.6020    5.0080 hn        1 M54      0.347500
     38 H14         0.7760   -0.8980   -2.8130 h4        1 M54      0.176000
     39 HN15       -1.2490   -0.5450   -4.3720 hn        1 M54      0.328700
     40 H17        -2.7470    0.7720   -0.7960 h4        1 M54      0.059100
     41 H181        3.9810   -0.7800    3.0680 hc        1 M54      0.064200
     42 H182        3.9310   -0.2920    4.8060 hc        1 M54      0.064200
     43 H191        3.8230    1.6660    2.4050 hc        1 M54      0.078700
     44 H192        3.8120    2.1230    4.1620 hc        1 M54      0.078700
     45 H201        6.0680    0.5190    2.7100 hx        1 M54      0.112200
     46 H202        6.0540    0.9770    4.4870 hx        1 M54      0.112200
     47 H211        6.0630    2.8910    2.1890 hn        1 M54      0.461133
     48 H212        7.3670    2.4970    3.1550 hn        1 M54      0.461133
     49 H23        -0.8480    1.9760    8.2090 ha        1 M54      0.138000
     50 H24         1.6670   -0.2320   10.9470 ha        1 M54      0.142000
     51 H26         0.2400    1.7520   10.4380 ha        1 M54      0.142000
     52 H27         0.8840   -1.8080    6.9830 ha        1 M54      0.157000
     53 HO28        2.3970   -2.2600   10.1150 ho        1 M54      0.426000
     54 H213        6.0560    3.3040    3.8000 hn        1 M54      0.461133
@<TRIPOS>BOND
     1    1    2 ar  
     2    1    4 ar  
     3    1   16 1   
     4    2    3 ar  
     5    2   32 1   
     6    3    6 ar  
     7    3   33 1   
     8    4    5 ar  
     9    4   34 1   
    10    5    6 ar  
    11    5    9 ar  
    12    6    7 ar  
    13    7    8 ar  
    14    7   21 1   
    15    8   10 ar  
    16    8   35 1   
    17    9   10 ar  
    18    9   14 1   
    19   10   11 1   
    20   11   12 2   
    21   11   25 1   
    22   12   13 1   
    23   12   36 1   
    24   13   14 1   
    25   13   37 1   
    26   14   15 2   
    27   16   17 2   
    28   16   20 1   
    29   17   18 1   
    30   17   38 1   
    31   18   19 1   
    32   18   39 1   
    33   19   20 2   
    34   20   40 1   
    35   21   22 1   
    36   21   41 1   
    37   21   42 1   
    38   22   23 1   
    39   22   43 1   
    40   22   44 1   
    41   23   24 1   
    42   23   45 1   
    43   23   46 1   
    44   24   47 1   
    45   24   48 1   
    46   24   54 1   
    47   25   26 ar  
    48   25   30 ar  
    49   26   29 ar  
    50   26   49 1   
    51   27   28 ar  
    52   27   29 ar  
    53   27   50 1   
    54   28   30 ar  
    55   28   31 1   
    56   29   51 1   
    57   30   52 1   
    58   31   53 1   
@<TRIPOS>SUBSTRUCTURE
     1 M54         1 TEMP              0 ****  ****    0 ROOT
