@<TRIPOS>MOLECULE
M54
   54    58     1     0     0
SMALL
bcc


@<TRIPOS>ATOM
      1 C           0.0380   -0.0320    0.0010 ca        1 M54      0.036000
      2 C1          1.4530   -0.1260    0.0380 ca        1 M54     -0.116000
      3 C2          2.1150   -0.0920    1.2400 ca        1 M54     -0.144000
      4 C3         -0.6600    0.0890    1.1940 ca        1 M54     -0.117000
      5 C4         -0.0020    0.1340    2.4500 ca        1 M54      0.028000
      6 C5          1.4170    0.0370    2.4680 ca        1 M54     -0.060000
      7 C6          2.1080    0.0580    3.7210 ca        1 M54     -0.067300
      8 C7          1.4050    0.1140    4.8940 ca        1 M54     -0.126000
      9 C8         -0.7150    0.2500    3.6920 ca        1 M54     -0.135600
     10 C9         -0.0180    0.1880    4.9060 ca        1 M54      0.044200
     11 C10        -0.7260    0.2220    6.1620 cc        1 M54     -0.135400
     12 C11        -2.0960    0.3560    6.1490 cd        1 M54      0.039600
     13 N          -2.8020    0.4670    4.9830 n         1 M54     -0.437100
     14 C12        -2.1790    0.4430    3.7220 c         1 M54      0.700100
     15 O          -2.9340    0.6090    2.7450 o         1 M54     -0.628500
     16 C13        -0.6560   -0.0680   -1.2550 cc        1 M54     -0.234300
     17 C14        -0.1810   -0.5060   -2.5100 cd        1 M54     -0.124300
     18 N15        -1.2350   -0.3420   -3.4040 na        1 M54     -0.012600
     19 N16        -2.3290    0.1570   -2.8210 nd        1 M54     -0.501800
     20 C17        -2.0280    0.3410   -1.5120 cc        1 M54      0.323200
     21 C18         3.5990    0.0110    3.7750 c3        1 M54     -0.028100
     22 C19         4.1780    1.3740    3.4240 c3        1 M54     -0.115400
     23 C20         5.6970    1.3000    3.4560 c3        1 M54      0.099800
     24 N21         6.3350    2.6100    3.1230 n4        1 M54     -0.839600
     25 C22        -0.0420    0.1020    7.4480 ca        1 M54     -0.007800
     26 C23        -0.2250    1.0920    8.4270 ca        1 M54     -0.163000
     27 C24         1.1920   -0.1280    9.9630 ca        1 M54     -0.207000
     28 C25         1.3750   -1.1130    8.9830 ca        1 M54      0.123100
     29 C26         0.3870    0.9710    9.6730 ca        1 M54     -0.088000
     30 C27         0.7570   -1.0110    7.7270 ca        1 M54     -0.156000
     31 O28         2.1740   -2.2170    9.1800 oh        1 M54     -0.499100
     32 H1          2.0080   -0.2320   -0.9060 ha        1 M54      0.132000
     33 H2          3.2100   -0.1880    1.2490 ha        1 M54      0.106000
     34 H3         -1.7620    0.1380    1.1470 ha        1 M54      0.186000
     35 H7          1.9300    0.1070    5.8640 ha        1 M54      0.149000
     36 H11        -2.6850    0.3790    7.0870 h4        1 M54      0.169000
     37 HN         -3.7950    0.5720    5.0080 hn        1 M54      0.347500
     38 H14         0.7830   -0.9120   -2.8110 h4        1 M54      0.176000
     39 HN15       -1.2440   -0.5720   -4.3710 hn        1 M54      0.328700
     40 H17        -2.7480    0.7430   -0.7970 h4        1 M54      0.059100
     41 H181        3.9350   -0.2810    4.8080 hc        1 M54      0.064200
     42 H182        3.9870   -0.7710    3.0700 hc        1 M54      0.064200
     43 H191        3.8030    2.1330    4.1610 hc        1 M54      0.078700
     44 H192        3.8150    1.6750    2.4040 hc        1 M54      0.078700
     45 H201        6.0660    0.5390    2.7080 hx        1 M54      0.112200
     46 H202        6.0510    0.9990    4.4850 hx        1 M54      0.112200
     47 H211        6.0400    3.3250    3.7960 hn        1 M54      0.461133
     48 H212        7.3560    2.5250    3.1500 hn        1 M54      0.461133
     49 H23        -0.8570    1.9640    8.2080 ha        1 M54      0.138000
     50 H24         1.6700   -0.2270   10.9480 ha        1 M54      0.142000
     51 H26         0.2320    1.7490   10.4370 ha        1 M54      0.142000
     52 H27         0.8960   -1.8110    6.9850 ha        1 M54      0.157000
     53 HO28        2.4110   -2.2510   10.1180 ho        1 M54      0.426000
     54 H213        6.0480    2.9110    2.1850 hn        1 M54      0.461133
@<TRIPOS>BOND
     1    1    2 ar  
     2    1    4 ar  
     3    1   16 1   
     4    2    3 ar  
     5    2   32 1   
     6    3    6 ar  
     7    3   33 1   
     8    4    5 ar  
     9    4   34 1   
    10    5    6 ar  
    11    5    9 ar  
    12    6    7 ar  
    13    7    8 ar  
    14    7   21 1   
    15    8   10 ar  
    16    8   35 1   
    17    9   10 ar  
    18    9   14 1   
    19   10   11 1   
    20   11   12 2   
    21   11   25 1   
    22   12   13 1   
    23   12   36 1   
    24   13   14 1   
    25   13   37 1   
    26   14   15 2   
    27   16   17 2   
    28   16   20 1   
    29   17   18 1   
    30   17   38 1   
    31   18   19 1   
    32   18   39 1   
    33   19   20 2   
    34   20   40 1   
    35   21   22 1   
    36   21   41 1   
    37   21   42 1   
    38   22   23 1   
    39   22   43 1   
    40   22   44 1   
    41   23   24 1   
    42   23   45 1   
    43   23   46 1   
    44   24   47 1   
    45   24   48 1   
    46   24   54 1   
    47   25   26 ar  
    48   25   30 ar  
    49   26   29 ar  
    50   26   49 1   
    51   27   28 ar  
    52   27   29 ar  
    53   27   50 1   
    54   28   30 ar  
    55   28   31 1   
    56   29   51 1   
    57   30   52 1   
    58   31   53 1   
@<TRIPOS>SUBSTRUCTURE
     1 M54         1 TEMP              0 ****  ****    0 ROOT
