@<TRIPOS>MOLECULE
M54
   53    57     1     0     0
SMALL
bcc


@<TRIPOS>ATOM
      1 C          -3.7120   -0.0550    0.2040 ca        1 M54      0.021000
      2 C1         -3.4630   -1.4170    0.5130 ca        1 M54     -0.127000
      3 C2         -2.1740   -1.8770    0.6080 ca        1 M54     -0.117000
      4 C3         -2.6390    0.7990    0.0060 ca        1 M54     -0.125000
      5 C4         -1.2950    0.3550    0.1070 ca        1 M54      0.024000
      6 C5         -1.0630   -1.0160    0.4080 ca        1 M54     -0.055000
      7 C6          0.2780   -1.5070    0.5060 ca        1 M54     -0.022300
      8 C7          1.3310   -0.6580    0.2810 ca        1 M54     -0.154000
      9 C8         -0.1730    1.2300   -0.0900 ca        1 M54     -0.147600
     10 C9          1.1290    0.7150   -0.0300 ca        1 M54      0.047200
     11 C10         2.2680    1.5740   -0.2570 cc        1 M54     -0.126400
     12 C11         2.0600    2.9130   -0.4810 cd        1 M54      0.022600
     13 N           0.8010    3.4520   -0.5200 n         1 M54     -0.444100
     14 C12        -0.3570    2.6720   -0.3400 c         1 M54      0.704100
     15 O          -1.4310    3.3030   -0.4030 o         1 M54     -0.647500
     16 C13        -5.0640    0.4220    0.0980 cc        1 M54     -0.211300
     17 C14        -6.2580   -0.3290    0.0760 cd        1 M54     -0.132300
     18 N15        -7.2970    0.5920   -0.0400 na        1 M54     -0.022600
     19 N16        -6.8600    1.8530   -0.0900 nd        1 M54     -0.517800
     20 C17        -5.5080    1.8030   -0.0110 cc        1 M54      0.318200
     21 C18         0.5570   -2.9290    0.8630 c3        1 M54     -0.045100
     22 C19         0.3940   -3.8530   -0.3290 c3        1 M54     -0.083400
     23 C20         0.6850   -5.2950    0.0880 c3        1 M54      0.158800
     24 N21         0.4650   -6.2510   -0.9700 n3        1 M54     -0.916800
     25 C22         3.6380    1.0620   -0.2600 ca        1 M54      0.001200
     26 C23         4.0270    0.0690   -1.1720 ca        1 M54     -0.157000
     27 C24         6.2880    0.1280   -0.3120 ca        1 M54     -0.213000
     28 C25         5.8970    1.1210    0.5970 ca        1 M54      0.124100
     29 C26         5.3410   -0.3900   -1.1930 ca        1 M54     -0.093000
     30 C27         4.5760    1.5940    0.6300 ca        1 M54     -0.154000
     31 O28         6.7700    1.6880    1.4980 oh        1 M54     -0.497100
     32 H1         -4.3110   -2.0980    0.6750 ha        1 M54      0.129000
     33 H2         -1.9950   -2.9390    0.8390 ha        1 M54      0.136000
     34 H3         -2.8510    1.8510   -0.2430 ha        1 M54      0.176000
     35 H7          2.3670   -1.0280    0.3530 ha        1 M54      0.147000
     36 H11         2.9010    3.6140   -0.6430 h4        1 M54      0.159000
     37 HN          0.6820    4.4280   -0.6830 hn        1 M54      0.337500
     38 H14        -6.4310   -1.4020    0.1260 h4        1 M54      0.176000
     39 HN15       -8.2680    0.3950   -0.0860 hn        1 M54      0.320700
     40 H17        -4.8870    2.7000   -0.0280 h4        1 M54      0.056100
     41 H181        1.6070   -3.0170    1.2550 hc        1 M54      0.053200
     42 H182       -0.1240   -3.2530    1.6950 hc        1 M54      0.053200
     43 H191       -0.6480   -3.7720   -0.7350 hc        1 M54      0.054200
     44 H192        1.0960   -3.5410   -1.1450 hc        1 M54      0.054200
     45 H201        1.7400   -5.3330    0.4960 h1        1 M54      0.024200
     46 H202       -0.0040   -5.5740    0.9370 h1        1 M54      0.024200
     47 H211        0.9200   -5.9680   -1.8140 hn        1 M54      0.349800
     48 H212        0.8040   -7.1530   -0.6990 hn        1 M54      0.349800
     49 H23         3.2870   -0.3420   -1.8750 ha        1 M54      0.143000
     50 H24         7.3260   -0.2340   -0.3290 ha        1 M54      0.135000
     51 H26         5.6380   -1.1670   -1.9140 ha        1 M54      0.135000
     52 H27         4.2940    2.3690    1.3570 ha        1 M54      0.153000
     53 HO28        7.6350    1.2700    1.3790 ho        1 M54      0.420000
@<TRIPOS>BOND
     1    1    2 ar  
     2    1    4 ar  
     3    1   16 1   
     4    2    3 ar  
     5    2   32 1   
     6    3    6 ar  
     7    3   33 1   
     8    4    5 ar  
     9    4   34 1   
    10    5    6 ar  
    11    5    9 ar  
    12    6    7 ar  
    13    7    8 ar  
    14    7   21 1   
    15    8   10 ar  
    16    8   35 1   
    17    9   10 ar  
    18    9   14 1   
    19   10   11 1   
    20   11   12 2   
    21   11   25 1   
    22   12   13 1   
    23   12   36 1   
    24   13   14 1   
    25   13   37 1   
    26   14   15 2   
    27   16   17 2   
    28   16   20 1   
    29   17   18 1   
    30   17   38 1   
    31   18   19 1   
    32   18   39 1   
    33   19   20 2   
    34   20   40 1   
    35   21   22 1   
    36   21   41 1   
    37   21   42 1   
    38   22   23 1   
    39   22   43 1   
    40   22   44 1   
    41   23   24 1   
    42   23   45 1   
    43   23   46 1   
    44   24   47 1   
    45   24   48 1   
    46   25   26 ar  
    47   25   30 ar  
    48   26   29 ar  
    49   26   49 1   
    50   27   28 ar  
    51   27   29 ar  
    52   27   50 1   
    53   28   30 ar  
    54   28   31 1   
    55   29   51 1   
    56   30   52 1   
    57   31   53 1   
@<TRIPOS>SUBSTRUCTURE
     1 M54         1 TEMP              0 ****  ****    0 ROOT
