@<TRIPOS>MOLECULE
M59
   36    39     1     0     0
SMALL
bcc


@<TRIPOS>ATOM
      1 C2         -0.0190    0.0180    0.0320 ca        1 M59      0.456800
      2 N3          1.3190    0.2520   -0.1320 nb        1 M59     -0.736000
      3 C4          1.9670    0.4130    1.0440 ca        1 M59      0.684900
      4 N5          1.4960    0.3780    2.3200 nb        1 M59     -0.798000
      5 C6          0.1510    0.1520    2.4950 ca        1 M59      0.761200
      6 C7         -0.6730   -0.0480    1.3360 ca        1 M59     -0.233200
      7 N8         -0.4060    0.1400    3.7470 nh        1 M59     -0.959500
      8 N14        -2.0410   -0.3060    1.1740 nc        1 M59     -0.548100
      9 C15        -2.2230   -0.3940   -0.1520 cd        1 M59      0.401700
     10 N18        -1.0370   -0.2180   -0.9060 na        1 M59     -0.251000
     11 C1         -0.8870   -0.1950   -2.3350 c3        1 M59      0.049000
     12 C3         -1.7160   -1.2810   -3.0930 c3        1 M59     -0.076400
     13 C5         -2.5100   -0.4750   -4.1400 c3        1 M59     -0.071000
     14 C8         -1.4940    0.0500   -5.1790 c3        1 M59     -0.071400
     15 C9         -0.7200    1.1410   -4.4170 c3        1 M59     -0.083400
     16 C10        -1.3600    1.1370   -3.0150 c3        1 M59     -0.085700
     17 C11        -2.8350    0.8220   -3.3500 c3        1 M59     -0.085400
     18 C12        -3.7050   -1.1880   -4.7140 c3        1 M59      0.154400
     19 O13        -3.2590   -2.3910   -5.3230 oh        1 M59     -0.597800
     20 H1          3.0590    0.6040    0.9610 h5        1 M59      0.050100
     21 H2          0.1670    0.1980    4.5520 hn        1 M59      0.446300
     22 H3         -1.3560   -0.1180    3.8400 hn        1 M59      0.446300
     23 H4         -3.1840   -0.5930   -0.6420 h5        1 M59      0.071800
     24 H5          0.2110   -0.3480   -2.5480 h1        1 M59      0.095700
     25 H6         -1.0370   -2.0200   -3.5810 hc        1 M59      0.063700
     26 H7         -2.4120   -1.8400   -2.4230 hc        1 M59      0.063700
     27 H8         -0.8260   -0.7690   -5.5350 hc        1 M59      0.052700
     28 H9         -2.0260    0.4760   -6.0630 hc        1 M59      0.052700
     29 H10         0.3730    0.9220   -4.3750 hc        1 M59      0.051700
     30 H11        -0.8580    2.1390   -4.8980 hc        1 M59      0.051700
     31 H12        -1.1760    2.0530   -2.4230 hc        1 M59      0.084700
     32 H13        -3.3100    1.6040   -3.9830 hc        1 M59      0.052200
     33 H14        -3.4620    0.6390   -2.4510 hc        1 M59      0.052200
     34 H15        -4.4400   -1.4280   -3.8970 h1        1 M59      0.024700
     35 H16        -4.2100   -0.5370   -5.4790 h1        1 M59      0.024700
     36 H17        -4.0380   -2.8040   -5.7120 ho        1 M59      0.401000
@<TRIPOS>BOND
     1    1    2 ar  
     2    1    6 ar  
     3    1   10 1   
     4    2    3 ar  
     5    3    4 ar  
     6    3   20 1   
     7    4    5 ar  
     8    5    6 ar  
     9    5    7 1   
    10    6    8 1   
    11    7   21 1   
    12    7   22 1   
    13    8    9 2   
    14    9   10 1   
    15    9   23 1   
    16   10   11 1   
    17   11   12 1   
    18   11   16 1   
    19   11   24 1   
    20   12   13 1   
    21   12   25 1   
    22   12   26 1   
    23   13   14 1   
    24   13   17 1   
    25   13   18 1   
    26   14   15 1   
    27   14   27 1   
    28   14   28 1   
    29   15   16 1   
    30   15   29 1   
    31   15   30 1   
    32   16   17 1   
    33   16   31 1   
    34   17   32 1   
    35   17   33 1   
    36   18   19 1   
    37   18   34 1   
    38   18   35 1   
    39   19   36 1   
@<TRIPOS>SUBSTRUCTURE
     1 M59         1 TEMP              0 ****  ****    0 ROOT
