@<TRIPOS>MOLECULE
M59
   36    39     1     0     0
SMALL
bcc


@<TRIPOS>ATOM
      1 C2         -0.0080   -0.0160    0.0260 ca        1 M59      0.456800
      2 N3          1.3350    0.1820   -0.1440 nb        1 M59     -0.736000
      3 C4          1.9930    0.3270    1.0290 ca        1 M59      0.684900
      4 N5          1.5270    0.3060    2.3070 nb        1 M59     -0.798000
      5 C6          0.1770    0.1160    2.4880 ca        1 M59      0.761200
      6 C7         -0.6570   -0.0620    1.3330 ca        1 M59     -0.233200
      7 N8         -0.3740    0.1210    3.7430 nv        1 M59     -0.959500
      8 N14        -2.0320   -0.2830    1.1770 nc        1 M59     -0.548100
      9 C15        -2.2230   -0.3680   -0.1480 cd        1 M59      0.401700
     10 N18        -1.0360   -0.2250   -0.9070 na        1 M59     -0.251000
     11 C1         -0.8910   -0.2080   -2.3370 c3        1 M59      0.049000
     12 C3         -1.7530   -1.2720   -3.0890 c3        1 M59     -0.076400
     13 C5         -2.5290   -0.4460   -4.1340 c3        1 M59     -0.071000
     14 C8         -1.5040    0.0500   -5.1790 c3        1 M59     -0.071400
     15 C9         -0.6980    1.1200   -4.4220 c3        1 M59     -0.083400
     16 C10        -1.3310    1.1350   -3.0170 c3        1 M59     -0.085700
     17 C11        -2.8160    0.8600   -3.3450 c3        1 M59     -0.085400
     18 C12        -3.7450   -1.1270   -4.7030 c3        1 M59      0.154400
     19 O13        -3.3340   -2.3430   -5.3120 oh        1 M59     -0.597800
     20 H1          3.0890    0.4870    0.9410 h5        1 M59      0.050100
     21 H2          0.2030    0.1650    4.5450 hn        1 M59      0.446300
     22 H3         -1.3310   -0.1100    3.8400 hn        1 M59      0.446300
     23 H4         -3.1910   -0.5410   -0.6340 h5        1 M59      0.071800
     24 H5          0.2010   -0.3910   -2.5540 h1        1 M59      0.095700
     25 H6         -2.4610   -1.8110   -2.4160 hc        1 M59      0.063700
     26 H7         -1.0960   -2.0290   -3.5790 hc        1 M59      0.063700
     27 H8         -2.0280    0.4890   -6.0610 hc        1 M59      0.052700
     28 H9         -0.8600   -0.7870   -5.5360 hc        1 M59      0.052700
     29 H10        -0.8100    2.1210   -4.9030 hc        1 M59      0.051700
     30 H11         0.3890    0.8730   -4.3840 hc        1 M59      0.051700
     31 H12        -1.1200    2.0460   -2.4260 hc        1 M59      0.084700
     32 H13        -3.2720    1.6530   -3.9770 hc        1 M59      0.052200
     33 H14        -3.4440    0.6950   -2.4420 hc        1 M59      0.052200
     34 H15        -4.4830   -1.3470   -3.8820 h1        1 M59      0.024700
     35 H16        -4.2360   -0.4630   -5.4660 h1        1 M59      0.024700
     36 H17        -4.1260   -2.7350   -5.6970 ho        1 M59      0.401000
@<TRIPOS>BOND
     1    1    2 ar  
     2    1    6 ar  
     3    1   10 1   
     4    2    3 ar  
     5    3    4 ar  
     6    3   20 1   
     7    4    5 ar  
     8    5    6 ar  
     9    5    7 1   
    10    6    8 1   
    11    7   21 1   
    12    7   22 1   
    13    8    9 2   
    14    9   10 1   
    15    9   23 1   
    16   10   11 1   
    17   11   12 1   
    18   11   16 1   
    19   11   24 1   
    20   12   13 1   
    21   12   25 1   
    22   12   26 1   
    23   13   14 1   
    24   13   17 1   
    25   13   18 1   
    26   14   15 1   
    27   14   27 1   
    28   14   28 1   
    29   15   16 1   
    30   15   29 1   
    31   15   30 1   
    32   16   17 1   
    33   16   31 1   
    34   17   32 1   
    35   17   33 1   
    36   18   19 1   
    37   18   34 1   
    38   18   35 1   
    39   19   36 1   
@<TRIPOS>SUBSTRUCTURE
     1 M59         1 TEMP              0 ****  ****    0 ROOT
