@<TRIPOS>MOLECULE
M5F
   27    27     1     0     0
SMALL
bcc


@<TRIPOS>ATOM
      1 F5         -0.1500    0.2530    0.0030 f         1 M5F     -0.079500
      2 C5          1.1860    0.1420   -0.0110 cc        1 M5F      0.107300
      3 C6          1.8840   -0.2920    1.0790 cd        1 M5F     -0.109400
      4 N1          3.2790   -0.4760    1.0380 n         1 M5F     -0.392000
      5 CAB         4.0220   -0.3840    2.2630 c3        1 M5F      0.094000
      6 CAM         4.6730   -1.7550    2.7030 c3        1 M5F      0.074500
      7 CAL         5.5170   -1.4630    3.9660 c3        1 M5F      0.069800
      8 NAJ         5.3960   -2.4760    5.0520 nz        1 M5F     -0.844600
      9 NAA         5.4810   -2.3400    1.5900 nz        1 M5F     -0.850600
     10 C2          3.9830   -0.1310   -0.1700 c         1 M5F      0.813500
     11 O2          5.2280   -0.3190   -0.1820 o         1 M5F     -0.711500
     12 N3          3.2880    0.3160   -1.2720 ns        1 M5F     -0.547500
     13 C4          1.8830    0.5070   -1.2840 c         1 M5F      0.679700
     14 O4          1.3360    0.9410   -2.2930 o         1 M5F     -0.450500
     15 H1          1.3790   -0.5450    2.0290 h4        1 M5F      0.189000
     16 H2          3.3410   -0.0760    3.1090 h1        1 M5F      0.110700
     17 H3          4.8570    0.3720    2.1610 h1        1 M5F      0.110700
     18 H4          3.8370   -2.4860    2.9240 hx        1 M5F      0.125700
     19 H5          6.6170   -1.3480    3.7200 hx        1 M5F      0.150700
     20 H6          5.1760   -0.4710    4.4070 hx        1 M5F      0.150700
     21 H7          5.7490   -3.3940    4.7590 hn        1 M5F      0.483800
     22 H8          5.9490   -2.1630    5.8680 hn        1 M5F      0.483800
     23 H10         4.8440   -2.6810    0.8510 hn        1 M5F      0.488133
     24 H11         6.0660   -1.5970    1.1440 hn        1 M5F      0.488133
     25 H13         3.8170    0.5410   -2.0980 hn        1 M5F      0.393500
     26 HAJ3        4.4160   -2.5820    5.3510 hn        1 M5F      0.483800
     27 HAA3        6.0740   -3.1100    1.9020 hn        1 M5F      0.488133
@<TRIPOS>BOND
     1    1    2 1   
     2    2    3 2   
     3    2   13 1   
     4    3    4 1   
     5    3   15 1   
     6    4    5 1   
     7    4   10 1   
     8    5    6 1   
     9    5   16 1   
    10    5   17 1   
    11    6    7 1   
    12    6    9 1   
    13    6   18 1   
    14    7    8 1   
    15    7   19 1   
    16    7   20 1   
    17    8   21 1   
    18    8   22 1   
    19    8   26 1   
    20    9   23 1   
    21    9   24 1   
    22    9   27 1   
    23   10   11 2   
    24   10   12 1   
    25   12   13 1   
    26   12   25 1   
    27   13   14 2   
@<TRIPOS>SUBSTRUCTURE
     1 M5F         1 TEMP              0 ****  ****    0 ROOT
