@<TRIPOS>MOLECULE
M5F
   27    27     1     0     0
SMALL
bcc


@<TRIPOS>ATOM
      1 F5         -0.1700    0.2030    0.0190 f         1 M5F     -0.079500
      2 C5          1.1670    0.1100    0.0010 cc        1 M5F      0.107300
      3 C6          1.8740   -0.3190    1.0880 cd        1 M5F     -0.109400
      4 N1          3.2710   -0.4850    1.0420 n         1 M5F     -0.392000
      5 CAB         4.0160   -0.3870    2.2650 c3        1 M5F      0.094000
      6 CAM         4.6870   -1.7500    2.6990 c3        1 M5F      0.074500
      7 CAL         5.5290   -1.4520    3.9620 c3        1 M5F      0.069800
      8 NAJ         5.4220   -2.4690    5.0440 n4        1 M5F     -0.844600
      9 NAA         5.5000   -2.3210    1.5820 n4        1 M5F     -0.850600
     10 C2          3.9670   -0.1260   -0.1660 c         1 M5F      0.813500
     11 O2          5.2150   -0.2980   -0.1830 o         1 M5F     -0.711500
     12 N3          3.2640    0.3150   -1.2650 n         1 M5F     -0.547500
     13 C4          1.8560    0.4880   -1.2730 c         1 M5F      0.679700
     14 O4          1.3000    0.9170   -2.2800 o         1 M5F     -0.450500
     15 H1          1.3750   -0.5820    2.0380 h4        1 M5F      0.189000
     16 H2          4.8410    0.3810    2.1640 h1        1 M5F      0.110700
     17 H3          3.3340   -0.0910    3.1140 h1        1 M5F      0.110700
     18 H4          3.8600   -2.4930    2.9200 hx        1 M5F      0.125700
     19 H5          5.1780   -0.4660    4.4050 hx        1 M5F      0.150700
     20 H6          6.6270   -1.3240    3.7130 hx        1 M5F      0.150700
     21 H7          5.7850   -3.3830    4.7490 hn        1 M5F      0.483800
     22 H8          5.9730   -2.1520    5.8610 hn        1 M5F      0.483800
     23 H10         4.8650   -2.6670    0.8440 hn        1 M5F      0.488133
     24 H11         6.1040   -3.0840    1.8900 hn        1 M5F      0.488133
     25 H13         3.7880    0.5500   -2.0920 hn        1 M5F      0.393500
     26 HAJ3        4.4440   -2.5860    5.3450 hn        1 M5F      0.483800
     27 HAA3        6.0730   -1.5680    1.1380 hn        1 M5F      0.488133
@<TRIPOS>BOND
     1    1    2 1   
     2    2    3 2   
     3    2   13 1   
     4    3    4 1   
     5    3   15 1   
     6    4    5 1   
     7    4   10 1   
     8    5    6 1   
     9    5   16 1   
    10    5   17 1   
    11    6    7 1   
    12    6    9 1   
    13    6   18 1   
    14    7    8 1   
    15    7   19 1   
    16    7   20 1   
    17    8   21 1   
    18    8   22 1   
    19    8   26 1   
    20    9   23 1   
    21    9   24 1   
    22    9   27 1   
    23   10   11 2   
    24   10   12 1   
    25   12   13 1   
    26   12   25 1   
    27   13   14 2   
@<TRIPOS>SUBSTRUCTURE
     1 M5F         1 TEMP              0 ****  ****    0 ROOT
