@<TRIPOS>MOLECULE
M5M
   39    40     1     0     0
SMALL
bcc


@<TRIPOS>ATOM
      1 P           0.1970   -3.9990    1.6470 p5        1 M5M      1.427800
      2 N2'         0.3500    2.4670    1.0770 n         1 M5M     -0.515900
      3 C6'         1.3800    3.1370    0.4340 c         1 M5M      0.650100
      4 C7'         1.1000    4.5700    0.0350 c3        1 M5M     -0.183100
      5 O8'         2.4620    2.5930    0.1280 o         1 M5M     -0.628100
      6 OP1        -0.7830   -5.1010    1.5320 o         1 M5M     -0.842500
      7 OP2         1.4820   -4.7310    2.3510 oh        1 M5M     -0.782400
      8 O5'        -0.2510   -3.0630    2.9280 os        1 M5M     -0.583200
      9 C5'         0.4940   -1.9070    3.1660 c3        1 M5M      0.187400
     10 C4'        -0.3720   -0.6590    2.9330 c3        1 M5M      0.114100
     11 O4'        -0.0860    0.2850    3.9830 os        1 M5M     -0.399600
     12 C1'         0.0950    1.5930    3.4090 c3        1 M5M      0.309500
     13 N1          0.9490    2.4580    4.1980 n         1 M5M     -0.327400
     14 C6          1.9580    1.9740    4.9670 c1        1 M5M     -0.050900
     15 C2          0.6730    3.8760    4.1190 c         1 M5M      0.742500
     16 O2         -0.2160    4.2820    3.3080 o         1 M5M     -0.746100
     17 N3          1.3950    4.7770    4.8870 ne        1 M5M     -0.805100
     18 C4          2.3750    4.2740    5.6970 cf        1 M5M      0.662500
     19 N4          3.0680    5.1830    6.5490 nh        1 M5M     -0.882800
     20 C5          2.6990    2.8990    5.7370 cf        1 M5M     -0.582700
     21 C2'         0.6110    1.3410    1.9390 c3        1 M5M      0.009700
     22 C3'        -0.1120    0.0160    1.5690 c3        1 M5M      0.103100
     23 O3'        -1.3790    0.2340    0.9670 oh        1 M5M     -0.602800
     24 OP3         0.6640   -3.1070    0.5670 o         1 M5M     -0.842500
     25 H7'1        0.8550    5.1700    0.9480 hc        1 M5M      0.057700
     26 H7'2        2.0060    4.9960   -0.4580 hc        1 M5M      0.057700
     27 H7'3        0.2400    4.6190   -0.6740 hc        1 M5M      0.057700
     28 H5'         0.8120   -1.9110    4.2480 h1        1 M5M      0.044700
     29 H5''        1.4050   -1.8870    2.5080 h1        1 M5M      0.044700
     30 H4'        -1.4600   -0.9280    3.0280 h1        1 M5M      0.071700
     31 H1'        -0.9360    2.0670    3.3730 h2        1 M5M      0.060700
     32 H6          1.2250   -5.5290    2.7960 ho        1 M5M      0.418000
     33 HN41        4.0290    4.9240    6.6300 hn        1 M5M      0.356300
     34 HN42        2.9760    6.1400    6.2780 hn        1 M5M      0.356300
     35 H5          3.5040    2.5120    6.3660 ha        1 M5M      0.114000
     36 H2'         1.7200    1.1250    1.9580 h1        1 M5M      0.104700
     37 H3'         0.5270   -0.6280    0.9050 h1        1 M5M      0.108700
     38 HO3'       -1.2050    0.4060    0.0350 ho        1 M5M      0.395000
     39 HN'2       -0.3870    3.0580    1.4180 hn        1 M5M      0.319500
@<TRIPOS>BOND
     1    1    6 1   
     2    1    7 1   
     3    1    8 1   
     4    1   24 1   
     5    2    3 1   
     6    2   21 1   
     7    2   39 1   
     8    3    4 1   
     9    3    5 2   
    10    4   25 1   
    11    4   26 1   
    12    4   27 1   
    13    7   32 1   
    14    8    9 1   
    15    9   10 1   
    16    9   28 1   
    17    9   29 1   
    18   10   11 1   
    19   10   22 1   
    20   10   30 1   
    21   11   12 1   
    22   12   13 1   
    23   12   21 1   
    24   12   31 1   
    25   13   14 2   
    26   13   15 1   
    27   14   20 2   
    28   15   16 2   
    29   15   17 1   
    30   17   18 2   
    31   18   19 1   
    32   18   20 1   
    33   19   33 1   
    34   19   34 1   
    35   20   35 1   
    36   21   22 1   
    37   21   36 1   
    38   22   23 1   
    39   22   37 1   
    40   23   38 1   
@<TRIPOS>SUBSTRUCTURE
     1 M5M         1 TEMP              0 ****  ****    0 ROOT
