@<TRIPOS>MOLECULE
M5P
   30    30     1     0     0
SMALL
bcc


@<TRIPOS>ATOM
      1 C1          0.0400    0.6900    0.1540 ca        1 M5P     -0.129500
      2 C2          1.4310    0.7490    0.2250 ca        1 M5P     -0.137000
      3 C3          2.1080    0.1010    1.2560 ca        1 M5P     -0.151000
      4 C4          1.3870   -0.6100    2.2170 ca        1 M5P     -0.137000
      5 C5         -0.0030   -0.6700    2.1500 ca        1 M5P     -0.129500
      6 C6         -0.6900   -0.0190    1.1160 ca        1 M5P     -0.056300
      7 C7         -2.1770   -0.0640    1.0570 c3        1 M5P     -0.039100
      8 C8         -2.7150   -1.4800    1.0080 c3        1 M5P     -0.090400
      9 C9         -4.2290   -1.4870    0.9620 c3        1 M5P     -0.054400
     10 C10        -4.7780   -2.8720    1.2630 c3        1 M5P     -0.189700
     11 C12        -4.6220   -3.1820    2.7840 c         1 M5P      0.919600
     12 O2         -3.4830   -3.5540    3.1840 o         1 M5P     -0.839300
     13 O1         -5.6320   -3.0490    3.5290 o         1 M5P     -0.839300
     14 C11        -6.2320   -2.9820    0.8870 c3        1 M5P      0.077700
     15 S1         -6.4110   -2.9660   -0.8980 sh        1 M5P     -0.476900
     16 H1         -0.4880    1.2000   -0.6650 ha        1 M5P      0.142000
     17 H2          1.9940    1.3070   -0.5360 ha        1 M5P      0.119000
     18 H3          3.2040    0.1460    1.3120 ha        1 M5P      0.115000
     19 H4          1.9170   -1.1280    3.0300 ha        1 M5P      0.119000
     20 H5         -0.5720   -1.2390    2.9030 ha        1 M5P      0.142000
     21 H71        -2.5860    0.4520    1.9690 hc        1 M5P      0.040700
     22 H72        -2.5440    0.5060    0.1620 hc        1 M5P      0.040700
     23 H81        -2.3810   -2.0590    1.9160 hc        1 M5P      0.066200
     24 H82        -2.3080   -2.0080    0.1060 hc        1 M5P      0.066200
     25 H91        -4.6360   -0.7640    1.7170 hc        1 M5P      0.028200
     26 H92        -4.5800   -1.1500   -0.0500 hc        1 M5P      0.028200
     27 H10        -4.1810   -3.6390    0.7010 hc        1 M5P      0.054700
     28 H111       -6.8090   -2.1350    1.3260 h1        1 M5P      0.064200
     29 H112       -6.6510   -3.9350    1.2910 h1        1 M5P      0.064200
     30 HS1        -7.7010   -3.2290   -0.9700 hs        1 M5P      0.180800
@<TRIPOS>BOND
     1    1    2 ar  
     2    1    6 ar  
     3    1   16 1   
     4    2    3 ar  
     5    2   17 1   
     6    3    4 ar  
     7    3   18 1   
     8    4    5 ar  
     9    4   19 1   
    10    5    6 ar  
    11    5   20 1   
    12    6    7 1   
    13    7    8 1   
    14    7   21 1   
    15    7   22 1   
    16    8    9 1   
    17    8   23 1   
    18    8   24 1   
    19    9   10 1   
    20    9   25 1   
    21    9   26 1   
    22   10   11 1   
    23   10   14 1   
    24   10   27 1   
    25   11   12 1   
    26   11   13 1   
    27   14   15 1   
    28   14   28 1   
    29   14   29 1   
    30   15   30 1   
@<TRIPOS>SUBSTRUCTURE
     1 M5P         1 TEMP              0 ****  ****    0 ROOT
