@<TRIPOS>MOLECULE
M5P
   30    30     1     0     0
SMALL
bcc


@<TRIPOS>ATOM
      1 C1         -0.0180    0.7580    0.1490 ca        1 M5P     -0.129500
      2 C2          1.3680    0.8730    0.2440 ca        1 M5P     -0.137000
      3 C3          2.0490    0.2770    1.3040 ca        1 M5P     -0.151000
      4 C4          1.3370   -0.4360    2.2690 ca        1 M5P     -0.137000
      5 C5         -0.0480   -0.5510    2.1780 ca        1 M5P     -0.129500
      6 C6         -0.7390    0.0470    1.1150 ca        1 M5P     -0.056300
      7 C7         -2.2210   -0.0570    1.0300 c3        1 M5P     -0.039100
      8 C8         -2.7050   -1.4940    1.0080 c3        1 M5P     -0.090400
      9 C9         -4.2160   -1.5600    0.9350 c3        1 M5P     -0.054400
     10 C10        -4.7190   -2.9560    1.2620 c3        1 M5P     -0.189700
     11 C12        -4.5810   -3.2210    2.7930 c         1 M5P      0.919600
     12 O2         -3.4380   -3.5370    3.2250 o         1 M5P     -0.839300
     13 O1         -5.6110   -3.1080    3.5150 o         1 M5P     -0.839300
     14 C11        -6.1600   -3.1320    0.8620 c3        1 M5P      0.077700
     15 S1         -6.3030   -3.1690   -0.9260 sh        1 M5P     -0.476900
     16 H1         -0.5490    1.2270   -0.6920 ha        1 M5P      0.142000
     17 H2          1.9250    1.4330   -0.5210 ha        1 M5P      0.119000
     18 H3          3.1410    0.3660    1.3780 ha        1 M5P      0.115000
     19 H4          1.8710   -0.9130    3.1050 ha        1 M5P      0.119000
     20 H5         -0.6100   -1.1230    2.9360 ha        1 M5P      0.142000
     21 H71        -2.6670    0.4660    1.9210 hc        1 M5P      0.040700
     22 H72        -2.5930    0.4760    0.1140 hc        1 M5P      0.040700
     23 H81        -2.2610   -2.0280    0.1290 hc        1 M5P      0.066200
     24 H82        -2.3680   -2.0350    1.9380 hc        1 M5P      0.066200
     25 H91        -4.6650   -0.8330    1.6630 hc        1 M5P      0.028200
     26 H92        -4.5590   -1.2620   -0.0920 hc        1 M5P      0.028200
     27 H10        -4.0820   -3.7140    0.7320 hc        1 M5P      0.054700
     28 H111       -6.7770   -2.2960    1.2670 h1        1 M5P      0.064200
     29 H112       -6.5500   -4.0890    1.2820 h1        1 M5P      0.064200
     30 HS1        -7.5800   -3.4830   -1.0160 hs        1 M5P      0.180800
@<TRIPOS>BOND
     1    1    2 ar  
     2    1    6 ar  
     3    1   16 1   
     4    2    3 ar  
     5    2   17 1   
     6    3    4 ar  
     7    3   18 1   
     8    4    5 ar  
     9    4   19 1   
    10    5    6 ar  
    11    5   20 1   
    12    6    7 1   
    13    7    8 1   
    14    7   21 1   
    15    7   22 1   
    16    8    9 1   
    17    8   23 1   
    18    8   24 1   
    19    9   10 1   
    20    9   25 1   
    21    9   26 1   
    22   10   11 1   
    23   10   14 1   
    24   10   27 1   
    25   11   12 1   
    26   11   13 1   
    27   14   15 1   
    28   14   28 1   
    29   14   29 1   
    30   15   30 1   
@<TRIPOS>SUBSTRUCTURE
     1 M5P         1 TEMP              0 ****  ****    0 ROOT
