@<TRIPOS>MOLECULE
M5P
   30    30     1     0     0
SMALL
bcc


@<TRIPOS>ATOM
      1 C1         -3.5260   -1.5420   -0.0060 ca        1 M5P     -0.129500
      2 C2         -4.8190   -1.2330   -0.4270 ca        1 M5P     -0.137000
      3 C3         -5.2250    0.0970   -0.5200 ca        1 M5P     -0.151000
      4 C4         -4.3330    1.1170   -0.1910 ca        1 M5P     -0.137000
      5 C5         -3.0410    0.8120    0.2320 ca        1 M5P     -0.129500
      6 C6         -2.6260   -0.5240    0.3290 ca        1 M5P     -0.056300
      7 C7         -1.2530   -0.8510    0.8030 c3        1 M5P     -0.039100
      8 C8         -0.1750   -0.2020   -0.0430 c3        1 M5P     -0.090400
      9 C9          1.2060   -0.5460    0.4770 c3        1 M5P     -0.054400
     10 C10         2.2600    0.3630   -0.1320 c3        1 M5P     -0.189700
     11 C12         2.1580    1.7860    0.4980 c         1 M5P      0.919600
     12 O2          1.2540    2.5500    0.0580 o         1 M5P     -0.839300
     13 O1          2.9770    2.0990    1.4060 o         1 M5P     -0.839300
     14 C11         3.6490   -0.1740    0.0930 c3        1 M5P      0.077700
     15 S1          3.9090   -1.6470   -0.8980 sh        1 M5P     -0.476900
     16 H1         -3.2090   -2.5940    0.0610 ha        1 M5P      0.142000
     17 H2         -5.5160   -2.0410   -0.6890 ha        1 M5P      0.119000
     18 H3         -6.2430    0.3410   -0.8530 ha        1 M5P      0.115000
     19 H4         -4.6470    2.1680   -0.2680 ha        1 M5P      0.119000
     20 H5         -2.3320    1.6180    0.4830 ha        1 M5P      0.142000
     21 H71        -1.1480   -0.4970    1.8650 hc        1 M5P      0.040700
     22 H72        -1.1030   -1.9640    0.8080 hc        1 M5P      0.040700
     23 H81        -0.2730   -0.5410   -1.1060 hc        1 M5P      0.066200
     24 H82        -0.2920    0.9190   -0.0340 hc        1 M5P      0.066200
     25 H91         1.2320   -0.4340    1.5930 hc        1 M5P      0.028200
     26 H92         1.4440   -1.6170    0.2400 hc        1 M5P      0.028200
     27 H10         2.0680    0.4690   -1.2340 hc        1 M5P      0.054700
     28 H111        4.4000    0.6000   -0.1940 h1        1 M5P      0.064200
     29 H112        3.7970   -0.4200    1.1710 h1        1 M5P      0.064200
     30 HS1         5.1940   -1.8210   -0.6590 hs        1 M5P      0.180800
@<TRIPOS>BOND
     1    1    2 ar  
     2    1    6 ar  
     3    1   16 1   
     4    2    3 ar  
     5    2   17 1   
     6    3    4 ar  
     7    3   18 1   
     8    4    5 ar  
     9    4   19 1   
    10    5    6 ar  
    11    5   20 1   
    12    6    7 1   
    13    7    8 1   
    14    7   21 1   
    15    7   22 1   
    16    8    9 1   
    17    8   23 1   
    18    8   24 1   
    19    9   10 1   
    20    9   25 1   
    21    9   26 1   
    22   10   11 1   
    23   10   14 1   
    24   10   27 1   
    25   11   12 1   
    26   11   13 1   
    27   14   15 1   
    28   14   28 1   
    29   14   29 1   
    30   15   30 1   
@<TRIPOS>SUBSTRUCTURE
     1 M5P         1 TEMP              0 ****  ****    0 ROOT
