@<TRIPOS>MOLECULE
M60
   87    88     1     0     0
SMALL
bcc


@<TRIPOS>ATOM
      1 C11         4.0220    0.9730    1.1620 c         1 M60      0.742100
      2 O11         4.5380    2.0250    0.7370 o         1 M60     -0.622000
      3 O21         4.8150    0.1210    1.9300 os        1 M60     -0.435900
      4 C21         6.2110    0.1280    1.6340 c3        1 M60      0.194700
      5 C31         6.5690   -0.8480    0.5610 ca        1 M60     -0.123300
      6 C81         7.9050   -0.9250    0.1430 ca        1 M60     -0.123500
      7 C71         8.2720   -1.8120   -0.8650 ca        1 M60     -0.130500
      8 C61         7.3080   -2.6190   -1.4730 ca        1 M60     -0.149000
      9 C51         5.9790   -2.5470   -1.0620 ca        1 M60     -0.130500
     10 C41         5.6130   -1.6730   -0.0350 ca        1 M60     -0.123500
     11 N1          2.7210    0.5470    1.0800 n         1 M60     -0.503900
     12 CA2         1.7940    1.2150    0.2010 c3        1 M60      0.052700
     13 C20         0.7000    1.9780    1.0010 c         1 M60      0.641100
     14 O2          0.3880    1.7080    2.1730 o         1 M60     -0.593100
     15 CB2         1.0560    0.2460   -0.7430 c3        1 M60     -0.084400
     16 CG2         1.9890   -0.5220   -1.6500 c3        1 M60     -0.197400
     17 CD2         2.4010   -1.8850   -1.0900 c         1 M60      0.898600
     18 OZ1         2.2810   -2.1130    0.1570 o         1 M60     -0.854300
     19 OZ2         2.8630   -2.7520   -1.8850 o         1 M60     -0.854300
     20 N3          0.0980    3.0260    0.3170 n         1 M60     -0.557900
     21 CA3        -1.1020    3.6760    0.7900 c3        1 M60      0.036700
     22 C30        -2.3290    3.1890   -0.0320 c         1 M60      0.583100
     23 O3         -2.2250    3.0360   -1.2650 o         1 M60     -0.611100
     24 CB3        -1.0240    5.2160    0.6570 c3        1 M60     -0.069700
     25 CZ1        -2.2990    5.8510    1.1680 c3        1 M60     -0.097100
     26 CZ2         0.1690    5.7580    1.4160 c3        1 M60     -0.097100
     27 N4         -3.4650    2.7910    0.7250 n         1 M60     -0.355500
     28 N5         -4.6390    2.4610    0.1020 n         1 M60     -0.326400
     29 O6         -5.6430    0.9130   -1.2820 o         1 M60     -0.614100
     30 O7         -5.0810    4.9440    1.4760 o         1 M60     -0.839300
     31 O8         -6.7550    5.4390    0.0890 o         1 M60     -0.839300
     32 O9         -5.8130   -1.5260    0.6510 oh        1 M60     -0.576800
     33 C3         -3.9900    0.0300    0.2370 c3        1 M60     -0.170400
     34 C12        -5.4600    3.5250   -0.4890 c3        1 M60     -0.066000
     35 C1         -3.6540   -2.4830    0.2510 c         1 M60      0.616100
     36 C16        -4.7980    1.1510   -0.3970 c         1 M60      0.673100
     37 C17        -5.7850    4.7180    0.4480 c         1 M60      0.912600
     38 C2         -4.6140   -1.3270   -0.0730 c3        1 M60      0.081100
     39 C44         0.0880   -4.9460    0.9350 ca        1 M60     -0.070300
     40 C34        -0.5790   -6.0190    1.5400 ca        1 M60     -0.118500
     41 C23         0.0750   -7.2340    1.7370 ca        1 M60     -0.150000
     42 C13         1.4010   -7.3860    1.3330 ca        1 M60     -0.153000
     43 C64         2.0700   -6.3190    0.7350 ca        1 M60     -0.150000
     44 C54         1.4230   -5.0990    0.5350 ca        1 M60     -0.118500
     45 C77        -0.6100   -3.6470    0.7310 c3        1 M60     -0.080100
     46 C14        -1.6670   -3.7960   -0.3700 c3        1 M60      0.093000
     47 H21         6.5520    1.1620    1.3560 h1        1 M60      0.062700
     48 H21A        6.6770   -0.1800    2.6110 h1        1 M60      0.062700
     49 H81         8.6600   -0.2770    0.6100 ha        1 M60      0.151500
     50 H71         9.3200   -1.8690   -1.1870 ha        1 M60      0.145500
     51 H61         7.5990   -3.3070   -2.2800 ha        1 M60      0.114000
     52 H51         5.1860   -3.1490   -1.5440 ha        1 M60      0.145500
     53 H41         4.5520   -1.6430    0.2880 ha        1 M60      0.151500
     54 HN1         2.5210   -0.4190    1.2940 hn        1 M60      0.384500
     55 HA2         2.3710    1.9690   -0.4190 h1        1 M60      0.079700
     56 HB2         0.4580   -0.4810   -0.1290 hc        1 M60      0.054700
     57 HB2A        0.3430    0.8510   -1.3620 hc        1 M60      0.054700
     58 HG2         1.4870   -0.6960   -2.6360 hc        1 M60      0.042200
     59 HG2A        2.9220    0.0640   -1.8500 hc        1 M60      0.042200
     60 HN3         0.2500    3.0930   -0.6640 hn        1 M60      0.310500
     61 HA3        -1.2340    3.4160    1.8830 h1        1 M60      0.106700
     62 HB3        -0.9070    5.4700   -0.4350 hc        1 M60      0.049700
     63 HZ1        -2.5570    5.4830    2.1910 hc        1 M60      0.042867
     64 HZ1A       -2.1820    6.9600    1.2120 hc        1 M60      0.042867
     65 HZ1B       -3.1700    5.6200    0.5020 hc        1 M60      0.042867
     66 HZ2         1.1280    5.4170    0.9600 hc        1 M60      0.042867
     67 HZ2A        0.1530    6.8750    1.4010 hc        1 M60      0.042867
     68 HZ2B        0.1410    5.4180    2.4790 hc        1 M60      0.042867
     69 HN4        -3.6830    3.4600    1.4730 hn        1 M60      0.358500
     70 HO9        -5.5730   -1.7160    1.5690 ho        1 M60      0.412000
     71 H10        -2.9460    0.0840   -0.1700 hc        1 M60      0.080700
     72 H10A       -3.9400    0.1700    1.3490 hc        1 M60      0.080700
     73 H12        -4.9530    3.9350   -1.4060 h1        1 M60      0.058200
     74 H12A       -6.4340    3.0580   -0.7990 h1        1 M60      0.058200
     75 H94        -4.9350   -1.3720   -1.1550 h1        1 M60      0.113700
     76 H34        -1.6230   -5.8950    1.8630 ha        1 M60      0.173500
     77 H23        -0.4550   -8.0700    2.2130 ha        1 M60      0.115500
     78 H13         1.9160   -8.3430    1.4880 ha        1 M60      0.104000
     79 H64         3.1170   -6.4310    0.4180 ha        1 M60      0.115500
     80 H54         1.9610   -4.2410    0.0710 ha        1 M60      0.173500
     81 H77         0.1400   -2.8520    0.4530 hc        1 M60      0.082200
     82 H77A       -1.1050   -3.3360    1.6890 hc        1 M60      0.082200
     83 H14        -2.3020   -4.6990   -0.1320 h1        1 M60      0.055200
     84 H14A       -1.1430   -3.9730   -1.3520 h1        1 M60      0.055200
     85 HN6        -2.2170   -1.9100   -1.0860 hn        1 M60      0.313500
     86 O5         -3.9490   -3.2690    1.1780 o         1 M60     -0.632100
     87 N6         -2.5540   -2.6760   -0.5520 n         1 M60     -0.550900
@<TRIPOS>BOND
     1    1    2 2   
     2    1    3 1   
     3    1   11 1   
     4    3    4 1   
     5    4    5 1   
     6    4   47 1   
     7    4   48 1   
     8    5    6 ar  
     9    5   10 ar  
    10    6    7 ar  
    11    6   49 1   
    12    7    8 ar  
    13    7   50 1   
    14    8    9 ar  
    15    8   51 1   
    16    9   10 ar  
    17    9   52 1   
    18   10   53 1   
    19   11   12 1   
    20   11   54 1   
    21   12   13 1   
    22   12   15 1   
    23   12   55 1   
    24   13   14 2   
    25   13   20 1   
    26   15   16 1   
    27   15   56 1   
    28   15   57 1   
    29   16   17 1   
    30   16   58 1   
    31   16   59 1   
    32   17   18 1   
    33   17   19 1   
    34   20   21 1   
    35   20   60 1   
    36   21   22 1   
    37   21   24 1   
    38   21   61 1   
    39   22   23 2   
    40   22   27 1   
    41   24   25 1   
    42   24   26 1   
    43   24   62 1   
    44   25   63 1   
    45   25   64 1   
    46   25   65 1   
    47   26   66 1   
    48   26   67 1   
    49   26   68 1   
    50   27   28 1   
    51   27   69 1   
    52   28   34 1   
    53   28   36 1   
    54   29   36 2   
    55   30   37 1   
    56   31   37 1   
    57   32   38 1   
    58   32   70 1   
    59   33   36 1   
    60   33   38 1   
    61   33   71 1   
    62   33   72 1   
    63   34   37 1   
    64   34   73 1   
    65   34   74 1   
    66   35   38 1   
    67   35   86 2   
    68   35   87 1   
    69   38   75 1   
    70   39   40 ar  
    71   39   44 ar  
    72   39   45 1   
    73   40   41 ar  
    74   40   76 1   
    75   41   42 ar  
    76   41   77 1   
    77   42   43 ar  
    78   42   78 1   
    79   43   44 ar  
    80   43   79 1   
    81   44   80 1   
    82   45   46 1   
    83   45   81 1   
    84   45   82 1   
    85   46   83 1   
    86   46   84 1   
    87   46   87 1   
    88   85   87 1   
@<TRIPOS>SUBSTRUCTURE
     1 M60         1 TEMP              0 ****  ****    0 ROOT
