@<TRIPOS>MOLECULE
M61
   73    78     1     0     0
SMALL
bcc


@<TRIPOS>ATOM
      1 C           0.4250   -0.2680   -0.0640 ca        1 M61     -0.060300
      2 N           2.6510   -0.6080    0.8670 nb        1 M61     -0.644000
      3 O          -0.7400    0.3230    4.0230 o         1 M61     -0.524100
      4 S          -1.8990   -4.6120    7.8710 s6        1 M61      1.502800
      5 C1          1.8330   -0.4500   -0.1730 ca        1 M61      0.419200
      6 C2          2.1190   -0.6290    2.1260 ca        1 M61      0.455100
      7 C3          0.7300   -0.4840    2.3350 ca        1 M61     -0.249900
      8 C4         -0.1120   -0.2800    1.2270 ca        1 M61     -0.074000
      9 C5          3.0720   -0.7470    3.2290 cc        1 M61     -0.150800
     10 C6          2.8870   -1.3760    4.3990 cd        1 M61     -0.152200
     11 C7          1.7060   -2.0790    4.8530 ca        1 M61      0.038200
     12 C8          0.4000   -1.6830    4.5330 ca        1 M61     -0.139600
     13 C9          0.0950   -0.5170    3.6630 c         1 M61      0.606300
     14 C10         1.8830   -3.1940    5.7000 ca        1 M61     -0.110000
     15 C11         0.8040   -3.8990    6.2060 ca        1 M61     -0.108000
     16 C12        -0.5110   -3.4820    5.8980 ca        1 M61      0.040600
     17 C13        -0.7000   -2.3710    5.0610 ca        1 M61     -0.086000
     18 C14        -0.3890   -0.0760   -1.2220 cc        1 M61     -0.251300
     19 C15        -3.8170   -3.4300    9.5300 c3        1 M61      0.075100
     20 N16        -2.7760   -3.0040    8.5770 n4        1 M61     -0.607300
     21 C17        -1.8340   -2.0500    9.2190 c3        1 M61      0.101800
     22 O18        -0.7840   -4.7040    8.6890 o         1 M61     -0.560300
     23 O19        -2.9340   -5.5330    7.9730 o         1 M61     -0.560300
     24 N20        -1.6400   -4.1950    6.3860 nh        1 M61     -0.787500
     25 C21        -1.3670   -0.9260    8.2810 c3        1 M61      0.079100
     26 C22        -0.5080    0.0720    9.0660 c3        1 M61      0.106400
     27 O23        -0.2140    1.1940    8.2520 os        1 M61     -0.388600
     28 C24        -1.3930    1.8480    7.7830 c3        1 M61      0.088400
     29 C25        -2.2700    0.8750    7.0090 c3        1 M61      0.089400
     30 O26        -2.5490   -0.2990    7.7810 os        1 M61     -0.455600
     31 C27        -0.0000   -0.0970   -2.5810 cd        1 M61     -0.102300
     32 N28        -1.1500    0.1440   -3.3300 na        1 M61      0.107400
     33 N29        -2.2310    0.3180   -2.5490 nd        1 M61     -0.496800
     34 C30        -1.8150    0.1930   -1.2660 cc        1 M61      0.317200
     35 C31        -1.1850    0.2130   -4.7960 c3        1 M61      0.058000
     36 C32        -0.7670   -1.1180   -5.4400 c3        1 M61     -0.093400
     37 C33        -0.8340   -0.9970   -6.9620 c3        1 M61      0.163800
     38 N34        -0.0510    0.1100   -7.4730 n3        1 M61     -0.826200
     39 C35        -0.3810    1.3810   -6.8620 c3        1 M61      0.163800
     40 C36        -0.2980    1.3450   -5.3360 c3        1 M61     -0.093400
     41 H1          2.3190   -0.4560   -1.1670 h4        1 M61      0.035100
     42 H4         -1.1900   -0.1220    1.3860 ha        1 M61      0.153000
     43 H5          4.0630   -0.2870    3.0330 ha        1 M61      0.167000
     44 H6          3.7310   -1.4030    5.1170 ha        1 M61      0.151000
     45 H10         2.9070   -3.5170    5.9540 ha        1 M61      0.167000
     46 H11         0.9860   -4.7710    6.8570 ha        1 M61      0.160000
     47 H13        -1.7130   -2.0190    4.7990 ha        1 M61      0.155000
     48 H15        -4.5220   -4.1460    9.0220 hx        1 M61      0.103367
     49 H15A       -3.3340   -3.9390   10.4070 hx        1 M61      0.103367
     50 H15B       -4.4070   -2.5490    9.9020 hx        1 M61      0.103367
     51 H17        -2.3380   -1.5710   10.1090 hx        1 M61      0.112200
     52 H17A       -0.9340   -2.6190    9.5910 hx        1 M61      0.112200
     53 HN20       -2.2780   -4.4280    5.6450 hn        1 M61      0.501800
     54 H21        -0.7800   -1.3340    7.4090 h1        1 M61      0.066700
     55 H22        -1.0420    0.4000    9.9970 h1        1 M61      0.070700
     56 H22A        0.4920   -0.3670    9.3190 h1        1 M61      0.070700
     57 H24        -1.0070    2.6610    7.1120 h1        1 M61      0.078200
     58 H24A       -1.9490    2.2890    8.6510 h1        1 M61      0.078200
     59 H25        -1.7780    0.5710    6.0460 h1        1 M61      0.085200
     60 H25A       -3.2860    1.3100    6.8130 h1        1 M61      0.085200
     61 H27         0.9730   -0.2610   -3.0440 h4        1 M61      0.185000
     62 H30        -2.5030    0.2980   -0.4270 h4        1 M61      0.043100
     63 H31        -2.2560    0.4290   -5.0980 h1        1 M61      0.093700
     64 H32         0.2730   -1.3900   -5.1240 hc        1 M61      0.060450
     65 H32A       -1.4560   -1.9400   -5.1170 hc        1 M61      0.060450
     66 H33        -0.4180   -1.9410   -7.4150 h1        1 M61      0.039200
     67 H33A       -1.9220   -0.9240   -7.2610 h1        1 M61      0.039200
     68 HN34       -0.1390    0.1690   -8.4700 hn        1 M61      0.376800
     69 H35         0.3600    2.1400   -7.2420 h1        1 M61      0.039200
     70 H35A       -1.4140    1.7380   -7.1490 h1        1 M61      0.039200
     71 H36        -0.6430    2.3340   -4.9360 hc        1 M61      0.060450
     72 H36A        0.7640    1.1900   -5.0150 hc        1 M61      0.060450
     73 H161       -3.2440   -2.4920    7.8240 hn        1 M61      0.451800
@<TRIPOS>BOND
     1    1    5 ar  
     2    1    8 ar  
     3    1   18 1   
     4    2    5 ar  
     5    2    6 ar  
     6    3   13 2   
     7    4   20 1   
     8    4   22 2   
     9    4   23 2   
    10    4   24 1   
    11    5   41 1   
    12    6    7 ar  
    13    6    9 1   
    14    7    8 ar  
    15    7   13 1   
    16    8   42 1   
    17    9   10 2   
    18    9   43 1   
    19   10   11 1   
    20   10   44 1   
    21   11   12 ar  
    22   11   14 ar  
    23   12   13 1   
    24   12   17 ar  
    25   14   15 ar  
    26   14   45 1   
    27   15   16 ar  
    28   15   46 1   
    29   16   17 ar  
    30   16   24 1   
    31   17   47 1   
    32   18   31 2   
    33   18   34 1   
    34   19   20 1   
    35   19   48 1   
    36   19   49 1   
    37   19   50 1   
    38   20   21 1   
    39   20   73 1   
    40   21   25 1   
    41   21   51 1   
    42   21   52 1   
    43   24   53 1   
    44   25   26 1   
    45   25   30 1   
    46   25   54 1   
    47   26   27 1   
    48   26   55 1   
    49   26   56 1   
    50   27   28 1   
    51   28   29 1   
    52   28   57 1   
    53   28   58 1   
    54   29   30 1   
    55   29   59 1   
    56   29   60 1   
    57   31   32 1   
    58   31   61 1   
    59   32   33 1   
    60   32   35 1   
    61   33   34 2   
    62   34   62 1   
    63   35   36 1   
    64   35   40 1   
    65   35   63 1   
    66   36   37 1   
    67   36   64 1   
    68   36   65 1   
    69   37   38 1   
    70   37   66 1   
    71   37   67 1   
    72   38   39 1   
    73   38   68 1   
    74   39   40 1   
    75   39   69 1   
    76   39   70 1   
    77   40   71 1   
    78   40   72 1   
@<TRIPOS>SUBSTRUCTURE
     1 M61         1 TEMP              0 ****  ****    0 ROOT
