@<TRIPOS>MOLECULE
M61
   72    66     1     0     0
SMALL
bcc


@<TRIPOS>ATOM
      1 C           1.5130    1.7770   -1.9050 c1        1 M61     -0.031000
      2 N           3.0860    3.0680   -0.6130 n1        1 M61     -0.134000
      3 O           0.0790    1.8470    2.0020 o         1 M61     -0.271000
      4 S          -1.0990   -2.9540    5.6200 ss        1 M61      2.800000
      5 C1          2.4680    2.7950   -1.8220 c1        1 M61     -0.045000
      6 C2          2.7600    2.3330    0.5200 c1        1 M61      0.042000
      7 C3          1.8150    1.3230    0.4450 c1        1 M61     -0.167000
      8 C4          1.1860    1.0430   -0.7780 c1        1 M61     -0.069000
      9 C5          3.6560    2.1590    1.7540 c2        1 M61     -0.102000
     10 C6          3.0420    2.0200    3.1110 c1        1 M61     -0.111000
     11 C7          2.4830    0.6370    3.5740 c1        1 M61     -0.031000
     12 C8          1.5980    0.1120    2.6260 c2        1 M61     -0.095000
     13 C9          1.0340    1.2110    1.7440 c2        1 M61      0.317000
     14 C10         2.3830    0.2490    4.9080 c1        1 M61     -0.097000
     15 C11         1.4000   -0.6620    5.2950 c1        1 M61     -0.158000
     16 C12         0.5190   -1.1820    4.3460 c1        1 M61      0.080000
     17 C13         0.6190   -0.7950    3.0160 c1        1 M61     -0.140000
     18 C14         0.8520    1.9870   -3.3400 c2        1 M61     -0.156000
     19 C15        -0.6600   -5.6070    5.7560 c3        1 M61     -0.078000
     20 N16        -1.4910   -4.5390    5.2700 n2        1 M61     -0.830000
     21 C17        -2.6590   -4.8460    4.3660 c3        1 M61     -0.043000
     22 O18        -2.1850   -2.0450    5.2510 o         1 M61     -0.919000
     23 O19        -1.0210   -2.7390    7.0330 o         1 M61     -0.919000
     24 N20         0.3380   -2.5280    4.8610 n2        1 M61     -0.823000
     25 C21        -2.2440   -4.6530    2.9260 c3        1 M61     -0.021000
     26 C22        -2.9840   -3.4780    2.3510 c3        1 M61     -0.058000
     27 O23        -4.3850   -3.7450    2.1790 os        1 M61     -0.274000
     28 C24        -4.6360   -4.9740    1.4370 c3        1 M61     -0.058000
     29 C25        -3.8910   -6.1590    2.0160 c3        1 M61     -0.063000
     30 O26        -2.5020   -5.8980    2.1810 os        1 M61     -0.262000
     31 C27         0.4330    3.3030   -3.5810 c1        1 M61     -0.128000
     32 N28         0.6180    3.5750   -4.9180 n2        1 M61     -0.095500
     33 N29         1.1550    2.4210   -5.5160 n2        1 M61     -0.095500
     34 C30         1.2940    1.4520   -4.5350 c1        1 M61     -0.128000
     35 C31        -0.0520    4.7360   -5.6780 c2        1 M61      0.054000
     36 C32        -0.6930    4.2030   -6.8820 c3        1 M61     -0.163000
     37 C33         0.3230    3.7430   -7.9240 c3        1 M61     -0.076000
     38 N34         1.3280    4.7860   -8.2290 n3        1 M61     -0.299000
     39 C35         1.9670    5.3250   -7.0300 c3        1 M61     -0.076000
     40 C36         0.9710    5.7850   -5.9960 c3        1 M61     -0.163000
     41 H1          2.7070    3.3290   -2.6390 ha        1 M61      0.165000
     42 H4          0.5200    0.3320   -0.8340 ha        1 M61      0.148000
     43 H5          4.6330    2.1970    1.6600 ha        1 M61      0.152000
     44 H6          3.0510    2.8180    3.7630 ha        1 M61      0.138000
     45 H10         3.0020    0.6150    5.5740 ha        1 M61      0.144000
     46 H11         1.3290   -0.9350    6.2270 ha        1 M61      0.175000
     47 H13         0.0370   -1.1400    2.3920 ha        1 M61      0.153000
     48 H15         0.1310   -5.2490    6.1220 h1        1 M61      0.089333
     49 H15A       -1.1370   -6.1050    6.4400 h1        1 M61      0.089333
     50 H15B       -0.4500   -6.1600    5.0710 h1        1 M61      0.089333
     51 H17        -3.4130   -4.2330    4.5790 h1        1 M61      0.108500
     52 H17A       -2.9620   -5.8390    4.5120 h1        1 M61      0.108500
     53 HN20        0.9970   -3.1230    4.7920 hn        1 M61      0.257000
     54 H21        -1.2560   -4.4570    2.8970 h1        1 M61      0.127000
     55 H22        -2.6120   -3.2640    1.5210 h1        1 M61      0.102000
     56 H22A       -2.8790   -2.6980    2.9650 h1        1 M61      0.102000
     57 H24        -4.3370   -4.8380    0.4570 h1        1 M61      0.099500
     58 H24A       -5.6080   -5.1660    1.4510 h1        1 M61      0.099500
     59 H25        -3.9960   -6.9000    1.4410 h1        1 M61      0.101000
     60 H25A       -4.2800   -6.3790    2.8930 h1        1 M61      0.101000
     61 H27         0.0640    3.9360   -2.9020 DU        1 M61      0.181000
     62 H30         1.6550    0.5170   -4.6700 DU        1 M61      0.181000
     63 H31        -0.7540    5.1420   -5.0880 ha        1 M61      0.098000
     64 H32        -1.2680    3.4310   -6.6260 hc        1 M61      0.098750
     65 H32A       -1.2510    4.8920   -7.2720 hc        1 M61      0.098750
     66 H33        -0.1620    3.5000   -8.7710 h1        1 M61      0.080000
     67 H33A        0.7910    2.9450   -7.5850 h1        1 M61      0.080000
     68 HN34        1.9900    4.4310   -8.8090 hn        1 M61      0.161000
     69 H35         2.5240    6.0800   -7.2860 h1        1 M61      0.080000
     70 H35A        2.5310    4.6350   -6.6380 h1        1 M61      0.080000
     71 H36         0.5170    6.5720   -6.3260 hc        1 M61      0.098750
     72 H36A        1.4660    6.0250   -5.1530 hc        1 M61      0.098750
@<TRIPOS>BOND
     1    1    8 1   
     2    1   18 1   
     3    2    5 1   
     4    3   13 1   
     5    4   22 1   
     6    4   23 1   
     7    5   41 1   
     8    6    7 1   
     9    6    9 1   
    10    7   13 1   
    11    8   42 1   
    12    9   10 1   
    13    9   43 1   
    14   10   44 1   
    15   11   12 1   
    16   11   14 1   
    17   12   13 1   
    18   12   17 1   
    19   14   45 1   
    20   15   16 1   
    21   15   46 1   
    22   16   24 1   
    23   17   47 1   
    24   18   31 1   
    25   18   34 1   
    26   19   20 1   
    27   19   48 1   
    28   19   49 1   
    29   19   50 1   
    30   20   21 1   
    31   21   25 1   
    32   21   51 1   
    33   21   52 1   
    34   24   53 1   
    35   25   26 1   
    36   25   30 1   
    37   25   54 1   
    38   26   27 1   
    39   26   55 1   
    40   26   56 1   
    41   27   28 1   
    42   28   29 1   
    43   28   57 1   
    44   28   58 1   
    45   29   30 1   
    46   29   59 1   
    47   29   60 1   
    48   31   32 1   
    49   32   33 1   
    50   33   34 1   
    51   35   36 1   
    52   35   40 1   
    53   35   63 1   
    54   36   37 1   
    55   36   64 1   
    56   36   65 1   
    57   37   38 1   
    58   37   66 1   
    59   37   67 1   
    60   38   39 1   
    61   38   68 1   
    62   39   40 1   
    63   39   69 1   
    64   39   70 1   
    65   40   71 1   
    66   40   72 1   
@<TRIPOS>SUBSTRUCTURE
     1 M61         1 TEMP              0 ****  ****    0 ROOT
