@<TRIPOS>MOLECULE
M61
   74    79     1     0     0
SMALL
bcc


@<TRIPOS>ATOM
      1 C           0.0180   -0.5970   -0.3350 ca        1 M61      0.001700
      2 N           2.1820   -0.3460    0.7580 nb        1 M61     -0.618000
      3 O          -1.6020   -0.6970    3.6020 o         1 M61     -0.530100
      4 S          -2.5380   -4.1030    7.5920 s6        1 M61      1.332800
      5 C1          1.4290   -0.3600   -0.3350 ca        1 M61      0.417200
      6 C2          1.6030   -0.6070    1.9750 ca        1 M61      0.405100
      7 C3          0.2180   -0.8790    2.0750 ca        1 M61     -0.219900
      8 C4         -0.5710   -0.8470    0.9130 ca        1 M61     -0.096000
      9 C5          2.5010   -0.5190    3.1130 cc        1 M61     -0.047800
     10 C6          2.4220   -1.1400    4.3130 cd        1 M61     -0.218200
     11 C7          1.4330   -2.0500    4.7900 ca        1 M61      0.122200
     12 C8          0.1080   -2.1170    4.3080 ca        1 M61     -0.163600
     13 C9         -0.4810   -1.1550    3.3330 c         1 M61      0.603300
     14 C10         1.7990   -2.9360    5.8450 ca        1 M61     -0.123000
     15 C11         0.9120   -3.8400    6.3840 ca        1 M61     -0.083000
     16 C12        -0.4190   -3.8850    5.8920 ca        1 M61     -0.224400
     17 C13        -0.7840   -3.0660    4.8080 ca        1 M61     -0.063000
     18 C14        -0.7370   -0.5670   -1.5360 cc        1 M61     -0.290300
     19 C15        -2.9430   -1.5220    6.8400 c3        1 M61      0.057100
     20 N16        -2.0690   -2.3720    7.7020 n4        1 M61     -0.641300
     21 C17        -2.1190   -1.8800    9.1270 c3        1 M61      0.090800
     22 O18        -2.2190   -4.7040    8.7930 o         1 M61     -0.475300
     23 O19        -3.7610   -4.1750    6.9590 o         1 M61     -0.475300
     24 N20        -1.3680   -4.8490    6.4130 n4        1 M61     -0.566300
     25 C21        -1.0450   -0.8270    9.4480 c3        1 M61      0.087100
     26 C22        -1.2880   -0.2820   10.8670 c3        1 M61      0.105400
     27 O23        -0.4040    0.7970   11.1000 os        1 M61     -0.370600
     28 C24        -0.5950    1.8630   10.1710 c3        1 M61      0.082400
     29 C25        -0.3700    1.3620    8.7530 c3        1 M61      0.101400
     30 O26        -1.1650    0.2000    8.4690 os        1 M61     -0.465600
     31 C27        -0.2790   -0.3340   -2.8610 cd        1 M61     -0.071300
     32 N28        -1.3900   -0.3990   -3.6860 na        1 M61      0.127400
     33 N29        -2.5180   -0.6530   -2.9930 nd        1 M61     -0.480800
     34 C30        -2.1700   -0.7610   -1.6920 cc        1 M61      0.332200
     35 C31        -1.3580   -0.2060   -5.1470 c3        1 M61      0.050000
     36 C32        -0.4920   -1.2700   -5.8370 c3        1 M61     -0.093400
     37 C33        -0.4870   -1.0260   -7.3470 c3        1 M61      0.163800
     38 N34        -0.0600    0.3140   -7.6920 n3        1 M61     -0.828200
     39 C35        -0.8380    1.3480   -7.0420 c3        1 M61      0.163800
     40 C36        -0.8590    1.1980   -5.5200 c3        1 M61     -0.093400
     41 H1          1.9600   -0.1590   -1.2860 h4        1 M61      0.052100
     42 H4         -1.6590   -1.0070    0.9890 ha        1 M61      0.163000
     43 H5          3.4050    0.1110    2.9380 ha        1 M61      0.186000
     44 H6          3.2680   -0.9730    5.0130 ha        1 M61      0.165000
     45 H10         2.8390   -2.9070    6.2210 ha        1 M61      0.191000
     46 H11         1.2510   -4.5310    7.1770 ha        1 M61      0.168000
     47 H13        -1.7830   -3.1410    4.3370 ha        1 M61      0.168000
     48 H15        -4.0260   -1.7620    7.0290 hx        1 M61      0.137700
     49 H15A       -2.7640   -0.4300    7.0810 hx        1 M61      0.137700
     50 H15B       -2.6820   -1.6800    5.7550 hx        1 M61      0.137700
     51 H17        -1.9560   -2.7470    9.8340 hx        1 M61      0.132200
     52 H17A       -3.1410   -1.4320    9.3060 hx        1 M61      0.132200
     53 HN20       -1.8750   -5.2690    5.6160 hn        1 M61      0.498800
     54 H21        -0.0120   -1.2720    9.3830 h1        1 M61      0.070700
     55 H22        -1.0220   -1.0450   11.6460 h1        1 M61      0.082200
     56 H22A       -2.3530    0.0510   10.9800 h1        1 M61      0.082200
     57 H24         0.1810    2.6220   10.4610 h1        1 M61      0.093200
     58 H24A       -1.6230    2.2950   10.2910 h1        1 M61      0.093200
     59 H25         0.7080    1.1010    8.5870 h1        1 M61      0.080700
     60 H25A       -0.7190    2.1100    7.9920 h1        1 M61      0.080700
     61 H27         0.7250   -0.1350   -3.2440 h4        1 M61      0.193000
     62 H30        -2.9080   -0.9600   -0.9140 h4        1 M61      0.046100
     63 H31        -2.4220   -0.3150   -5.5220 h1        1 M61      0.102700
     64 H32         0.5560   -1.2340   -5.4430 hc        1 M61      0.060450
     65 H32A       -0.9040   -2.2940   -5.6440 hc        1 M61      0.060450
     66 H33         0.2380   -1.7460   -7.8230 h1        1 M61      0.045200
     67 H33A       -1.5180   -1.2650   -7.7450 h1        1 M61      0.045200
     68 HN34       -0.0640    0.4410   -8.6870 hn        1 M61      0.385800
     69 H35        -1.9080    1.3740   -7.4060 h1        1 M61      0.045200
     70 H35A       -0.3660    2.3390   -7.2960 h1        1 M61      0.045200
     71 H36        -1.5380    1.9800   -5.0940 hc        1 M61      0.060450
     72 H36A        0.1700    1.3660   -5.1080 hc        1 M61      0.060450
     73 H161       -1.1010   -2.1970    7.3790 hn        1 M61      0.494800
     74 H202       -0.8400   -5.6170    6.8590 hn        1 M61      0.498800
@<TRIPOS>BOND
     1    1    5 ar  
     2    1    8 ar  
     3    1   18 1   
     4    2    5 ar  
     5    2    6 ar  
     6    3   13 2   
     7    4   20 1   
     8    4   22 2   
     9    4   23 2   
    10    4   24 1   
    11    5   41 1   
    12    6    7 ar  
    13    6    9 1   
    14    7    8 ar  
    15    7   13 1   
    16    8   42 1   
    17    9   10 2   
    18    9   43 1   
    19   10   11 1   
    20   10   44 1   
    21   11   12 ar  
    22   11   14 ar  
    23   12   13 1   
    24   12   17 ar  
    25   14   15 ar  
    26   14   45 1   
    27   15   16 ar  
    28   15   46 1   
    29   16   17 ar  
    30   16   24 1   
    31   17   47 1   
    32   18   31 2   
    33   18   34 1   
    34   19   20 1   
    35   19   48 1   
    36   19   49 1   
    37   19   50 1   
    38   20   21 1   
    39   20   73 1   
    40   21   25 1   
    41   21   51 1   
    42   21   52 1   
    43   24   53 1   
    44   24   74 1   
    45   25   26 1   
    46   25   30 1   
    47   25   54 1   
    48   26   27 1   
    49   26   55 1   
    50   26   56 1   
    51   27   28 1   
    52   28   29 1   
    53   28   57 1   
    54   28   58 1   
    55   29   30 1   
    56   29   59 1   
    57   29   60 1   
    58   31   32 1   
    59   31   61 1   
    60   32   33 1   
    61   32   35 1   
    62   33   34 2   
    63   34   62 1   
    64   35   36 1   
    65   35   40 1   
    66   35   63 1   
    67   36   37 1   
    68   36   64 1   
    69   36   65 1   
    70   37   38 1   
    71   37   66 1   
    72   37   67 1   
    73   38   39 1   
    74   38   68 1   
    75   39   40 1   
    76   39   69 1   
    77   39   70 1   
    78   40   71 1   
    79   40   72 1   
@<TRIPOS>SUBSTRUCTURE
     1 M61         1 TEMP              0 ****  ****    0 ROOT
