@<TRIPOS>MOLECULE
M61
   72    77     1     0     0
SMALL
bcc


@<TRIPOS>ATOM
      1 C          -3.3040   -0.8230    0.3400 ca        1 M61     -0.093300
      2 N          -2.4830   -2.0530    2.2760 nb        1 M61     -0.659000
      3 O           0.6780   -1.4800   -1.1660 o         1 M61     -0.521100
      4 S           5.4490    2.4950    0.5250 s6        1 M61      1.562800
      5 C1         -3.4740   -1.4920    1.5820 ca        1 M61      0.414200
      6 C2         -1.2100   -1.9680    1.7860 ca        1 M61      0.479100
      7 C3         -0.9380   -1.3060    0.5660 ca        1 M61     -0.250900
      8 C4         -2.0010   -0.7500   -0.1630 ca        1 M61     -0.062000
      9 C5         -0.1620   -2.6360    2.5590 cc        1 M61     -0.208800
     10 C6          1.1090   -2.2380    2.7080 cd        1 M61     -0.100200
     11 C7          1.7500   -1.0660    2.1470 ca        1 M61     -0.026800
     12 C8          1.4410   -0.5520    0.8810 ca        1 M61     -0.130600
     13 C9          0.4200   -1.1720    0.0040 c         1 M61      0.602300
     14 C10         2.7690   -0.4420    2.8910 ca        1 M61     -0.109000
     15 C11         3.4490    0.6640    2.4070 ca        1 M61     -0.128000
     16 C12         3.1390    1.1840    1.1280 ca        1 M61      0.140600
     17 C13         2.1280    0.5570    0.3760 ca        1 M61     -0.122000
     18 C14        -4.4190   -0.2610   -0.3580 cc        1 M61     -0.222300
     19 C15         5.8340    2.1200   -2.0950 c3        1 M61      0.198100
     20 N16         5.9310    1.6070   -0.7570 n3        1 M61     -0.802500
     21 C17         6.3810    0.2480   -0.6410 c3        1 M61      0.223800
     22 O18         6.0570    1.9860    1.7020 o         1 M61     -0.642300
     23 O19         5.6610    3.8730    0.2520 o         1 M61     -0.642300
     24 N20         3.8210    2.2980    0.6110 nh        1 M61     -0.782500
     25 C21         5.3030   -0.8310   -0.8540 c3        1 M61      0.074100
     26 C22         5.8730   -2.2050   -0.4930 c3        1 M61      0.100400
     27 O23         4.9450   -3.2340   -0.8140 os        1 M61     -0.408600
     28 C24         4.5380   -3.2000   -2.1800 c3        1 M61      0.093400
     29 C25         3.9930   -1.8280   -2.5550 c3        1 M61      0.085400
     30 O26         4.9340   -0.8030   -2.2350 os        1 M61     -0.419600
     31 C27        -5.7410   -0.0860    0.1020 cd        1 M61     -0.121300
     32 N28        -6.4560    0.5030   -0.9430 na        1 M61      0.095400
     33 N29        -5.6820    0.7090   -2.0240 nd        1 M61     -0.503800
     34 C30        -4.4430    0.2620   -1.7130 cc        1 M61      0.314200
     35 C31        -7.8750    0.8580   -0.8820 c3        1 M61      0.065000
     36 C32        -8.1610    1.9020    0.2090 c3        1 M61     -0.132400
     37 C33        -9.6540    2.2390    0.2150 c3        1 M61      0.151800
     38 N34       -10.5470    1.1050    0.3280 n3        1 M61     -0.799200
     39 C35       -10.2350    0.0560   -0.6200 c3        1 M61      0.151800
     40 C36        -8.7670   -0.3750   -0.6620 c3        1 M61     -0.132400
     41 H1         -4.4800   -1.5830    2.0310 h4        1 M61      0.022100
     42 H4         -1.7990   -0.2610   -1.1290 ha        1 M61      0.152000
     43 H5         -0.4960   -3.5480    3.0920 ha        1 M61      0.152000
     44 H6          1.7720   -2.8460    3.3550 ha        1 M61      0.139000
     45 H10         3.0280   -0.8410    3.8860 ha        1 M61      0.145000
     46 H11         4.2480    1.1260    3.0150 ha        1 M61      0.173000
     47 H13         1.8700    0.9250   -0.6320 ha        1 M61      0.149000
     48 H15         6.8480    2.1330   -2.5780 h1        1 M61      0.052367
     49 H15A        5.1540    1.4770   -2.7180 h1        1 M61      0.052367
     50 H15B        5.4390    3.1720   -2.0700 h1        1 M61      0.052367
     51 H17         7.2030    0.0700   -1.3930 h1        1 M61      0.073700
     52 H17A        6.8070    0.0980    0.3950 h1        1 M61      0.073700
     53 HN20        3.2140    2.9720    0.2010 hn        1 M61      0.455800
     54 H21         4.3850   -0.6260   -0.2320 h1        1 M61      0.058700
     55 H22         6.8380   -2.3830   -1.0370 h1        1 M61      0.058700
     56 H22A        6.0240   -2.3010    0.6130 h1        1 M61      0.058700
     57 H24         5.4090   -3.4710   -2.8330 h1        1 M61      0.058700
     58 H24A        3.7400   -3.9830   -2.2500 h1        1 M61      0.058700
     59 H25         3.8560   -1.7380   -3.6640 h1        1 M61      0.069700
     60 H25A        3.0220   -1.6280   -2.0260 h1        1 M61      0.069700
     61 H27        -6.2020   -0.3260    1.0590 h4        1 M61      0.177000
     62 H30        -3.6170    0.3070   -2.4240 h4        1 M61      0.047100
     63 H31        -8.1550    1.3140   -1.8810 h1        1 M61      0.093700
     64 H32        -7.8500    1.5090    1.2110 hc        1 M61      0.057700
     65 H32A       -7.5770    2.8370    0.0110 hc        1 M61      0.057700
     66 H33        -9.8620    2.9440    1.0680 h1        1 M61      0.060200
     67 H33A       -9.9070    2.7740   -0.7440 h1        1 M61      0.060200
     68 HN34      -10.5240    0.7410    1.2640 hn        1 M61      0.354800
     69 H35       -10.8690   -0.8420   -0.3810 h1        1 M61      0.060200
     70 H35A      -10.5320    0.4260   -1.6430 h1        1 M61      0.060200
     71 H36        -8.6260   -1.1070   -1.4980 hc        1 M61      0.057700
     72 H36A       -8.4880   -0.8890    0.2940 hc        1 M61      0.057700
@<TRIPOS>BOND
     1    1    5 ar  
     2    1    8 ar  
     3    1   18 1   
     4    2    5 ar  
     5    2    6 ar  
     6    3   13 2   
     7    4   20 1   
     8    4   22 2   
     9    4   23 2   
    10    4   24 1   
    11    5   41 1   
    12    6    7 ar  
    13    6    9 1   
    14    7    8 ar  
    15    7   13 1   
    16    8   42 1   
    17    9   10 2   
    18    9   43 1   
    19   10   11 1   
    20   10   44 1   
    21   11   12 ar  
    22   11   14 ar  
    23   12   13 1   
    24   12   17 ar  
    25   14   15 ar  
    26   14   45 1   
    27   15   16 ar  
    28   15   46 1   
    29   16   17 ar  
    30   16   24 1   
    31   17   47 1   
    32   18   31 2   
    33   18   34 1   
    34   19   20 1   
    35   19   48 1   
    36   19   49 1   
    37   19   50 1   
    38   20   21 1   
    39   21   25 1   
    40   21   51 1   
    41   21   52 1   
    42   24   53 1   
    43   25   26 1   
    44   25   30 1   
    45   25   54 1   
    46   26   27 1   
    47   26   55 1   
    48   26   56 1   
    49   27   28 1   
    50   28   29 1   
    51   28   57 1   
    52   28   58 1   
    53   29   30 1   
    54   29   59 1   
    55   29   60 1   
    56   31   32 1   
    57   31   61 1   
    58   32   33 1   
    59   32   35 1   
    60   33   34 2   
    61   34   62 1   
    62   35   36 1   
    63   35   40 1   
    64   35   63 1   
    65   36   37 1   
    66   36   64 1   
    67   36   65 1   
    68   37   38 1   
    69   37   66 1   
    70   37   67 1   
    71   38   39 1   
    72   38   68 1   
    73   39   40 1   
    74   39   69 1   
    75   39   70 1   
    76   40   71 1   
    77   40   72 1   
@<TRIPOS>SUBSTRUCTURE
     1 M61         1 TEMP              0 ****  ****    0 ROOT
