@<TRIPOS>MOLECULE
M61
   73    78     1     0     0
SMALL
bcc


@<TRIPOS>ATOM
      1 C           0.4220   -0.2830   -0.0690 ca        1 M61     -0.060300
      2 N           2.6490   -0.6340    0.8580 nb        1 M61     -0.644000
      3 O          -0.7280    0.3290    4.0190 o         1 M61     -0.524100
      4 S          -1.9090   -4.5850    7.8860 s6        1 M61      1.502800
      5 C1          1.8290   -0.4730   -0.1800 ca        1 M61      0.419200
      6 C2          2.1200   -0.6470    2.1180 ca        1 M61      0.455100
      7 C3          0.7320   -0.4930    2.3300 ca        1 M61     -0.249900
      8 C4         -0.1110   -0.2870    1.2240 ca        1 M61     -0.074000
      9 C5          3.0750   -0.7680    3.2190 cc        1 M61     -0.150800
     10 C6          2.8890   -1.3920    4.3910 cd        1 M61     -0.152200
     11 C7          1.7040   -2.0860    4.8510 ca        1 M61      0.038200
     12 C8          0.4000   -1.6820    4.5330 ca        1 M61     -0.139600
     13 C9          0.1010   -0.5170    3.6600 c         1 M61      0.606300
     14 C10         1.8760   -3.1990    5.7000 ca        1 M61     -0.110000
     15 C11         0.7940   -3.8960    6.2120 ca        1 M61     -0.108000
     16 C12        -0.5190   -3.4710    5.9060 ca        1 M61      0.039600
     17 C13        -0.7040   -2.3620    5.0660 ca        1 M61     -0.086000
     18 C14        -0.3930   -0.0890   -1.2250 cc        1 M61     -0.251300
     19 C15        -3.8140   -3.3850    9.5460 c3        1 M61      0.075100
     20 N16        -2.7730   -2.9690    8.5890 nx        1 M61     -0.607300
     21 C17        -1.8230   -2.0190    9.2250 c3        1 M61      0.101800
     22 O18        -0.7930   -4.6820    8.7020 o         1 M61     -0.560300
     23 O19        -2.9500   -5.5000    7.9950 o         1 M61     -0.560300
     24 N20        -1.6520   -4.1760    6.3990 nu        1 M61     -0.787500
     25 C21        -1.3510   -0.9020    8.2830 c3        1 M61      0.079100
     26 C22        -0.4830    0.0930    9.0620 c3        1 M61      0.106400
     27 O23        -0.1840    1.2110    8.2440 os        1 M61     -0.388600
     28 C24        -1.3600    1.8710    7.7770 c3        1 M61      0.088400
     29 C25        -2.2470    0.9020    7.0080 c3        1 M61      0.089400
     30 O26        -2.5310   -0.2680    7.7850 os        1 M61     -0.455600
     31 C27        -0.0080   -0.1150   -2.5850 cd        1 M61     -0.102300
     32 N28        -1.1570    0.1290   -3.3320 na        1 M61      0.107400
     33 N29        -2.2360    0.3090   -2.5490 nd        1 M61     -0.496800
     34 C30        -1.8180    0.1850   -1.2670 cc        1 M61      0.317200
     35 C31        -1.1960    0.1950   -4.7980 c3        1 M61      0.058000
     36 C32        -0.7840   -1.1380   -5.4400 c3        1 M61     -0.093400
     37 C33        -0.8540   -1.0200   -6.9630 c3        1 M61      0.163800
     38 N34        -0.0680    0.0830   -7.4780 n7        1 M61     -0.826200
     39 C35        -0.3920    1.3570   -6.8680 c3        1 M61      0.163800
     40 C36        -0.3060    1.3230   -5.3420 c3        1 M61     -0.093400
     41 H1          2.3130   -0.4850   -1.1760 h4        1 M61      0.035100
     42 H4         -1.1880   -0.1220    1.3850 ha        1 M61      0.153000
     43 H5          4.0680   -0.3140    3.0190 ha        1 M61      0.167000
     44 H6          3.7340   -1.4220    5.1070 ha        1 M61      0.151000
     45 H10         2.8980   -3.5280    5.9530 ha        1 M61      0.167000
     46 H11         0.9720   -4.7680    6.8650 ha        1 M61      0.160000
     47 H13        -1.7150   -2.0040    4.8060 ha        1 M61      0.155000
     48 H15        -4.5260   -4.0980    9.0430 hx        1 M61      0.103367
     49 H15A       -3.3320   -3.8930   10.4240 hx        1 M61      0.103367
     50 H15B       -4.3970   -2.4980    9.9170 hx        1 M61      0.103367
     51 H17        -0.9250   -2.5940    9.5970 hx        1 M61      0.112200
     52 H17A       -2.3210   -1.5340   10.1160 hx        1 M61      0.112200
     53 HN20       -2.2930   -4.4070    5.6610 hn        1 M61      0.501800
     54 H21        -0.7700   -1.3160    7.4100 h1        1 M61      0.066700
     55 H22        -1.0120    0.4270    9.9940 h1        1 M61      0.070700
     56 H22A        0.5150   -0.3520    9.3130 h1        1 M61      0.070700
     57 H24        -0.9710    2.6790    7.1020 h1        1 M61      0.078200
     58 H24A       -1.9100    2.3180    8.6450 h1        1 M61      0.078200
     59 H25        -1.7600    0.5920    6.0440 h1        1 M61      0.085200
     60 H25A       -3.2600    1.3440    6.8140 h1        1 M61      0.085200
     61 H27         0.9640   -0.2840   -3.0500 h4        1 M61      0.185000
     62 H30        -2.5030    0.2950   -0.4260 h4        1 M61      0.043100
     63 H31        -2.2660    0.4150   -5.0990 h1        1 M61      0.093700
     64 H32         0.2560   -1.4130   -5.1270 hc        1 M61      0.060450
     65 H32A       -1.4750   -1.9580   -5.1140 hc        1 M61      0.060450
     66 H33        -1.9420   -0.9440   -7.2590 h1        1 M61      0.039200
     67 H33A       -0.4430   -1.9670   -7.4150 h1        1 M61      0.039200
     68 HN34       -0.1580    0.1400   -8.4750 hn        1 M61      0.376800
     69 H35        -1.4250    1.7170   -7.1540 h1        1 M61      0.039200
     70 H35A        0.3510    2.1120   -7.2520 h1        1 M61      0.039200
     71 H36         0.7560    1.1650   -5.0230 hc        1 M61      0.060450
     72 H36A       -0.6460    2.3140   -4.9440 hc        1 M61      0.060450
     73 H161       -3.2400   -2.4570    7.8350 hn        1 M61      0.451800
@<TRIPOS>BOND
     1    1    5 ar  
     2    1    8 ar  
     3    1   18 1   
     4    2    5 ar  
     5    2    6 ar  
     6    3   13 2   
     7    4   20 1   
     8    4   22 2   
     9    4   23 2   
    10    4   24 1   
    11    5   41 1   
    12    6    7 ar  
    13    6    9 1   
    14    7    8 ar  
    15    7   13 1   
    16    8   42 1   
    17    9   10 2   
    18    9   43 1   
    19   10   11 1   
    20   10   44 1   
    21   11   12 ar  
    22   11   14 ar  
    23   12   13 1   
    24   12   17 ar  
    25   14   15 ar  
    26   14   45 1   
    27   15   16 ar  
    28   15   46 1   
    29   16   17 ar  
    30   16   24 1   
    31   17   47 1   
    32   18   31 2   
    33   18   34 1   
    34   19   20 1   
    35   19   48 1   
    36   19   49 1   
    37   19   50 1   
    38   20   21 1   
    39   20   73 1   
    40   21   25 1   
    41   21   51 1   
    42   21   52 1   
    43   24   53 1   
    44   25   26 1   
    45   25   30 1   
    46   25   54 1   
    47   26   27 1   
    48   26   55 1   
    49   26   56 1   
    50   27   28 1   
    51   28   29 1   
    52   28   57 1   
    53   28   58 1   
    54   29   30 1   
    55   29   59 1   
    56   29   60 1   
    57   31   32 1   
    58   31   61 1   
    59   32   33 1   
    60   32   35 1   
    61   33   34 2   
    62   34   62 1   
    63   35   36 1   
    64   35   40 1   
    65   35   63 1   
    66   36   37 1   
    67   36   64 1   
    68   36   65 1   
    69   37   38 1   
    70   37   66 1   
    71   37   67 1   
    72   38   39 1   
    73   38   68 1   
    74   39   40 1   
    75   39   69 1   
    76   39   70 1   
    77   40   71 1   
    78   40   72 1   
@<TRIPOS>SUBSTRUCTURE
     1 M61         1 TEMP              0 ****  ****    0 ROOT
