@<TRIPOS>MOLECULE
M67
   76    78     1     0     0
SMALL
bcc


@<TRIPOS>ATOM
      1 C1          2.0120   -0.9110   -2.0700 c3        1 M67     -0.108100
      2 C2          2.6270    0.2480   -1.3190 c3        1 M67     -0.108400
      3 C3          2.9460   -0.2090    0.1000 c3        1 M67      0.113800
      4 N4          3.5680    0.9100    0.9190 n4        1 M67     -0.663800
      5 C5          3.7690    0.5190    2.3380 c         1 M67      0.510100
      6 O6          2.7920    0.2760    3.0340 o         1 M67     -0.377100
      7 C7          5.2070    0.4420    2.8510 c3        1 M67      0.022800
      8 N8          5.2730    0.0810    4.3000 n4        1 M67     -0.762000
      9 C9          6.7000   -0.1220    4.7670 c3        1 M67      0.062500
     10 C11         7.2660   -1.4940    4.3400 c3        1 M67     -0.085700
     11 C12         8.7920   -1.4580    4.4440 c3        1 M67     -0.080900
     12 C13         9.3790   -2.7720    3.9660 c3        1 M67     -0.081900
     13 C14         8.8050   -3.9500    4.7210 c3        1 M67     -0.089400
     14 C15         7.2920   -3.9680    4.6540 c3        1 M67     -0.081900
     15 C16         6.7030   -2.6550    5.1410 c3        1 M67     -0.080900
     16 C17         6.8920    0.1230    6.2820 c         1 M67      0.649100
     17 O18         7.9970    0.5500    6.6490 o         1 M67     -0.516100
     18 N19         5.8630    0.0050    7.1980 n         1 M67     -0.481800
     19 C20         4.7330   -0.9310    7.3280 cy        1 M67      0.065000
     20 C21         4.7710   -0.7290    8.8660 cy        1 M67     -0.084400
     21 C22         6.0150    0.1960    8.6530 cy        1 M67      0.019700
     22 C24         7.2770   -0.3740    9.2880 c         1 M67      0.527100
     23 O25         7.8970   -1.3530    8.9070 o         1 M67     -0.376100
     24 N26         7.7990    0.3360   10.5180 n4        1 M67     -0.673800
     25 C27         8.4470   -0.6070   11.4980 c3        1 M67      0.163100
     26 C28         9.0650    0.0940   12.6650 ca        1 M67     -0.149300
     27 C29         8.3530    0.2200   13.8650 ca        1 M67     -0.088000
     28 C30         8.9700    0.7580   14.9960 ca        1 M67     -0.080500
     29 C31        10.3050    1.1750   14.9290 ca        1 M67     -0.198900
     30 C32        11.0180    1.0610   13.7300 ca        1 M67     -0.080500
     31 C33        10.3980    0.5210   12.6020 ca        1 M67     -0.088000
     32 C34        10.9470    1.8030   16.1140 ce        1 M67      0.558800
     33 N35        11.0580    3.0300   16.4430 n2        1 M67     -0.658100
     34 N36        11.5540    0.8020   17.0570 n4        1 M67     -0.818600
     35 H23         1.7730   -0.5810   -3.1140 hc        1 M67      0.080033
     36 H11C        1.0630   -1.2490   -1.5870 hc        1 M67      0.080033
     37 H12C        2.7180   -1.7750   -2.1310 hc        1 M67      0.080033
     38 H21C        1.9030    1.1070   -1.3060 hc        1 M67      0.083200
     39 H22C        3.5590    0.5840   -1.8480 hc        1 M67      0.083200
     40 H31C        2.0000   -0.5270    0.6290 hx        1 M67      0.118700
     41 H32C        3.6790   -1.0640    0.0810 hx        1 M67      0.118700
     42 H4          4.4510    1.1970    0.4790 hn        1 M67      0.486800
     43 H71C        5.7750   -0.3400    2.2550 hx        1 M67      0.164200
     44 H72C        5.7200    1.4430    2.7060 hx        1 M67      0.164200
     45 H8          4.8280    0.8300    4.8510 hn        1 M67      0.473800
     46 H9          7.3270    0.6860    4.2640 hx        1 M67      0.149700
     47 H11         7.0160   -1.6590    3.2520 hc        1 M67      0.065700
     48 H121        9.1970   -0.6170    3.8230 hc        1 M67      0.048450
     49 H122        9.0930   -1.2730    5.5090 hc        1 M67      0.048450
     50 H161        5.5860   -2.6950    5.0430 hc        1 M67      0.048450
     51 H162        6.9590   -2.5230    6.2260 hc        1 M67      0.048450
     52 H131       10.4930   -2.7410    4.1060 hc        1 M67      0.073450
     53 H132        9.1870   -2.8950    2.8670 hc        1 M67      0.073450
     54 H141        9.2060   -4.9040    4.2850 hc        1 M67      0.075200
     55 H142        9.1350   -3.9110    5.7930 hc        1 M67      0.075200
     56 H151        6.9620   -4.1620    3.5990 hc        1 M67      0.073450
     57 H152        6.8950   -4.8060    5.2880 hc        1 M67      0.073450
     58 H201        4.9440   -1.9800    6.9980 h1        1 M67      0.089200
     59 H202        3.8090   -0.5390    6.8340 h1        1 M67      0.089200
     60 H22         5.8720    1.2770    8.9230 h1        1 M67      0.125700
     61 H211        3.8870   -0.1980    9.2850 hc        1 M67      0.117200
     62 H212        4.9680   -1.6610    9.4390 hc        1 M67      0.117200
     63 H26         8.4970    1.0300   10.2130 hn        1 M67      0.468800
     64 H271        7.6500   -1.3270   11.8480 hx        1 M67      0.130200
     65 H272        9.2350   -1.1930   10.9330 hx        1 M67      0.130200
     66 H29         7.3080   -0.1250   13.9400 ha        1 M67      0.166500
     67 H33        10.9800    0.4140   11.6710 ha        1 M67      0.166500
     68 H30         8.3940    0.8540   15.9330 ha        1 M67      0.180000
     69 H32        12.0690    1.3940   13.6640 ha        1 M67      0.180000
     70 H35        10.6770    3.7490   15.8640 hn        1 M67      0.499400
     71 H361       11.9750    1.2650   17.8810 hn        1 M67      0.482800
     72 H362       12.2840    0.2770   16.5620 hn        1 M67      0.482800
     73 H42         2.9130    1.7140    0.8850 hn        1 M67      0.486800
     74 H82         4.7430   -0.7910    4.4630 hn        1 M67      0.473800
     75 H262        7.0340    0.8390   10.9820 hn        1 M67      0.468800
     76 H363       10.8220    0.1570   17.3750 hn        1 M67      0.482800
@<TRIPOS>BOND
     1    1    2 1   
     2    1   35 1   
     3    1   36 1   
     4    1   37 1   
     5    2    3 1   
     6    2   38 1   
     7    2   39 1   
     8    3    4 1   
     9    3   40 1   
    10    3   41 1   
    11    4    5 1   
    12    4   42 1   
    13    4   73 1   
    14    5    6 2   
    15    5    7 1   
    16    7    8 1   
    17    7   43 1   
    18    7   44 1   
    19    8    9 1   
    20    8   45 1   
    21    8   74 1   
    22    9   10 1   
    23    9   16 1   
    24    9   46 1   
    25   10   11 1   
    26   10   15 1   
    27   10   47 1   
    28   11   12 1   
    29   11   48 1   
    30   11   49 1   
    31   12   13 1   
    32   12   52 1   
    33   12   53 1   
    34   13   14 1   
    35   13   54 1   
    36   13   55 1   
    37   14   15 1   
    38   14   56 1   
    39   14   57 1   
    40   15   50 1   
    41   15   51 1   
    42   16   17 2   
    43   16   18 1   
    44   18   19 1   
    45   18   21 1   
    46   19   20 1   
    47   19   58 1   
    48   19   59 1   
    49   20   21 1   
    50   20   61 1   
    51   20   62 1   
    52   21   22 1   
    53   21   60 1   
    54   22   23 2   
    55   22   24 1   
    56   24   25 1   
    57   24   63 1   
    58   24   75 1   
    59   25   26 1   
    60   25   64 1   
    61   25   65 1   
    62   26   27 ar  
    63   26   31 ar  
    64   27   28 ar  
    65   27   66 1   
    66   28   29 ar  
    67   28   68 1   
    68   29   30 ar  
    69   29   32 1   
    70   30   31 ar  
    71   30   69 1   
    72   31   67 1   
    73   32   33 2   
    74   32   34 1   
    75   33   70 1   
    76   34   71 1   
    77   34   72 1   
    78   34   76 1   
@<TRIPOS>SUBSTRUCTURE
     1 M67         1 TEMP              0 ****  ****    0 ROOT
