@<TRIPOS>MOLECULE
M67
   76    78     1     0     0
SMALL
bcc


@<TRIPOS>ATOM
      1 C1          2.0210   -0.9120   -2.0720 c3        1 M67     -0.108100
      2 C2          2.6150    0.2520   -1.3100 c3        1 M67     -0.108400
      3 C3          2.9420   -0.2130    0.1050 c3        1 M67      0.113800
      4 N4          3.5440    0.9090    0.9340 n4        1 M67     -0.663800
      5 C5          3.7520    0.5090    2.3490 c         1 M67      0.510100
      6 O6          2.7790    0.2440    3.0430 o         1 M67     -0.377100
      7 C7          5.1910    0.4500    2.8620 c3        1 M67      0.022800
      8 N8          5.2630    0.0790    4.3080 n4        1 M67     -0.762000
      9 C9          6.6940   -0.1080    4.7720 c3        1 M67      0.062500
     10 C11         7.2790   -1.4670    4.3340 c3        1 M67     -0.085700
     11 C12         8.8050   -1.4090    4.4370 c3        1 M67     -0.080900
     12 C13         9.4110   -2.7100    3.9470 c3        1 M67     -0.081900
     13 C14         8.8540   -3.9030    4.6940 c3        1 M67     -0.089400
     14 C15         7.3430   -3.9430    4.6270 c3        1 M67     -0.081900
     15 C16         6.7340   -2.6430    5.1250 c3        1 M67     -0.080900
     16 C17         6.8820    0.1270    6.2890 c         1 M67      0.649100
     17 O18         7.9810    0.5680    6.6600 o         1 M67     -0.516100
     18 N19         5.8550   -0.0130    7.2040 n         1 M67     -0.481800
     19 C20         4.7400   -0.9670    7.3270 cy        1 M67      0.065000
     20 C21         4.7770   -0.7770    8.8670 cy        1 M67     -0.083400
     21 C22         6.0060    0.1690    8.6610 cy        1 M67      0.019700
     22 C24         7.2770   -0.3880    9.2900 c         1 M67      0.527100
     23 O25         7.9100   -1.3550    8.9020 o         1 M67     -0.376100
     24 N26         7.7920    0.3220   10.5230 n4        1 M67     -0.673800
     25 C27         8.4330   -0.6220   11.5080 c3        1 M67      0.163100
     26 C28         9.0520    0.0780   12.6740 ca        1 M67     -0.149300
     27 C29         8.3390    0.2100   13.8720 ca        1 M67     -0.088000
     28 C30         8.9570    0.7480   15.0030 ca        1 M67     -0.080500
     29 C31        10.2930    1.1580   14.9380 ca        1 M67     -0.198900
     30 C32        11.0080    1.0380   13.7400 ca        1 M67     -0.080500
     31 C33        10.3870    0.4980   12.6120 ca        1 M67     -0.088000
     32 C34        10.9370    1.7860   16.1220 ce        1 M67      0.558800
     33 N35        11.0540    3.0120   16.4480 n2        1 M67     -0.658100
     34 N36        11.5360    0.7840   17.0690 n4        1 M67     -0.818600
     35 H23         1.0780   -1.2720   -1.5930 hc        1 M67      0.080033
     36 H11C        2.7420   -1.7620   -2.1410 hc        1 M67      0.080033
     37 H12C        1.7760   -0.5770   -3.1130 hc        1 M67      0.080033
     38 H21C        3.5410    0.6090   -1.8350 hc        1 M67      0.083200
     39 H22C        1.8750    1.0970   -1.2890 hc        1 M67      0.083200
     40 H31C        3.6900   -1.0550    0.0780 hx        1 M67      0.118700
     41 H32C        2.0020   -0.5520    0.6310 hx        1 M67      0.118700
     42 H4          2.8750    1.7020    0.9070 hn        1 M67      0.486800
     43 H71C        5.6880    1.4610    2.7260 hx        1 M67      0.164200
     44 H72C        5.7710   -0.3170    2.2590 hx        1 M67      0.164200
     45 H8          4.8080    0.8160    4.8640 hn        1 M67      0.473800
     46 H9          7.3080    0.7140    4.2760 hx        1 M67      0.149700
     47 H11         7.0310   -1.6270    3.2440 hc        1 M67      0.065700
     48 H121        9.1960   -0.5570    3.8220 hc        1 M67      0.048450
     49 H122        9.1040   -1.2280    5.5030 hc        1 M67      0.048450
     50 H161        6.9890   -2.5160    6.2120 hc        1 M67      0.048450
     51 H162        5.6180   -2.6990    5.0280 hc        1 M67      0.048450
     52 H131        9.2200   -2.8270    2.8480 hc        1 M67      0.073450
     53 H132       10.5240   -2.6640    4.0870 hc        1 M67      0.073450
     54 H141        9.2700   -4.8480    4.2490 hc        1 M67      0.075200
     55 H142        9.1850   -3.8680    5.7650 hc        1 M67      0.075200
     56 H151        7.0140   -4.1330    3.5710 hc        1 M67      0.073450
     57 H152        6.9590   -4.7920    5.2540 hc        1 M67      0.073450
     58 H201        3.8090   -0.5850    6.8380 h1        1 M67      0.089200
     59 H202        4.9670   -2.0100    6.9890 h1        1 M67      0.089200
     60 H22         5.8470    1.2450    8.9400 h1        1 M67      0.125700
     61 H211        4.9880   -1.7110    9.4320 hc        1 M67      0.117200
     62 H212        3.8850   -0.2630    9.2910 hc        1 M67      0.117200
     63 H26         8.4930    1.0150   10.2230 hn        1 M67      0.468800
     64 H271        9.2190   -1.2130   10.9450 hx        1 M67      0.130200
     65 H272        7.6310   -1.3370   11.8570 hx        1 M67      0.130200
     66 H29         7.2920   -0.1290   13.9460 ha        1 M67      0.166500
     67 H33        10.9700    0.3870   11.6820 ha        1 M67      0.166500
     68 H30         8.3790    0.8480   15.9390 ha        1 M67      0.180000
     69 H32        12.0610    1.3660   13.6740 ha        1 M67      0.180000
     70 H35        10.6790    3.7320   15.8660 hn        1 M67      0.499400
     71 H361       10.8000    0.1430   17.3870 hn        1 M67      0.482800
     72 H362       11.9580    1.2460   17.8930 hn        1 M67      0.482800
     73 H42         4.4220    1.2160    0.4970 hn        1 M67      0.486800
     74 H82         4.7460   -0.8020    4.4630 hn        1 M67      0.473800
     75 H262        7.0250    0.8260   10.9830 hn        1 M67      0.468800
     76 H363       12.2640    0.2530   16.5780 hn        1 M67      0.482800
@<TRIPOS>BOND
     1    1    2 1   
     2    1   35 1   
     3    1   36 1   
     4    1   37 1   
     5    2    3 1   
     6    2   38 1   
     7    2   39 1   
     8    3    4 1   
     9    3   40 1   
    10    3   41 1   
    11    4    5 1   
    12    4   42 1   
    13    4   73 1   
    14    5    6 2   
    15    5    7 1   
    16    7    8 1   
    17    7   43 1   
    18    7   44 1   
    19    8    9 1   
    20    8   45 1   
    21    8   74 1   
    22    9   10 1   
    23    9   16 1   
    24    9   46 1   
    25   10   11 1   
    26   10   15 1   
    27   10   47 1   
    28   11   12 1   
    29   11   48 1   
    30   11   49 1   
    31   12   13 1   
    32   12   52 1   
    33   12   53 1   
    34   13   14 1   
    35   13   54 1   
    36   13   55 1   
    37   14   15 1   
    38   14   56 1   
    39   14   57 1   
    40   15   50 1   
    41   15   51 1   
    42   16   17 2   
    43   16   18 1   
    44   18   19 1   
    45   18   21 1   
    46   19   20 1   
    47   19   58 1   
    48   19   59 1   
    49   20   21 1   
    50   20   61 1   
    51   20   62 1   
    52   21   22 1   
    53   21   60 1   
    54   22   23 2   
    55   22   24 1   
    56   24   25 1   
    57   24   63 1   
    58   24   75 1   
    59   25   26 1   
    60   25   64 1   
    61   25   65 1   
    62   26   27 ar  
    63   26   31 ar  
    64   27   28 ar  
    65   27   66 1   
    66   28   29 ar  
    67   28   68 1   
    68   29   30 ar  
    69   29   32 1   
    70   30   31 ar  
    71   30   69 1   
    72   31   67 1   
    73   32   33 2   
    74   32   34 1   
    75   33   70 1   
    76   34   71 1   
    77   34   72 1   
    78   34   76 1   
@<TRIPOS>SUBSTRUCTURE
     1 M67         1 TEMP              0 ****  ****    0 ROOT
