@<TRIPOS>MOLECULE
M67
   76    78     1     0     0
SMALL
bcc


@<TRIPOS>ATOM
      1 C1          1.9990   -0.9470   -2.0600 c3        1 M67     -0.108100
      2 C2          2.5780    0.2220   -1.2960 c3        1 M67     -0.108400
      3 C3          2.9170   -0.2430    0.1160 c3        1 M67      0.113800
      4 N4          3.5050    0.8840    0.9490 ny        1 M67     -0.663800
      5 C5          3.7230    0.4810    2.3610 c         1 M67      0.510100
      6 O6          2.7560    0.1980    3.0570 o         1 M67     -0.377100
      7 C7          5.1650    0.4420    2.8690 c3        1 M67      0.022800
      8 N8          5.2460    0.0650    4.3130 ny        1 M67     -0.762000
      9 C9          6.6810   -0.1010    4.7730 c3        1 M67      0.062500
     10 C11         7.2870   -1.4490    4.3270 c3        1 M67     -0.085700
     11 C12         8.8110   -1.3670    4.4260 c3        1 M67     -0.080900
     12 C13         9.4360   -2.6560    3.9290 c3        1 M67     -0.081900
     13 C14         8.9010   -3.8610    4.6710 c3        1 M67     -0.089400
     14 C15         7.3890   -3.9250    4.6080 c3        1 M67     -0.081900
     15 C16         6.7620   -2.6370    5.1140 c3        1 M67     -0.080900
     16 C17         6.8700    0.1310    6.2900 c         1 M67      0.649100
     17 O18         7.9630    0.5870    6.6600 o         1 M67     -0.516100
     18 N19         5.8480   -0.0300    7.2080 n         1 M67     -0.481800
     19 C20         4.7480   -1.0020    7.3300 cy        1 M67      0.065000
     20 C21         4.7870   -0.8190    8.8700 cy        1 M67     -0.084400
     21 C22         6.0000    0.1470    8.6650 cy        1 M67      0.019700
     22 C24         7.2820   -0.3930    9.2880 c         1 M67      0.527100
     23 O25         7.9300   -1.3470    8.8930 o         1 M67     -0.376100
     24 N26         7.7880    0.3190   10.5240 ny        1 M67     -0.673800
     25 C27         8.4570   -0.6180   11.4970 c3        1 M67      0.163100
     26 C28         9.0630    0.0870   12.6670 ca        1 M67     -0.149300
     27 C29         8.3520    0.1890   13.8690 ca        1 M67     -0.088000
     28 C30         8.9610    0.7320   15.0030 ca        1 M67     -0.080500
     29 C31        10.2870    1.1760   14.9360 ca        1 M67     -0.198900
     30 C32        10.9990    1.0850   13.7340 ca        1 M67     -0.080500
     31 C33        10.3870    0.5410   12.6030 ca        1 M67     -0.088000
     32 C34        10.9200    1.8080   16.1230 ce        1 M67      0.558800
     33 N35        11.0070    3.0340   16.4610 n2        1 M67     -0.658100
     34 N36        11.5490    0.8130   17.0570 nz        1 M67     -0.818600
     35 H23         1.7460   -0.6100   -3.0990 hc        1 M67      0.080033
     36 H11C        2.7330   -1.7860   -2.1350 hc        1 M67      0.080033
     37 H12C        1.0630   -1.3220   -1.5800 hc        1 M67      0.080033
     38 H21C        3.4970    0.5950   -1.8220 hc        1 M67      0.083200
     39 H22C        1.8260    1.0560   -1.2680 hc        1 M67      0.083200
     40 H31C        3.6770   -1.0740    0.0840 hx        1 M67      0.118700
     41 H32C        1.9830   -0.5990    0.6440 hx        1 M67      0.118700
     42 H4          2.8240    1.6670    0.9270 hn        1 M67      0.486800
     43 H71C        5.6440    1.4610    2.7370 hx        1 M67      0.164200
     44 H72C        5.7550   -0.3130    2.2610 hx        1 M67      0.164200
     45 H8          4.7810    0.7930    4.8750 hn        1 M67      0.473800
     46 H9          7.2810    0.7330    4.2780 hx        1 M67      0.149700
     47 H11         7.0370   -1.6070    3.2370 hc        1 M67      0.065700
     48 H121        9.1100   -1.1870    5.4930 hc        1 M67      0.048450
     49 H122        9.1880   -0.5070    3.8140 hc        1 M67      0.048450
     50 H161        7.0180   -2.5110    6.2000 hc        1 M67      0.048450
     51 H162        5.6470   -2.7100    5.0190 hc        1 M67      0.048450
     52 H131        9.2440   -2.7710    2.8290 hc        1 M67      0.073450
     53 H132       10.5500   -2.5930    4.0660 hc        1 M67      0.073450
     54 H141        9.2340   -3.8260    5.7420 hc        1 M67      0.075200
     55 H142        9.3300   -4.7970    4.2210 hc        1 M67      0.075200
     56 H151        7.0620   -4.1150    3.5520 hc        1 M67      0.073450
     57 H152        7.0210   -4.7820    5.2320 hc        1 M67      0.073450
     58 H201        3.8110   -0.6330    6.8450 h1        1 M67      0.089200
     59 H202        4.9910   -2.0400    6.9860 h1        1 M67      0.089200
     60 H22         5.8250    1.2190    8.9500 h1        1 M67      0.125700
     61 H211        3.8880   -0.3210    9.2990 hc        1 M67      0.117200
     62 H212        5.0140   -1.7520    9.4310 hc        1 M67      0.117200
     63 H26         7.0120    0.8010   10.9920 hn        1 M67      0.468800
     64 H271        9.2540   -1.1840   10.9250 hx        1 M67      0.130200
     65 H272        7.6750   -1.3560   11.8420 hx        1 M67      0.130200
     66 H29         7.3140   -0.1760   13.9440 ha        1 M67      0.166500
     67 H33        10.9690    0.4520   11.6700 ha        1 M67      0.166500
     68 H30         8.3860    0.8090   15.9420 ha        1 M67      0.180000
     69 H32        12.0430    1.4400   13.6670 ha        1 M67      0.180000
     70 H35        10.6100    3.7500   15.8870 hn        1 M67      0.499400
     71 H361       12.2880    0.3060   16.5570 hn        1 M67      0.482800
     72 H362       11.9630    1.2780   17.8840 hn        1 M67      0.482800
     73 H42         4.3770    1.2060    0.5100 hn        1 M67      0.486800
     74 H82         4.7440   -0.8250    4.4660 hn        1 M67      0.473800
     75 H262        8.4710    1.0300   10.2250 hn        1 M67      0.468800
     76 H363       10.8320    0.1510   17.3720 hn        1 M67      0.482800
@<TRIPOS>BOND
     1    1    2 1   
     2    1   35 1   
     3    1   36 1   
     4    1   37 1   
     5    2    3 1   
     6    2   38 1   
     7    2   39 1   
     8    3    4 1   
     9    3   40 1   
    10    3   41 1   
    11    4    5 1   
    12    4   42 1   
    13    4   73 1   
    14    5    6 2   
    15    5    7 1   
    16    7    8 1   
    17    7   43 1   
    18    7   44 1   
    19    8    9 1   
    20    8   45 1   
    21    8   74 1   
    22    9   10 1   
    23    9   16 1   
    24    9   46 1   
    25   10   11 1   
    26   10   15 1   
    27   10   47 1   
    28   11   12 1   
    29   11   48 1   
    30   11   49 1   
    31   12   13 1   
    32   12   52 1   
    33   12   53 1   
    34   13   14 1   
    35   13   54 1   
    36   13   55 1   
    37   14   15 1   
    38   14   56 1   
    39   14   57 1   
    40   15   50 1   
    41   15   51 1   
    42   16   17 2   
    43   16   18 1   
    44   18   19 1   
    45   18   21 1   
    46   19   20 1   
    47   19   58 1   
    48   19   59 1   
    49   20   21 1   
    50   20   61 1   
    51   20   62 1   
    52   21   22 1   
    53   21   60 1   
    54   22   23 2   
    55   22   24 1   
    56   24   25 1   
    57   24   63 1   
    58   24   75 1   
    59   25   26 1   
    60   25   64 1   
    61   25   65 1   
    62   26   27 ar  
    63   26   31 ar  
    64   27   28 ar  
    65   27   66 1   
    66   28   29 ar  
    67   28   68 1   
    68   29   30 ar  
    69   29   32 1   
    70   30   31 ar  
    71   30   69 1   
    72   31   67 1   
    73   32   33 2   
    74   32   34 1   
    75   33   70 1   
    76   34   71 1   
    77   34   72 1   
    78   34   76 1   
@<TRIPOS>SUBSTRUCTURE
     1 M67         1 TEMP              0 ****  ****    0 ROOT
