@<TRIPOS>MOLECULE
M67
   72    74     1     0     0
SMALL
bcc


@<TRIPOS>ATOM
      1 C1          9.8930    3.1440    1.5040 c3        1 M67     -0.092100
      2 C2          8.8730    2.0450    1.3710 c3        1 M67     -0.104400
      3 C3          7.8730    2.3880    0.2640 c3        1 M67      0.084000
      4 N4          6.8820    1.3740    0.0240 n         1 M67     -0.563900
      5 C5          5.5460    1.5570    0.3040 c         1 M67      0.647100
      6 O6          5.0940    2.6560    0.6840 o         1 M67     -0.611100
      7 C7          4.6310    0.3360    0.1220 c3        1 M67      0.095800
      8 N8          3.2670    0.6970   -0.1990 n3        1 M67     -0.821200
      9 C9          2.2730   -0.2130    0.3570 c3        1 M67      0.122500
     10 C11         2.4060   -1.6590   -0.1690 c3        1 M67     -0.052700
     11 C12         1.4320   -2.5740    0.5630 c3        1 M67     -0.078900
     12 C13         1.6100   -4.0120    0.1230 c3        1 M67     -0.075400
     13 C14         1.4690   -4.1550   -1.3780 c3        1 M67     -0.079400
     14 C15         2.4180   -3.2280   -2.1100 c3        1 M67     -0.075400
     15 C16         2.2260   -1.7880   -1.6720 c3        1 M67     -0.078900
     16 C17         0.8310    0.3050    0.1660 c         1 M67      0.676100
     17 O18         0.0050    0.1030    1.0870 o         1 M67     -0.642100
     18 N19         0.4360    0.9380   -0.9740 n         1 M67     -0.474800
     19 C20         1.1350    1.5090   -2.1270 cy        1 M67      0.107000
     20 C21        -0.1990    2.1720   -2.5620 cy        1 M67     -0.100400
     21 C22        -0.8560    1.5540   -1.2930 cy        1 M67      0.030700
     22 C24        -2.0300    0.6230   -1.5980 c         1 M67      0.653100
     23 O25        -2.6910    0.7770   -2.6460 o         1 M67     -0.621100
     24 N26        -2.3130   -0.3670   -0.6860 n         1 M67     -0.550900
     25 C27        -3.4730   -1.2070   -0.8120 c3        1 M67      0.131300
     26 C28        -4.7120   -0.6800   -0.1410 ca        1 M67     -0.109300
     27 C29        -5.3920    0.4070   -0.6990 ca        1 M67     -0.124000
     28 C30        -6.5560    0.8880   -0.1030 ca        1 M67     -0.103500
     29 C31        -7.0490    0.2750    1.0530 ca        1 M67     -0.138900
     30 C32        -6.3670   -0.8060    1.6200 ca        1 M67     -0.103500
     31 C33        -5.2000   -1.2800    1.0230 ca        1 M67     -0.124000
     32 C34        -8.3050    0.7890    1.6890 ce        1 M67      0.649800
     33 N35        -8.3970    2.0590    1.9440 n2        1 M67     -0.824100
     34 N36        -9.2450   -0.2180    2.0080 nh        1 M67     -0.957800
     35 H23        10.6220    2.8960    2.3130 hc        1 M67      0.038033
     36 H11C       10.4580    3.2800    0.5500 hc        1 M67      0.038033
     37 H12C        9.3990    4.1130    1.7600 hc        1 M67      0.038033
     38 H21C        9.3890    1.0770    1.1370 hc        1 M67      0.043700
     39 H22C        8.3320    1.9100    2.3440 hc        1 M67      0.043700
     40 H31C        7.3490    3.3520    0.5270 h1        1 M67      0.064700
     41 H32C        8.4420    2.5500   -0.6970 h1        1 M67      0.064700
     42 H4          7.2090    0.4630   -0.1890 hn        1 M67      0.307500
     43 H71C        5.0010   -0.3120   -0.7240 h1        1 M67      0.057700
     44 H72C        4.7150   -0.2620    1.0790 h1        1 M67      0.057700
     45 H8          3.0720    1.6390    0.1000 hn        1 M67      0.391800
     46 H9          2.3870   -0.2840    1.4900 h1        1 M67      0.056700
     47 H11         3.4520   -2.0040    0.0830 hc        1 M67      0.045700
     48 H121        1.5980   -2.4940    1.6690 hc        1 M67      0.052200
     49 H122        0.3800   -2.2400    0.3610 hc        1 M67      0.052200
     50 H161        1.1970   -1.4510   -1.9620 hc        1 M67      0.052200
     51 H162        2.9650   -1.1330   -2.2030 hc        1 M67      0.052200
     52 H131        2.6220   -4.3790    0.4400 hc        1 M67      0.038700
     53 H132        0.8450   -4.6530    0.6350 hc        1 M67      0.038700
     54 H141        1.6760   -5.2160   -1.6760 hc        1 M67      0.041200
     55 H142        0.4140   -3.9200   -1.6780 hc        1 M67      0.041200
     56 H151        3.4760   -3.5430   -1.9140 hc        1 M67      0.038700
     57 H152        2.2420   -3.3050   -3.2140 hc        1 M67      0.038700
     58 H201        1.9400    2.2380   -1.8620 h1        1 M67      0.065700
     59 H202        1.5380    0.7280   -2.8170 h1        1 M67      0.065700
     60 H22        -1.1910    2.2950   -0.5200 h1        1 M67      0.089700
     61 H211       -0.1820    3.2820   -2.5620 hc        1 M67      0.080200
     62 H212       -0.6240    1.7920   -3.5150 hc        1 M67      0.080200
     63 H26        -1.8600   -0.3450    0.2040 hn        1 M67      0.342500
     64 H271       -3.6970   -1.3440   -1.9120 h1        1 M67      0.066200
     65 H272       -3.2100   -2.2130   -0.3740 h1        1 M67      0.066200
     66 H29        -4.9950    0.8820   -1.6130 ha        1 M67      0.145500
     67 H33        -4.6620   -2.1270    1.4740 ha        1 M67      0.145500
     68 H30        -7.0800    1.7540   -0.5360 ha        1 M67      0.146000
     69 H32        -6.7380   -1.2760    2.5430 ha        1 M67      0.146000
     70 H35        -9.2470    2.3680    2.3650 hn        1 M67      0.381400
     71 H361       -9.1370   -1.0730    1.5140 hn        1 M67      0.397300
     72 H362      -10.1890    0.0730    2.1170 hn        1 M67      0.397300
@<TRIPOS>BOND
     1    1    2 1   
     2    1   35 1   
     3    1   36 1   
     4    1   37 1   
     5    2    3 1   
     6    2   38 1   
     7    2   39 1   
     8    3    4 1   
     9    3   40 1   
    10    3   41 1   
    11    4    5 1   
    12    4   42 1   
    13    5    6 2   
    14    5    7 1   
    15    7    8 1   
    16    7   43 1   
    17    7   44 1   
    18    8    9 1   
    19    8   45 1   
    20    9   10 1   
    21    9   16 1   
    22    9   46 1   
    23   10   11 1   
    24   10   15 1   
    25   10   47 1   
    26   11   12 1   
    27   11   48 1   
    28   11   49 1   
    29   12   13 1   
    30   12   52 1   
    31   12   53 1   
    32   13   14 1   
    33   13   54 1   
    34   13   55 1   
    35   14   15 1   
    36   14   56 1   
    37   14   57 1   
    38   15   50 1   
    39   15   51 1   
    40   16   17 2   
    41   16   18 1   
    42   18   19 1   
    43   18   21 1   
    44   19   20 1   
    45   19   58 1   
    46   19   59 1   
    47   20   21 1   
    48   20   61 1   
    49   20   62 1   
    50   21   22 1   
    51   21   60 1   
    52   22   23 2   
    53   22   24 1   
    54   24   25 1   
    55   24   63 1   
    56   25   26 1   
    57   25   64 1   
    58   25   65 1   
    59   26   27 ar  
    60   26   31 ar  
    61   27   28 ar  
    62   27   66 1   
    63   28   29 ar  
    64   28   68 1   
    65   29   30 ar  
    66   29   32 1   
    67   30   31 ar  
    68   30   69 1   
    69   31   67 1   
    70   32   33 2   
    71   32   34 1   
    72   33   70 1   
    73   34   71 1   
    74   34   72 1   
@<TRIPOS>SUBSTRUCTURE
     1 M67         1 TEMP              0 ****  ****    0 ROOT
