@<TRIPOS>MOLECULE
M67
   72    71     1     0     0
SMALL
bcc


@<TRIPOS>ATOM
      1 C1         -2.4820   -0.7680    3.1030 c3        1 M67     -0.210000
      2 C2         -1.6750    0.2310    2.3210 c3        1 M67     -0.202000
      3 C3         -2.6110    1.4560    1.8850 c3        1 M67     -0.030000
      4 N4         -1.7940    2.4830    1.2340 n         1 M67     -0.361000
      5 C5         -2.0340    2.8330   -0.2600 c2        1 M67      0.268000
      6 O6         -2.1880    3.9460   -0.5800 o         1 M67     -0.410000
      7 C7         -2.0080    1.5980   -1.4510 c3        1 M67     -0.078000
      8 N8         -2.6550    0.3080   -0.8830 n3        1 M67     -0.301000
      9 C9         -1.6340   -0.6860   -0.6720 c3        1 M67     -0.017000
     10 C11        -1.6430   -1.6710   -1.8180 c3        1 M67     -0.096000
     11 C12        -0.6210   -1.2170   -2.8800 c3        1 M67     -0.153500
     12 C13        -0.4270   -2.2710   -4.0240 c3        1 M67     -0.155000
     13 C14        -0.1050   -3.6860   -3.4800 c3        1 M67     -0.158000
     14 C15        -1.1510   -4.1600   -2.3820 c3        1 M67     -0.155000
     15 C16        -1.3320   -3.1210   -1.2550 c3        1 M67     -0.153500
     16 C17        -1.8980   -1.4000    0.5980 c2        1 M67      0.252000
     17 O18        -3.1530   -1.5710    1.0080 o         1 M67     -0.368000
     18 N19        -0.7840   -1.6970    1.5050 n         1 M67     -0.306000
     19 C20        -0.6780   -2.1610    2.8390 cy        1 M67     -0.048000
     20 C21         0.7420   -2.1660    2.7530 cy        1 M67     -0.178000
     21 C22         0.6860   -1.6400    1.4090 cy        1 M67     -0.022000
     22 C24         0.7040   -1.6000    1.4020 c2        1 M67      0.293000
     23 O25         0.0820   -0.7480    0.8110 o         1 M67     -0.376000
     24 N26         2.3270   -1.2770    1.9180 n         1 M67     -0.354000
     25 C27         3.4800   -0.6880    0.8080 c3        1 M67      0.002000
     26 C28         3.1930    1.0530    0.5010 c2        1 M67     -0.098000
     27 C29         4.3390    1.9520    0.3000 c2        1 M67     -0.120000
     28 C30         4.1240    3.3090   -0.2060 c1        1 M67     -0.102000
     29 C31         2.8130    3.7530   -0.4990 c1        1 M67     -0.114000
     30 C32         1.6850    2.8660   -0.3010 c1        1 M67     -0.117000
     31 C33         1.8970    1.4990    0.2080 c1        1 M67     -0.124000
     32 C34         2.5770    5.2400   -0.9870 c2        1 M67      0.116000
     33 N35         2.4360    5.5040   -2.2720 n1        1 M67     -0.306000
     34 N36         2.5270    6.2370   -0.0880 n3        1 M67     -0.332000
     35 H23        -3.4160   -0.3620    3.3090 hc        1 M67      0.076000
     36 H11C       -2.0610   -0.9570    3.8760 hc        1 M67      0.076000
     37 H12C       -2.5940   -1.6460    2.5450 hc        1 M67      0.076000
     38 H21C       -0.9530    0.5540    2.8630 hc        1 M67      0.102000
     39 H22C       -1.3110   -0.2050    1.5150 hc        1 M67      0.102000
     40 H31C       -3.0320    1.8290    2.6610 h1        1 M67      0.090500
     41 H32C       -3.3440    1.1140    1.2170 h1        1 M67      0.090500
     42 H4         -1.0840    2.9860    1.7660 hn        1 M67      0.231000
     43 H71C       -1.0500    1.4050   -1.7150 h1        1 M67      0.122000
     44 H72C       -2.4980    1.8920   -2.2230 h1        1 M67      0.122000
     45 H8         -3.0480    0.4850   -0.1260 hn        1 M67      0.186000
     46 H9         -0.7420   -0.2420   -0.6220 h1        1 M67      0.120000
     47 H11        -2.6180   -1.6730   -2.2610 hc        1 M67      0.108000
     48 H121       -0.9330   -0.3750   -3.2750 hc        1 M67      0.084500
     49 H122        0.2610   -1.0580   -2.4340 hc        1 M67      0.084500
     50 H161       -2.1000   -3.4120   -0.6610 hc        1 M67      0.084500
     51 H162       -0.4290   -3.0820   -0.6630 hc        1 M67      0.084500
     52 H131        0.3080   -1.9800   -4.6000 hc        1 M67      0.081750
     53 H132       -1.2100   -2.3150   -4.5290 hc        1 M67      0.081750
     54 H141        0.8080   -3.6740   -3.0790 hc        1 M67      0.081000
     55 H142       -0.1140   -4.3470   -4.2550 hc        1 M67      0.081000
     56 H151       -1.9540   -4.2970   -2.7840 hc        1 M67      0.081750
     57 H152       -0.8350   -5.0320   -1.9790 hc        1 M67      0.081750
     58 H201       -1.0290   -1.4900    3.5130 h1        1 M67      0.110500
     59 H202       -1.0470   -3.0570    2.9540 h1        1 M67      0.110500
     60 H22         1.0940   -2.2310    0.6940 h1        1 M67      0.130000
     61 H211        1.1640   -1.5530    3.3730 hc        1 M67      0.114000
     62 H212        1.1140   -3.0960    2.7940 hc        1 M67      0.114000
     63 H26         2.5720   -1.4380    2.7750 hn        1 M67      0.259000
     64 H271        4.4290   -0.8150    1.2020 h1        1 M67      0.110000
     65 H272        3.4100   -1.2030   -0.0680 h1        1 M67      0.110000
     66 H29         5.2690    1.6310    0.5100 ha        1 M67      0.142000
     67 H33         1.0960    0.8750    0.3490 ha        1 M67      0.165000
     68 H30         4.8590    3.8890   -0.3360 ha        1 M67      0.149000
     69 H32         0.7470    3.1880   -0.5110 ha        1 M67      0.139000
     70 H35         2.4690    4.8630   -2.8520 DU        1 M67      0.150000
     71 H361        2.3340    7.0270   -0.3380 hn        1 M67      0.193000
     72 H362        2.7290    6.0630    0.8270 hn        1 M67      0.193000
@<TRIPOS>BOND
     1    1    2 1   
     2    1   35 1   
     3    1   36 1   
     4    1   37 1   
     5    2    3 1   
     6    2   38 1   
     7    2   39 1   
     8    3    4 1   
     9    3   40 1   
    10    3   41 1   
    11    4    5 1   
    12    4   42 1   
    13    5    6 1   
    14    5    7 1   
    15    7    8 1   
    16    7   43 1   
    17    7   44 1   
    18    8    9 1   
    19    8   45 1   
    20    9   10 1   
    21    9   16 1   
    22    9   46 1   
    23   10   11 1   
    24   10   15 1   
    25   10   47 1   
    26   11   12 1   
    27   11   48 1   
    28   11   49 1   
    29   12   13 1   
    30   12   52 1   
    31   12   53 1   
    32   13   14 1   
    33   13   54 1   
    34   13   55 1   
    35   14   15 1   
    36   14   56 1   
    37   14   57 1   
    38   15   50 1   
    39   15   51 1   
    40   16   17 1   
    41   16   18 1   
    42   18   19 1   
    43   18   21 1   
    44   19   20 1   
    45   19   58 1   
    46   19   59 1   
    47   20   21 1   
    48   20   61 1   
    49   20   62 1   
    50   21   22 1   
    51   21   60 1   
    52   22   23 1   
    53   22   24 1   
    54   24   25 1   
    55   24   63 1   
    56   25   26 1   
    57   25   64 1   
    58   25   65 1   
    59   26   27 1   
    60   26   31 1   
    61   27   28 1   
    62   27   66 1   
    63   28   68 1   
    64   29   30 1   
    65   29   32 1   
    66   30   69 1   
    67   31   67 1   
    68   32   33 1   
    69   32   34 1   
    70   34   71 1   
    71   34   72 1   
@<TRIPOS>SUBSTRUCTURE
     1 M67         1 TEMP              0 ****  ****    0 ROOT
