@<TRIPOS>MOLECULE
M68
   44    46     1     0     0
SMALL
bcc


@<TRIPOS>ATOM
      1 CL          0.2300   -0.8100    0.1520 cl        1 M68     -0.055400
      2 C23         1.8830   -0.4440    0.1080 ca        1 M68      0.022400
      3 C24         2.5860   -0.2340    1.3020 ca        1 M68     -0.096000
      4 C25         3.9450    0.0690    1.2530 ca        1 M68     -0.108000
      5 C26         4.6060    0.1600    0.0280 ca        1 M68     -0.114000
      6 C22         2.5370   -0.3510   -1.1240 ca        1 M68     -0.122000
      7 C21         3.9030   -0.0520   -1.1620 ca        1 M68     -0.117300
      8 C15         4.5940    0.0640   -2.4760 c3        1 M68     -0.049100
      9 C14         4.8810   -1.3390   -3.0110 c3        1 M68      0.099800
     10 N13         5.5370   -1.3170   -4.3530 n4        1 M68     -0.764000
     11 C12         5.8120   -2.6960   -4.8620 c3        1 M68      0.099800
     12 C11         6.4850   -2.6900   -6.2350 c3        1 M68     -0.050100
     13 C08         6.7710   -4.0990   -6.6270 ca        1 M68     -0.105300
     14 C07         5.9320   -4.7400   -7.5710 ca        1 M68     -0.158000
     15 C06         6.1930   -6.0350   -7.9530 ca        1 M68     -0.065000
     16 C09         7.8530   -4.7570   -6.0820 ca        1 M68     -0.173300
     17 C10         8.1440   -6.1100   -6.4530 ca        1 M68      0.453600
     18 N01         9.2250   -6.7360   -5.8840 nb        1 M68     -0.757000
     19 C05         7.2890   -6.7410   -7.4070 ca        1 M68     -0.185300
     20 C04         7.5910   -8.0860   -7.7780 ca        1 M68     -0.049000
     21 C03         8.6590   -8.7250   -7.2190 ca        1 M68     -0.267300
     22 C02         9.4760   -8.0170   -6.2400 ca        1 M68      0.686200
     23 N02        10.5020   -8.7090   -5.6180 nh        1 M68     -0.946500
     24 H24         2.0670   -0.3030    2.2720 ha        1 M68      0.167000
     25 H22         1.9740   -0.5010   -2.0580 ha        1 M68      0.142000
     26 H25         4.5000    0.2420    2.1890 ha        1 M68      0.157000
     27 H26         5.6780    0.4090    0.0030 ha        1 M68      0.139000
     28 H151        5.5520    0.6380   -2.3570 hc        1 M68      0.071200
     29 H152        3.9420    0.6310   -3.1940 hc        1 M68      0.071200
     30 H141        3.9160   -1.9160   -3.1040 hx        1 M68      0.112200
     31 H142        5.5610   -1.8910   -2.3010 hx        1 M68      0.112200
     32 H13         4.9320   -0.8240   -5.0190 hn        1 M68      0.446800
     33 H121        4.8300   -3.2480   -4.9170 hx        1 M68      0.112700
     34 H122        6.4760   -3.2180   -4.1140 hx        1 M68      0.112700
     35 H111        7.4440   -2.1060   -6.1970 hc        1 M68      0.069700
     36 H112        5.8170   -2.2050   -6.9950 hc        1 M68      0.069700
     37 H07         5.0830   -4.1920   -8.0040 ha        1 M68      0.133000
     38 H09         8.5170   -4.2510   -5.3630 ha        1 M68      0.142000
     39 H06         5.5510   -6.5400   -8.6930 ha        1 M68      0.147000
     40 H04         6.9500   -8.5900   -8.5190 ha        1 M68      0.150000
     41 H03         8.9080   -9.7610   -7.4880 ha        1 M68      0.155000
     42 H021       10.8390   -9.5200   -6.0790 hn        1 M68      0.432300
     43 H022       11.1510   -8.2060   -5.0590 hn        1 M68      0.432300
     44 H132        6.4200   -0.7970   -4.2910 hn        1 M68      0.446800
@<TRIPOS>BOND
     1    1    2 1   
     2    2    3 ar  
     3    2    6 ar  
     4    3    4 ar  
     5    3   24 1   
     6    4    5 ar  
     7    4   26 1   
     8    5    7 ar  
     9    5   27 1   
    10    6    7 ar  
    11    6   25 1   
    12    7    8 1   
    13    8    9 1   
    14    8   28 1   
    15    8   29 1   
    16    9   10 1   
    17    9   30 1   
    18    9   31 1   
    19   10   11 1   
    20   10   32 1   
    21   10   44 1   
    22   11   12 1   
    23   11   33 1   
    24   11   34 1   
    25   12   13 1   
    26   12   35 1   
    27   12   36 1   
    28   13   14 ar  
    29   13   16 ar  
    30   14   15 ar  
    31   14   37 1   
    32   15   19 ar  
    33   15   39 1   
    34   16   17 ar  
    35   16   38 1   
    36   17   18 ar  
    37   17   19 ar  
    38   18   22 ar  
    39   19   20 ar  
    40   20   21 ar  
    41   20   40 1   
    42   21   22 ar  
    43   21   41 1   
    44   22   23 1   
    45   23   42 1   
    46   23   43 1   
@<TRIPOS>SUBSTRUCTURE
     1 M68         1 TEMP              0 ****  ****    0 ROOT
