@<TRIPOS>MOLECULE
M68
   44    46     1     0     0
SMALL
bcc


@<TRIPOS>ATOM
      1 Cl          0.2570   -0.8020    0.1820 cl        1 M68     -0.056400
      2 C23         1.9070   -0.4240    0.1230 ca        1 M68      0.022400
      3 C24         2.6160   -0.1950    1.3090 ca        1 M68     -0.096000
      4 C25         3.9730    0.1180    1.2470 ca        1 M68     -0.108000
      5 C26         4.6240    0.1980    0.0170 ca        1 M68     -0.114000
      6 C22         2.5510   -0.3420   -1.1150 ca        1 M68     -0.122000
      7 C21         3.9150   -0.0330   -1.1660 ca        1 M68     -0.117300
      8 C15         4.5970    0.0740   -2.4860 c3        1 M68     -0.049100
      9 C14         4.8830   -1.3330   -3.0100 c3        1 M68      0.099800
     10 N13         5.5310   -1.3220   -4.3560 ny        1 M68     -0.764000
     11 C12         5.8040   -2.7040   -4.8560 c3        1 M68      0.099800
     12 C11         6.4700   -2.7070   -6.2320 c3        1 M68     -0.050100
     13 C08         6.7540   -4.1180   -6.6200 ca        1 M68     -0.104300
     14 C07         5.9160   -4.7590   -7.5650 ca        1 M68     -0.160000
     15 C06         6.1810   -6.0520   -7.9510 ca        1 M68     -0.064000
     16 C09         7.8350   -4.7750   -6.0740 ca        1 M68     -0.175300
     17 C10         8.1320   -6.1260   -6.4500 ca        1 M68      0.457600
     18 N01         9.2110   -6.7530   -5.8780 nb        1 M68     -0.763000
     19 C05         7.2790   -6.7560   -7.4070 ca        1 M68     -0.188300
     20 C04         7.5870   -8.0980   -7.7850 ca        1 M68     -0.047000
     21 C03         8.6640   -8.7310   -7.2390 ca        1 M68     -0.271300
     22 C02         9.4900   -8.0190   -6.2690 ca        1 M68      0.697200
     23 N02        10.6130   -8.6490   -5.7720 nv        1 M68     -0.960500
     24 H24         2.1040   -0.2560    2.2830 ha        1 M68      0.167000
     25 H22         1.9840   -0.5060   -2.0430 ha        1 M68      0.142000
     26 H25         4.5320    0.3060    2.1770 ha        1 M68      0.157000
     27 H26         5.6940    0.4550   -0.0180 ha        1 M68      0.139000
     28 H151        3.9370    0.6310   -3.2040 hc        1 M68      0.071200
     29 H152        5.5540    0.6520   -2.3790 hc        1 M68      0.071200
     30 H141        5.5700   -1.8770   -2.2990 hx        1 M68      0.111200
     31 H142        3.9200   -1.9140   -3.0920 hx        1 M68      0.111200
     32 H13         6.4140   -0.8010   -4.3040 hn        1 M68      0.447300
     33 H121        4.8220   -3.2570   -4.9030 hx        1 M68      0.112200
     34 H122        6.4730   -3.2210   -4.1090 hx        1 M68      0.112200
     35 H111        7.4300   -2.1240   -6.2030 hc        1 M68      0.069700
     36 H112        5.7980   -2.2260   -6.9920 hc        1 M68      0.069700
     37 H07         5.0670   -4.2120   -7.9980 ha        1 M68      0.133000
     38 H09         8.4970   -4.2700   -5.3540 ha        1 M68      0.141000
     39 H06         5.5410   -6.5570   -8.6930 ha        1 M68      0.146000
     40 H04         6.9430   -8.6040   -8.5210 ha        1 M68      0.150000
     41 H03         8.9250   -9.7610   -7.5200 ha        1 M68      0.154000
     42 H021       11.1360   -8.2290   -5.0430 hn        1 M68      0.440300
     43 H022       10.6940   -9.6260   -5.9080 hn        1 M68      0.440300
     44 H132        4.9220   -0.8350   -5.0220 hn        1 M68      0.447300
@<TRIPOS>BOND
     1    1    2 1   
     2    2    3 ar  
     3    2    6 ar  
     4    3    4 ar  
     5    3   24 1   
     6    4    5 ar  
     7    4   26 1   
     8    5    7 ar  
     9    5   27 1   
    10    6    7 ar  
    11    6   25 1   
    12    7    8 1   
    13    8    9 1   
    14    8   28 1   
    15    8   29 1   
    16    9   10 1   
    17    9   30 1   
    18    9   31 1   
    19   10   11 1   
    20   10   32 1   
    21   10   44 1   
    22   11   12 1   
    23   11   33 1   
    24   11   34 1   
    25   12   13 1   
    26   12   35 1   
    27   12   36 1   
    28   13   14 ar  
    29   13   16 ar  
    30   14   15 ar  
    31   14   37 1   
    32   15   19 ar  
    33   15   39 1   
    34   16   17 ar  
    35   16   38 1   
    36   17   18 ar  
    37   17   19 ar  
    38   18   22 ar  
    39   19   20 ar  
    40   20   21 ar  
    41   20   40 1   
    42   21   22 ar  
    43   21   41 1   
    44   22   23 1   
    45   23   42 1   
    46   23   43 1   
@<TRIPOS>SUBSTRUCTURE
     1 M68         1 TEMP              0 ****  ****    0 ROOT
