@<TRIPOS>MOLECULE
M68
   45    47     1     0     0
SMALL
bcc


@<TRIPOS>ATOM
      1 CL         -0.1570   -0.4670   -0.5130 cl        1 M68     -0.047400
      2 C23         1.4880   -0.1350   -0.2870 ca        1 M68      0.023400
      3 C24         1.9780    0.1420    0.9960 ca        1 M68     -0.090000
      4 C25         3.3330    0.4160    1.1680 ca        1 M68     -0.105000
      5 C26         4.2010    0.4110    0.0760 ca        1 M68     -0.112000
      6 C22         2.3490   -0.1370   -1.3880 ca        1 M68     -0.126000
      7 C21         3.7100    0.1330   -1.2040 ca        1 M68     -0.126300
      8 C15         4.6210    0.1580   -2.3810 c3        1 M68     -0.047100
      9 C14         4.9030   -1.2830   -2.8120 c3        1 M68      0.101800
     10 N13         5.7670   -1.3540   -4.0340 n4        1 M68     -0.765000
     11 C12         6.0130   -2.7630   -4.4610 c3        1 M68      0.102800
     12 C11         6.8830   -2.8540   -5.7140 c3        1 M68     -0.065100
     13 C08         7.0200   -4.2730   -6.1530 ca        1 M68     -0.077300
     14 C07         5.8850   -4.9420   -6.6890 ca        1 M68     -0.101000
     15 C06         5.9840   -6.2270   -7.1580 ca        1 M68     -0.085000
     16 C09         8.2410   -4.9070   -6.0980 ca        1 M68     -0.136300
     17 C10         8.3780   -6.2480   -6.5890 ca        1 M68      0.411600
     18 N01         9.6100   -6.8610   -6.5450 nb        1 M68     -0.627000
     19 C05         7.2270   -6.9110   -7.1250 ca        1 M68     -0.113300
     20 C04         7.3750   -8.2360   -7.6180 ca        1 M68     -0.023000
     21 C03         8.6060   -8.8520   -7.5800 ca        1 M68     -0.231300
     22 C02         9.6970   -8.1030   -7.0280 ca        1 M68      0.479200
     23 N02        11.0290   -8.7530   -6.9910 n4        1 M68     -0.826300
     24 H24         1.2950    0.1520    1.8620 ha        1 M68      0.173000
     25 H22         1.9530   -0.3310   -2.3960 ha        1 M68      0.139000
     26 H25         3.7200    0.6450    2.1750 ha        1 M68      0.162000
     27 H26         5.2670    0.6410    0.2260 ha        1 M68      0.139000
     28 H151        5.5790    0.6810   -2.1180 hc        1 M68      0.074200
     29 H152        4.1340    0.7290   -3.2180 hc        1 M68      0.074200
     30 H141        5.4280   -1.8370   -1.9820 hx        1 M68      0.112700
     31 H142        3.9310   -1.8080   -3.0410 hx        1 M68      0.112700
     32 H13         5.3120   -0.8380   -4.7970 hn        1 M68      0.452300
     33 H121        5.0110   -3.2470   -4.6510 hx        1 M68      0.111700
     34 H122        6.5110   -3.3010   -3.6040 hx        1 M68      0.111700
     35 H111        7.8980   -2.4140   -5.5100 hc        1 M68      0.083700
     36 H112        6.4220   -2.2640   -6.5550 hc        1 M68      0.083700
     37 H07         4.9210   -4.4090   -6.7390 ha        1 M68      0.155000
     38 H09         9.1320   -4.3950   -5.6930 ha        1 M68      0.170000
     39 H06         5.1040   -6.7450   -7.5770 ha        1 M68      0.175000
     40 H04         6.4970   -8.7630   -8.0340 ha        1 M68      0.189000
     41 H03         8.7430   -9.8760   -7.9610 ha        1 M68      0.181000
     42 H021       10.9580   -9.6190   -6.4440 hn        1 M68      0.478800
     43 H022       11.3120   -8.9760   -7.9530 hn        1 M68      0.478800
     44 H132        6.6630   -0.8920   -3.8390 hn        1 M68      0.452300
     45 H023       11.7370   -8.1380   -6.5640 hn        1 M68      0.478800
@<TRIPOS>BOND
     1    1    2 1   
     2    2    3 ar  
     3    2    6 ar  
     4    3    4 ar  
     5    3   24 1   
     6    4    5 ar  
     7    4   26 1   
     8    5    7 ar  
     9    5   27 1   
    10    6    7 ar  
    11    6   25 1   
    12    7    8 1   
    13    8    9 1   
    14    8   28 1   
    15    8   29 1   
    16    9   10 1   
    17    9   30 1   
    18    9   31 1   
    19   10   11 1   
    20   10   32 1   
    21   10   44 1   
    22   11   12 1   
    23   11   33 1   
    24   11   34 1   
    25   12   13 1   
    26   12   35 1   
    27   12   36 1   
    28   13   14 ar  
    29   13   16 ar  
    30   14   15 ar  
    31   14   37 1   
    32   15   19 ar  
    33   15   39 1   
    34   16   17 ar  
    35   16   38 1   
    36   17   18 ar  
    37   17   19 ar  
    38   18   22 ar  
    39   19   20 ar  
    40   20   21 ar  
    41   20   40 1   
    42   21   22 ar  
    43   21   41 1   
    44   22   23 1   
    45   23   42 1   
    46   23   43 1   
    47   23   45 1   
@<TRIPOS>SUBSTRUCTURE
     1 M68         1 TEMP              0 ****  ****    0 ROOT
