@<TRIPOS>MOLECULE
M6D
   27    27     1     0     0
SMALL
bcc


@<TRIPOS>ATOM
      1 C1          2.3530   -1.5650    0.9980 c3        1 M6D      0.320900
      2 C2          3.4380   -0.5950    0.4760 c3        1 M6D      0.099100
      3 C3          2.8370    0.8060    0.4410 c3        1 M6D      0.017100
      4 C4          1.4900    0.8560   -0.3860 c3        1 M6D      0.371800
      5 C5          0.5430   -0.1810    0.2800 c3        1 M6D      0.053100
      6 C6         -0.7760   -0.3220   -0.4920 c3        1 M6D      0.198400
      7 O1          2.7410   -2.9090    0.8230 oh        1 M6D     -0.624800
      8 O2          3.9150   -1.0570   -0.7780 oh        1 M6D     -0.628800
      9 O3          3.7760    1.7110   -0.1180 oh        1 M6D     -0.647800
     10 O4          1.0320    2.0850   -0.4480 o         1 M6D     -0.866500
     11 O5          1.1520   -1.4940    0.2610 os        1 M6D     -0.467600
     12 O6         -1.8640   -0.2140    0.3740 os        1 M6D     -0.592200
     13 P          -2.9330    1.0170    0.0780 p5        1 M6D      1.438800
     14 O1P        -4.0440    0.8920    1.0470 o         1 M6D     -0.858000
     15 O2P        -1.9840    2.2590    0.5100 oh        1 M6D     -0.812400
     16 O3P        -3.1430    1.0620   -1.3890 o         1 M6D     -0.858000
     17 H1          2.1740   -1.4230    2.0980 h2        1 M6D      0.048700
     18 H2          4.3390   -0.6440    1.1480 h1        1 M6D      0.038700
     19 H3          2.6310    1.1300    1.4980 h1        1 M6D      0.021700
     20 H4          1.7560    0.4190   -1.4120 h1        1 M6D     -0.098300
     21 H5          0.3370    0.1020    1.3460 h1        1 M6D      0.043700
     22 H6         -0.8290    0.4740   -1.2880 h1        1 M6D      0.035200
     23 H6A        -0.8070   -1.3390   -0.9790 h1        1 M6D      0.035200
     24 HO1         2.8310   -3.0430   -0.1300 ho        1 M6D      0.411000
     25 HO2         3.3400   -0.6730   -1.4520 ho        1 M6D      0.419000
     26 HO3         3.2330    2.3820   -0.5650 ho        1 M6D      0.428000
     27 HO4        -1.0940    2.2480    0.1520 ho        1 M6D      0.474000
@<TRIPOS>BOND
     1    1    2 1   
     2    1    7 1   
     3    1   11 1   
     4    1   17 1   
     5    2    3 1   
     6    2    8 1   
     7    2   18 1   
     8    3    4 1   
     9    3    9 1   
    10    3   19 1   
    11    4    5 1   
    12    4   10 1   
    13    4   20 1   
    14    5    6 1   
    15    5   11 1   
    16    5   21 1   
    17    6   12 1   
    18    6   22 1   
    19    6   23 1   
    20    7   24 1   
    21    8   25 1   
    22    9   26 1   
    23   12   13 1   
    24   13   14 1   
    25   13   15 1   
    26   13   16 1   
    27   15   27 1   
@<TRIPOS>SUBSTRUCTURE
     1 M6D         1 TEMP              0 ****  ****    0 ROOT
