@<TRIPOS>MOLECULE
M6D
   27    27     1     0     0
SMALL
bcc


@<TRIPOS>ATOM
      1 C1          0.1330   -0.3840   -0.0560 c3        1 M6D      0.320900
      2 C2          1.6620   -0.3800    0.1700 c3        1 M6D      0.099100
      3 C3          1.9220    0.0460    1.6110 c3        1 M6D      0.017100
      4 C4          1.2260    1.4220    1.9600 c3        1 M6D      0.371800
      5 C5         -0.2870    1.2210    1.6620 c3        1 M6D      0.053100
      6 C6         -1.0800    2.5220    1.8520 c3        1 M6D      0.198400
      7 O1         -0.1820   -0.5200   -1.4240 oh        1 M6D     -0.624800
      8 O2          2.2780    0.4480   -0.8040 oh        1 M6D     -0.628800
      9 O3          3.3190    0.1470    1.8310 oh        1 M6D     -0.647800
     10 O4          1.5180    1.7900    3.1860 o         1 M6D     -0.866500
     11 O5         -0.4750    0.8450    0.2770 os        1 M6D     -0.467600
     12 O6         -2.1980    2.3010    2.6570 os        1 M6D     -0.592200
     13 P          -2.2840    3.1680    4.0660 p5        1 M6D      1.438800
     14 O1P        -3.5790    2.8500    4.7110 o         1 M6D     -0.858000
     15 O2P        -1.0900    2.4250    4.8720 oh        1 M6D     -0.812400
     16 O3P        -1.8610    4.5520    3.7470 o         1 M6D     -0.858000
     17 H1         -0.3560   -1.2460    0.4730 h2        1 M6D      0.048700
     18 H2          2.0740   -1.4060   -0.0410 h1        1 M6D      0.038700
     19 H3          1.5210   -0.7520    2.2950 h1        1 M6D      0.021700
     20 H4          1.6030    2.1560    1.1630 h1        1 M6D     -0.098300
     21 H5         -0.7120    0.4120    2.3140 h1        1 M6D      0.043700
     22 H6         -0.4120    3.3010    2.3160 h1        1 M6D      0.035200
     23 H6A        -1.4320    2.8850    0.8440 h1        1 M6D      0.035200
     24 HO1         0.1850    0.2570   -1.8660 ho        1 M6D      0.411000
     25 HO2         2.2870    1.3430   -0.4410 ho        1 M6D      0.419000
     26 HO3         3.4120    0.8510    2.4960 ho        1 M6D      0.428000
     27 HO4        -0.2710    2.3060    4.3860 ho        1 M6D      0.474000
@<TRIPOS>BOND
     1    1    2 1   
     2    1    7 1   
     3    1   11 1   
     4    1   17 1   
     5    2    3 1   
     6    2    8 1   
     7    2   18 1   
     8    3    4 1   
     9    3    9 1   
    10    3   19 1   
    11    4    5 1   
    12    4   10 1   
    13    4   20 1   
    14    5    6 1   
    15    5   11 1   
    16    5   21 1   
    17    6   12 1   
    18    6   22 1   
    19    6   23 1   
    20    7   24 1   
    21    8   25 1   
    22    9   26 1   
    23   12   13 1   
    24   13   14 1   
    25   13   15 1   
    26   13   16 1   
    27   15   27 1   
@<TRIPOS>SUBSTRUCTURE
     1 M6D         1 TEMP              0 ****  ****    0 ROOT
