@<TRIPOS>MOLECULE
M6D
   27    27     1     0     0
SMALL
bcc


@<TRIPOS>ATOM
      1 C1          0.1000   -0.3650   -0.0700 c3        1 M6D      0.320900
      2 C2          1.6290   -0.4010    0.1610 c3        1 M6D      0.099100
      3 C3          1.8930    0.0070    1.6070 c3        1 M6D      0.017100
      4 C4          1.2290    1.3960    1.9650 c3        1 M6D      0.371800
      5 C5         -0.2870    1.2350    1.6600 c3        1 M6D      0.053100
      6 C6         -1.0490    2.5530    1.8580 c3        1 M6D      0.198400
      7 O1         -0.2120   -0.4820   -1.4400 oh        1 M6D     -0.624800
      8 O2          2.2680    0.4200   -0.8030 oh        1 M6D     -0.628800
      9 O3          3.2920    0.0720    1.8330 oh        1 M6D     -0.647800
     10 O4          1.5260    1.7470    3.1950 o         1 M6D     -0.866500
     11 O5         -0.4790    0.8750    0.2720 os        1 M6D     -0.467600
     12 O6         -2.1750    2.3520    2.6580 os        1 M6D     -0.592200
     13 P          -2.2460    3.2090    4.0730 p5        1 M6D      1.438800
     14 O1P        -3.5490    2.9180    4.7110 o         1 M6D     -0.858000
     15 O2P        -1.0720    2.4310    4.8770 oh        1 M6D     -0.812400
     16 O3P        -1.7880    4.5850    3.7680 o         1 M6D     -0.858000
     17 H1         -0.4110   -1.2200    0.4490 h2        1 M6D      0.048700
     18 H2          2.0160   -1.4340   -0.0570 h1        1 M6D      0.038700
     19 H3          1.4700   -0.7870    2.2820 h1        1 M6D      0.021700
     20 H4          1.6270    2.1270    1.1760 h1        1 M6D     -0.098300
     21 H5         -0.7340    0.4310    2.3030 h1        1 M6D      0.043700
     22 H6         -1.3890    2.9320    0.8520 h1        1 M6D      0.035200
     23 H6A        -0.3640    3.3110    2.3320 h1        1 M6D      0.035200
     24 HO1         0.1760    0.2900   -1.8740 ho        1 M6D      0.411000
     25 HO2         2.2980    1.3120   -0.4320 ho        1 M6D      0.419000
     26 HO3         3.3990    0.7670    2.5040 ho        1 M6D      0.428000
     27 HO4        -0.2550    2.2960    4.3930 ho        1 M6D      0.474000
@<TRIPOS>BOND
     1    1    2 1   
     2    1    7 1   
     3    1   11 1   
     4    1   17 1   
     5    2    3 1   
     6    2    8 1   
     7    2   18 1   
     8    3    4 1   
     9    3    9 1   
    10    3   19 1   
    11    4    5 1   
    12    4   10 1   
    13    4   20 1   
    14    5    6 1   
    15    5   11 1   
    16    5   21 1   
    17    6   12 1   
    18    6   22 1   
    19    6   23 1   
    20    7   24 1   
    21    8   25 1   
    22    9   26 1   
    23   12   13 1   
    24   13   14 1   
    25   13   15 1   
    26   13   16 1   
    27   15   27 1   
@<TRIPOS>SUBSTRUCTURE
     1 M6D         1 TEMP              0 ****  ****    0 ROOT
