@<TRIPOS>MOLECULE
M6P
   27    27     1     0     0
SMALL
bcc


@<TRIPOS>ATOM
      1 C1         -1.6430    0.0760   -1.6540 c3        1 M6P      0.338900
      2 C2         -0.9510   -0.1380   -3.0270 c3        1 M6P      0.072100
      3 C3          0.4800   -0.6780   -2.8780 c3        1 M6P      0.067100
      4 C4          1.2620    0.0640   -1.7690 c3        1 M6P      0.094100
      5 C5          0.4190   -0.0240   -0.4850 c3        1 M6P      0.087100
      6 C6          0.9840    0.5630    0.8390 c3        1 M6P      0.247400
      7 O1         -2.0440   -1.1400   -1.1100 oh        1 M6P     -0.695800
      8 O2         -0.9080    1.0990   -3.7320 oh        1 M6P     -0.637800
      9 O3          1.1870   -0.5940   -4.1090 oh        1 M6P     -0.631800
     10 O4          2.5290   -0.5330   -1.5720 oh        1 M6P     -0.573800
     11 O5         -0.7660    0.7360   -0.7730 os        1 M6P     -0.424600
     12 O6          0.9010   -0.3480    1.8520 os        1 M6P     -0.559200
     13 P          -0.5780   -0.3020    2.7850 p5        1 M6P      1.339900
     14 O1P        -0.7040    1.1620    3.0930 o         1 M6P     -0.932167
     15 O2P        -1.5290   -0.8320    1.7280 o         1 M6P     -0.932167
     16 O3P        -0.2850   -1.2200    3.9320 o         1 M6P     -0.932167
     17 H1         -2.5210    0.7740   -1.7850 h2        1 M6P      0.042700
     18 H2         -1.5570   -0.8230   -3.6760 h1        1 M6P      0.070700
     19 H3          0.4460   -1.7760   -2.6360 h1        1 M6P      0.096700
     20 H4          1.4100    1.1380   -2.0780 h1        1 M6P      0.010700
     21 H5          0.1670   -1.1070   -0.3020 h1        1 M6P      0.099700
     22 H61         2.0650    0.8190    0.6430 h1        1 M6P      0.009700
     23 H62         0.4000    1.4950    1.0930 h1        1 M6P      0.009700
     24 HO1        -1.9670   -1.0790   -0.1120 ho        1 M6P      0.543000
     25 HO2        -0.6480    1.7700   -3.0860 ho        1 M6P      0.413000
     26 HO3         1.0240    0.2890   -4.4630 ho        1 M6P      0.399000
     27 HO4         2.8780   -0.7100   -2.4560 ho        1 M6P      0.378000
@<TRIPOS>BOND
     1    1    2 1   
     2    1    7 1   
     3    1   11 1   
     4    1   17 1   
     5    2    3 1   
     6    2    8 1   
     7    2   18 1   
     8    3    4 1   
     9    3    9 1   
    10    3   19 1   
    11    4    5 1   
    12    4   10 1   
    13    4   20 1   
    14    5    6 1   
    15    5   11 1   
    16    5   21 1   
    17    6   12 1   
    18    6   22 1   
    19    6   23 1   
    20    7   24 1   
    21    8   25 1   
    22    9   26 1   
    23   10   27 1   
    24   12   13 1   
    25   13   14 1   
    26   13   15 1   
    27   13   16 1   
@<TRIPOS>SUBSTRUCTURE
     1 M6P         1 TEMP              0 ****  ****    0 ROOT
