@<TRIPOS>MOLECULE
M6R
   30    29     1     0     0
SMALL
bcc


@<TRIPOS>ATOM
      1 O61         2.8700   -1.5530   -1.8210 o         1 M6R     -0.926500
      2 P6          1.5790   -1.2760   -1.1210 p5        1 M6R      1.333900
      3 O62         0.3080   -1.1520   -1.9290 o         1 M6R     -0.926500
      4 O63         1.3310   -1.9580    0.2070 o         1 M6R     -0.926500
      5 O6          1.6900    0.3920   -0.6310 os        1 M6R     -0.580200
      6 C6          1.4040    0.6910    0.6760 c3        1 M6R      0.190400
      7 C5         -0.0770    1.1190    0.8580 c3        1 M6R      0.089100
      8 O5         -0.4610    2.0270   -0.1650 oh        1 M6R     -0.658800
      9 C4         -0.9810   -0.1280    0.8210 c3        1 M6R      0.058100
     10 O4         -0.7460   -0.9210    1.9750 oh        1 M6R     -0.673800
     11 C3         -2.4730    0.2250    0.7620 c3        1 M6R      0.120100
     12 O3         -3.2210   -0.3340    1.8330 oh        1 M6R     -0.638800
     13 C2         -3.1000   -0.2410   -0.5850 c3        1 M6R      0.120500
     14 N2         -2.4140    0.1980   -1.7820 n3        1 M6R     -0.952800
     15 C1         -4.5710    0.2310   -0.5850 c3        1 M6R      0.135400
     16 O1         -5.3380   -0.3330   -1.6350 oh        1 M6R     -0.645800
     17 H61         1.6160   -0.1810    1.3550 h1        1 M6R      0.002700
     18 H62         2.0390    1.5720    0.9900 h1        1 M6R      0.002700
     19 H5         -0.2160    1.6750    1.8220 h1        1 M6R      0.020700
     20 HO5        -0.0040    1.7310   -0.9700 ho        1 M6R      0.440000
     21 H4         -0.6650   -0.7290   -0.1000 h1        1 M6R      0.146700
     22 HO4        -0.0200   -1.5300    1.7210 ho        1 M6R      0.478000
     23 H3         -2.6090    1.3390    0.8670 h1        1 M6R      0.054700
     24 HO3        -2.7970   -1.1670    2.0770 ho        1 M6R      0.416000
     25 H2         -3.1110   -1.3710   -0.5790 h1        1 M6R      0.057700
     26 HN21       -2.0420    1.1190   -1.6390 hn        1 M6R      0.396300
     27 HN22       -1.6390   -0.4210   -2.0010 hn        1 M6R      0.396300
     28 H11        -5.0710   -0.1080    0.3610 h1        1 M6R      0.027200
     29 H12        -4.6280    1.3500   -0.6570 h1        1 M6R      0.027200
     30 HO1        -4.7700   -0.3750   -2.4140 ho        1 M6R      0.416000
@<TRIPOS>BOND
     1    1    2 1   
     2    2    3 1   
     3    2    4 1   
     4    2    5 1   
     5    5    6 1   
     6    6    7 1   
     7    6   17 1   
     8    6   18 1   
     9    7    8 1   
    10    7    9 1   
    11    7   19 1   
    12    8   20 1   
    13    9   10 1   
    14    9   11 1   
    15    9   21 1   
    16   10   22 1   
    17   11   12 1   
    18   11   13 1   
    19   11   23 1   
    20   12   24 1   
    21   13   14 1   
    22   13   15 1   
    23   13   25 1   
    24   14   26 1   
    25   14   27 1   
    26   15   16 1   
    27   15   28 1   
    28   15   29 1   
    29   16   30 1   
@<TRIPOS>SUBSTRUCTURE
     1 M6R         1 TEMP              0 ****  ****    0 ROOT
