@<TRIPOS>MOLECULE
M6R
   30    29     1     0     0
SMALL
bcc


@<TRIPOS>ATOM
      1 O61        -2.8470   -4.1370    2.4020 o         1 M6R     -0.733500
      2 P6         -2.9470   -4.1000    0.8830 p5        1 M6R      1.347900
      3 O62        -1.9430   -5.1320    0.2670 o         1 M6R     -0.733500
      4 O63        -4.3400   -4.4510    0.4660 o         1 M6R     -0.733500
      5 O6         -2.5900   -2.6490    0.3710 os        1 M6R     -0.609200
      6 C6         -1.3130   -2.1590    0.6220 c3        1 M6R      0.164400
      7 C5         -1.0960   -0.8520   -0.1640 c3        1 M6R      0.065100
      8 O5         -2.1240    0.0180    0.1080 oh        1 M6R     -0.659800
      9 C4          0.2410   -0.2190    0.2500 c3        1 M6R      0.289100
     10 O4          1.2410   -1.1700    0.1790 oh        1 M6R     -0.994800
     11 C3          0.5680    0.9230   -0.6790 c3        1 M6R      0.054100
     12 O3          1.2290    0.4200   -1.8340 oh        1 M6R     -0.673800
     13 C2          1.4670    1.9090    0.0250 c3        1 M6R      0.113500
     14 N2          0.6620    2.8060    0.8370 n3        1 M6R     -0.915800
     15 C1          2.2260    2.7050   -0.9840 c3        1 M6R      0.136400
     16 O1          3.1030    3.6280   -0.3080 oh        1 M6R     -0.646800
     17 H61        -0.6660   -2.8050    0.3480 h1        1 M6R      0.034200
     18 H62        -1.2110   -1.9800    1.6030 h1        1 M6R      0.034200
     19 H5         -1.0810   -1.0430   -1.1030 h1        1 M6R      0.019700
     20 HO5        -2.7130    0.0020   -0.5680 ho        1 M6R      0.406000
     21 H4          0.1720    0.1290    1.1990 h1        1 M6R     -0.084300
     22 HO4         1.7220   -1.1540    0.9370 ho        1 M6R      0.426000
     23 H3         -0.2640    1.3740   -0.9490 h1        1 M6R      0.021700
     24 HO3         0.7680    0.6590   -2.5730 ho        1 M6R      0.438000
     25 H2          2.0950    1.4270    0.5990 h1        1 M6R      0.052700
     26 HN21        1.0550    2.9190    1.6420 hn        1 M6R      0.351300
     27 HN22        0.5900    3.6100    0.4190 hn        1 M6R      0.351300
     28 H11         2.7540    2.1030   -1.5460 h1        1 M6R      0.037700
     29 H12         1.5920    3.2060   -1.5480 h1        1 M6R      0.037700
     30 HO1         3.6480    4.0140   -0.9030 ho        1 M6R      0.403000
@<TRIPOS>BOND
     1    1    2 1   
     2    2    3 1   
     3    2    4 1   
     4    2    5 1   
     5    5    6 1   
     6    6    7 1   
     7    6   17 1   
     8    6   18 1   
     9    7    8 1   
    10    7    9 1   
    11    7   19 1   
    12    8   20 1   
    13    9   10 1   
    14    9   11 1   
    15    9   21 1   
    16   10   22 1   
    17   11   12 1   
    18   11   13 1   
    19   11   23 1   
    20   12   24 1   
    21   13   14 1   
    22   13   15 1   
    23   13   25 1   
    24   14   26 1   
    25   14   27 1   
    26   15   16 1   
    27   15   28 1   
    28   15   29 1   
    29   16   30 1   
@<TRIPOS>SUBSTRUCTURE
     1 M6R         1 TEMP              0 ****  ****    0 ROOT
