@<TRIPOS>MOLECULE
M6S
   70    72     1     0     0
SMALL
bcc


@<TRIPOS>ATOM
      1 C1         -0.0610   -0.2180   -0.0180 c3        1 M6S     -0.088700
      2 C2          1.4650   -0.2120   -0.0130 c3        1 M6S     -0.080400
      3 C3          1.9920   -0.4270    1.3940 c3        1 M6S     -0.081900
      4 C4          1.4490    0.6100    2.3530 c3        1 M6S     -0.089400
      5 C5         -0.0640    0.6310    2.3370 c3        1 M6S     -0.081900
      6 C6         -0.6060    0.8370    0.9340 c3        1 M6S     -0.080400
      7 N7         -2.0960   -0.1300   -1.5400 n4        1 M6S     -0.765000
      8 C8         -0.5770   -0.0630   -1.4660 c3        1 M6S      0.071500
      9 C9         -0.1610    1.3140   -2.0630 c         1 M6S      0.644100
     10 O0         -0.8090    2.3250   -1.7340 o         1 M6S     -0.552100
     11 N11         0.8260    1.3790   -3.0180 n         1 M6S     -0.444800
     12 C12         1.5620    2.6030   -3.3830 cy        1 M6S      0.016700
     13 C13         0.9440    3.4090   -4.5140 c         1 M6S      0.537100
     14 O14        -0.1820    3.3250   -4.9670 o         1 M6S     -0.369100
     15 N15         1.8630    4.4410   -5.1430 n4        1 M6S     -0.680800
     16 C16         1.1860    5.7730   -5.3420 c3        1 M6S      0.164100
     17 C17         2.0000    6.7180   -6.1670 ca        1 M6S     -0.149300
     18 C18         1.9020    6.6910   -7.5640 ca        1 M6S     -0.089000
     19 C19         2.5770    7.6390   -8.3350 ca        1 M6S     -0.080000
     20 C20         3.3530    8.6220   -7.7080 ca        1 M6S     -0.199900
     21 C21         3.4560    8.6520   -6.3130 ca        1 M6S     -0.080000
     22 C22         2.7810    7.7000   -5.5450 ca        1 M6S     -0.089000
     23 C23         4.1260    9.5900   -8.5300 ce        1 M6S      0.558800
     24 N24         5.2940    9.5030   -9.0330 n2        1 M6S     -0.658100
     25 N25         3.3810   10.8690   -8.7940 n4        1 M6S     -0.818600
     26 C26         2.7760    1.7110   -3.7880 cy        1 M6S     -0.104400
     27 C27         1.9530    0.4790   -3.3290 cy        1 M6S      0.080000
     28 C28        -2.6690   -1.3340   -0.8750 c3        1 M6S      0.028800
     29 C29        -4.1350   -1.5570   -1.2480 c         1 M6S      0.503100
     30 O30        -4.7180   -0.9390   -2.1270 o         1 M6S     -0.359100
     31 C10        -5.6710   -3.5030   -1.3760 c3        1 M6S      0.076100
     32 N2         -4.8810   -2.6010   -0.4830 n4        1 M6S     -0.649800
     33 H1         -0.3800   -1.2380    0.3490 hc        1 M6S      0.067700
     34 H21C        1.8370    0.7730   -0.3980 hc        1 M6S      0.044450
     35 H22C        1.8480   -1.0300   -0.6770 hc        1 M6S      0.044450
     36 H61C       -1.7260    0.7910    0.9740 hc        1 M6S      0.044450
     37 H62C       -0.3230    1.8620    0.5710 hc        1 M6S      0.044450
     38 H8         -0.1790   -0.9140   -2.0950 hx        1 M6S      0.123700
     39 H31C        3.1140   -0.3720    1.3740 hc        1 M6S      0.073950
     40 H32C        1.7170   -1.4560    1.7480 hc        1 M6S      0.073950
     41 H41C        1.8450    1.6240    2.0840 hc        1 M6S      0.077700
     42 H42C        1.8070    0.3790    3.3930 hc        1 M6S      0.077700
     43 H51C       -0.4580   -0.3330    2.7560 hc        1 M6S      0.073950
     44 H52C       -0.4350    1.4610    2.9960 hc        1 M6S      0.073950
     45 H7         -2.4620    0.7310   -1.0860 hn        1 M6S      0.486800
     46 H281       -2.5660   -1.2020    0.2480 hx        1 M6S      0.163200
     47 H282       -2.0710   -2.2470   -1.1870 hx        1 M6S      0.163200
     48 H12         1.7310    3.2970   -2.5110 h1        1 M6S      0.135700
     49 H271        2.3840   -0.0580   -2.4460 h1        1 M6S      0.104200
     50 H272        1.6930   -0.2470   -4.1400 h1        1 M6S      0.104200
     51 H261        3.6920    1.9000   -3.1830 hc        1 M6S      0.107700
     52 H262        3.0250    1.7100   -4.8710 hc        1 M6S      0.107700
     53 H15         2.7000    4.5650   -4.5640 hn        1 M6S      0.465800
     54 H161        0.1920    5.5730   -5.8470 hx        1 M6S      0.130200
     55 H162        0.9890    6.2070   -4.3180 hx        1 M6S      0.130200
     56 H18         1.2750    5.9380   -8.0710 ha        1 M6S      0.166500
     57 H22         2.8570    7.7490   -4.4460 ha        1 M6S      0.166500
     58 H19         2.4940    7.6020   -9.4360 ha        1 M6S      0.180500
     59 H21         4.0720    9.4170   -5.8070 ha        1 M6S      0.180500
     60 H24         5.8480    8.6820   -8.8980 hn        1 M6S      0.500400
     61 H251        2.5150   10.6530   -9.3000 hn        1 M6S      0.482467
     62 H252        3.9450   11.5260   -9.3600 hn        1 M6S      0.482467
     63 H2         -4.2370   -3.1650    0.0880 hn        1 M6S      0.489800
     64 H101       -4.9750   -4.1100   -2.0150 hx        1 M6S      0.140367
     65 H102       -6.2880   -4.1920   -0.7280 hx        1 M6S      0.140367
     66 H103       -6.3550   -2.8880   -2.0260 hx        1 M6S      0.140367
     67 H72        -2.3840   -0.1070   -2.5300 hn        1 M6S      0.486800
     68 H152        2.1620    4.0890   -6.0640 hn        1 M6S      0.465800
     69 H253        3.1520   11.3130   -7.8980 hn        1 M6S      0.482467
     70 H221       -5.5450   -2.1220    0.1550 hn        1 M6S      0.489800
@<TRIPOS>BOND
     1    1    2 1   
     2    1    6 1   
     3    1    8 1   
     4    1   33 1   
     5    2    3 1   
     6    2   34 1   
     7    2   35 1   
     8    3    4 1   
     9    3   39 1   
    10    3   40 1   
    11    4    5 1   
    12    4   41 1   
    13    4   42 1   
    14    5    6 1   
    15    5   43 1   
    16    5   44 1   
    17    6   36 1   
    18    6   37 1   
    19    7    8 1   
    20    7   28 1   
    21    7   45 1   
    22    7   67 1   
    23    8    9 1   
    24    8   38 1   
    25    9   10 2   
    26    9   11 1   
    27   11   12 1   
    28   11   27 1   
    29   12   13 1   
    30   12   26 1   
    31   12   48 1   
    32   13   14 2   
    33   13   15 1   
    34   15   16 1   
    35   15   53 1   
    36   15   68 1   
    37   16   17 1   
    38   16   54 1   
    39   16   55 1   
    40   17   18 ar  
    41   17   22 ar  
    42   18   19 ar  
    43   18   56 1   
    44   19   20 ar  
    45   19   58 1   
    46   20   21 ar  
    47   20   23 1   
    48   21   22 ar  
    49   21   59 1   
    50   22   57 1   
    51   23   24 2   
    52   23   25 1   
    53   24   60 1   
    54   25   61 1   
    55   25   62 1   
    56   25   69 1   
    57   26   27 1   
    58   26   51 1   
    59   26   52 1   
    60   27   49 1   
    61   27   50 1   
    62   28   29 1   
    63   28   46 1   
    64   28   47 1   
    65   29   30 2   
    66   29   32 1   
    67   31   32 1   
    68   31   64 1   
    69   31   65 1   
    70   31   66 1   
    71   32   63 1   
    72   32   70 1   
@<TRIPOS>SUBSTRUCTURE
     1 M6S         1 TEMP              0 ****  ****    0 ROOT
