@<TRIPOS>MOLECULE
M6S
   66    68     1     0     0
SMALL
bcc


@<TRIPOS>ATOM
      1 C1         -3.5570    1.1120   -0.0150 c3        1 M6S     -0.087700
      2 C2         -3.4130    2.3430    0.8670 c3        1 M6S     -0.081900
      3 C3         -4.1360    3.5340    0.2720 c3        1 M6S     -0.073400
      4 C4         -3.6550    3.8200   -1.1350 c3        1 M6S     -0.079400
      5 C5         -3.7960    2.5970   -2.0170 c3        1 M6S     -0.073400
      6 C6         -3.0790    1.3980   -1.4300 c3        1 M6S     -0.081900
      7 N7         -3.0430   -1.3900    0.0030 n3        1 M6S     -0.806200
      8 C8         -2.8490   -0.0960    0.6380 c3        1 M6S      0.126500
      9 C9         -1.3260    0.1620    0.7240 c         1 M6S      0.681100
     10 O0         -0.5960    0.1500   -0.2890 o         1 M6S     -0.619100
     11 N11        -0.7650    0.3290    1.9650 n         1 M6S     -0.474800
     12 C12         0.5650    0.8520    2.2980 cy        1 M6S      0.025700
     13 C13         1.7220   -0.1460    2.2610 c         1 M6S      0.661100
     14 O14         2.4890   -0.2510    3.2400 o         1 M6S     -0.624100
     15 N15         1.8660   -0.8940    1.1180 n         1 M6S     -0.548900
     16 C16         2.9800   -1.7820    0.9220 c3        1 M6S      0.133300
     17 C17         4.1780   -1.1530    0.2660 ca        1 M6S     -0.107300
     18 C18         4.9760   -0.2620    0.9910 ca        1 M6S     -0.123500
     19 C19         6.1040    0.3070    0.4040 ca        1 M6S     -0.104000
     20 C20         6.4440   -0.0210   -0.9130 ca        1 M6S     -0.139900
     21 C21         5.6440   -0.9040   -1.6440 ca        1 M6S     -0.104000
     22 C22         4.5130   -1.4670   -1.0540 ca        1 M6S     -0.123500
     23 C23         7.6620    0.5860   -1.5390 ce        1 M6S      0.650800
     24 N24         7.8100    1.8750   -1.4860 n2        1 M6S     -0.825100
     25 N25         8.5000   -0.3440   -2.1950 nh        1 M6S     -0.958800
     26 C26         0.0320    1.1800    3.7240 cy        1 M6S     -0.094400
     27 C27        -1.3550    0.6570    3.2620 cy        1 M6S      0.084000
     28 C28        -4.3710   -1.9360    0.0740 c3        1 M6S      0.105800
     29 C29        -5.3020   -1.6060   -1.1060 c         1 M6S      0.614100
     30 O30        -4.8460   -1.2620   -2.2150 o         1 M6S     -0.610100
     31 C10        -7.6280   -1.5440   -1.9210 c3        1 M6S      0.077300
     32 N2         -6.6570   -1.7320   -0.8910 n         1 M6S     -0.573900
     33 H1         -4.6550    0.8490   -0.0730 hc        1 M6S      0.051700
     34 H21C       -3.8300    2.1280    1.8860 hc        1 M6S      0.051700
     35 H22C       -2.3250    2.5900    0.9880 hc        1 M6S      0.051700
     36 H61C       -1.9730    1.5830   -1.4270 hc        1 M6S      0.051700
     37 H62C       -3.2740    0.5020   -2.0800 hc        1 M6S      0.051700
     38 H8         -3.2660   -0.1830    1.6890 h1        1 M6S      0.059700
     39 H31C       -5.2390    3.3320    0.2560 hc        1 M6S      0.040450
     40 H32C       -3.9670    4.4330    0.9190 hc        1 M6S      0.040450
     41 H41C       -4.2450    4.6680   -1.5690 hc        1 M6S      0.041200
     42 H42C       -2.5790    4.1380   -1.1060 hc        1 M6S      0.041200
     43 H51C       -4.8830    2.3550   -2.1490 hc        1 M6S      0.040450
     44 H52C       -3.3740    2.8150   -3.0330 hc        1 M6S      0.040450
     45 H7         -2.6990   -1.3770   -0.9440 hn        1 M6S      0.407800
     46 H281       -4.2520   -3.0600    0.0670 h1        1 M6S      0.070700
     47 H282       -4.8570   -1.6390    1.0450 h1        1 M6S      0.070700
     48 H12         0.8580    1.7470    1.6870 h1        1 M6S      0.087700
     49 H271       -2.1570    1.4350    3.2150 h1        1 M6S      0.057700
     50 H272       -1.7270   -0.2460    3.8030 h1        1 M6S      0.057700
     51 H261        0.5140    0.5820    4.5270 hc        1 M6S      0.080700
     52 H262        0.0580    2.2600    3.9760 hc        1 M6S      0.080700
     53 H15         1.3040   -0.6780    0.3220 hn        1 M6S      0.344500
     54 H161        3.2980   -2.1840    1.9290 h1        1 M6S      0.066700
     55 H162        2.6180   -2.6450    0.2910 h1        1 M6S      0.066700
     56 H18         4.6990   -0.0110    2.0290 ha        1 M6S      0.146000
     57 H22         3.8810   -2.1560   -1.6350 ha        1 M6S      0.146000
     58 H19         6.7200    1.0210    0.9720 ha        1 M6S      0.145500
     59 H21         5.8930   -1.1460   -2.6880 ha        1 M6S      0.145500
     60 H24         8.6330    2.2460   -1.9120 hn        1 M6S      0.381400
     61 H251        8.3840   -1.2900   -1.9170 hn        1 M6S      0.397300
     62 H252        9.4450   -0.0730   -2.3340 hn        1 M6S      0.397300
     63 H2         -6.9790   -2.0590   -0.0130 hn        1 M6S      0.307500
     64 H101       -8.1420   -2.5150   -2.1590 h1        1 M6S      0.045700
     65 H102       -8.4020   -0.8030   -1.5830 h1        1 M6S      0.045700
     66 H103       -7.1330   -1.1580   -2.8530 h1        1 M6S      0.045700
@<TRIPOS>BOND
     1    1    2 1   
     2    1    6 1   
     3    1    8 1   
     4    1   33 1   
     5    2    3 1   
     6    2   34 1   
     7    2   35 1   
     8    3    4 1   
     9    3   39 1   
    10    3   40 1   
    11    4    5 1   
    12    4   41 1   
    13    4   42 1   
    14    5    6 1   
    15    5   43 1   
    16    5   44 1   
    17    6   36 1   
    18    6   37 1   
    19    7    8 1   
    20    7   28 1   
    21    7   45 1   
    22    8    9 1   
    23    8   38 1   
    24    9   10 2   
    25    9   11 1   
    26   11   12 1   
    27   11   27 1   
    28   12   13 1   
    29   12   26 1   
    30   12   48 1   
    31   13   14 2   
    32   13   15 1   
    33   15   16 1   
    34   15   53 1   
    35   16   17 1   
    36   16   54 1   
    37   16   55 1   
    38   17   18 ar  
    39   17   22 ar  
    40   18   19 ar  
    41   18   56 1   
    42   19   20 ar  
    43   19   58 1   
    44   20   21 ar  
    45   20   23 1   
    46   21   22 ar  
    47   21   59 1   
    48   22   57 1   
    49   23   24 2   
    50   23   25 1   
    51   24   60 1   
    52   25   61 1   
    53   25   62 1   
    54   26   27 1   
    55   26   51 1   
    56   26   52 1   
    57   27   49 1   
    58   27   50 1   
    59   28   29 1   
    60   28   46 1   
    61   28   47 1   
    62   29   30 2   
    63   29   32 1   
    64   31   32 1   
    65   31   64 1   
    66   31   65 1   
    67   31   66 1   
    68   32   63 1   
@<TRIPOS>SUBSTRUCTURE
     1 M6S         1 TEMP              0 ****  ****    0 ROOT
