@<TRIPOS>MOLECULE
M6S
   70    72     1     0     0
SMALL
bcc


@<TRIPOS>ATOM
      1 C1         -0.0600   -0.2260   -0.0150 c3        1 M6S     -0.088700
      2 C2          1.4660   -0.2230   -0.0130 c3        1 M6S     -0.080400
      3 C3          1.9960   -0.4440    1.3920 c3        1 M6S     -0.081900
      4 C4          1.4570    0.5900    2.3550 c3        1 M6S     -0.089400
      5 C5         -0.0560    0.6150    2.3430 c3        1 M6S     -0.081900
      6 C6         -0.6000    0.8270    0.9420 c3        1 M6S     -0.080400
      7 N7         -2.0980   -0.1290   -1.5320 n4        1 M6S     -0.765000
      8 C8         -0.5790   -0.0650   -1.4610 c3        1 M6S      0.071500
      9 C9         -0.1620    1.3130   -2.0540 c         1 M6S      0.644100
     10 O0         -0.8070    2.3240   -1.7210 o         1 M6S     -0.553100
     11 N11         0.8250    1.3800   -3.0100 n         1 M6S     -0.444800
     12 C12         1.5620    2.6040   -3.3710 cy        1 M6S      0.016700
     13 C13         0.9450    3.4150   -4.4990 c         1 M6S      0.537100
     14 O14        -0.1780    3.3250   -4.9610 o         1 M6S     -0.368100
     15 N15         1.8600    4.4600   -5.1120 n4        1 M6S     -0.680800
     16 C16         1.1530    5.7610   -5.3900 c3        1 M6S      0.164100
     17 C17         1.9830    6.7130   -6.1890 ca        1 M6S     -0.149300
     18 C18         1.9700    6.6510   -7.5890 ca        1 M6S     -0.089000
     19 C19         2.6580    7.6040   -8.3420 ca        1 M6S     -0.079500
     20 C20         3.3630    8.6260   -7.6950 ca        1 M6S     -0.199900
     21 C21         3.3820    8.6910   -6.2970 ca        1 M6S     -0.079500
     22 C22         2.6940    7.7340   -5.5480 ca        1 M6S     -0.089000
     23 C23         4.1510    9.6020   -8.4940 ce        1 M6S      0.558800
     24 N24         5.3530    9.5490   -8.9140 n2        1 M6S     -0.658100
     25 N25         3.3760   10.8410   -8.8450 n4        1 M6S     -0.818600
     26 C26         2.7740    1.7110   -3.7830 cy        1 M6S     -0.104400
     27 C27         1.9490    0.4790   -3.3270 cy        1 M6S      0.080000
     28 C28        -2.6710   -1.3340   -0.8700 c3        1 M6S      0.028800
     29 C29        -4.1390   -1.5530   -1.2400 c         1 M6S      0.503100
     30 O30        -4.7220   -0.9310   -2.1160 o         1 M6S     -0.359100
     31 C10        -5.6850   -3.4910   -1.3700 c3        1 M6S      0.076100
     32 N2         -4.8850   -2.5980   -0.4760 n4        1 M6S     -0.649800
     33 H1         -0.3800   -1.2460    0.3500 hc        1 M6S      0.067700
     34 H21C        1.8400    0.7620   -0.3960 hc        1 M6S      0.044450
     35 H22C        1.8460   -1.0400   -0.6810 hc        1 M6S      0.044450
     36 H61C       -1.7210    0.7830    0.9840 hc        1 M6S      0.044450
     37 H62C       -0.3160    1.8520    0.5820 hc        1 M6S      0.044450
     38 H8         -0.1830   -0.9150   -2.0940 hx        1 M6S      0.123700
     39 H31C        1.7190   -1.4740    1.7430 hc        1 M6S      0.073950
     40 H32C        3.1180   -0.3920    1.3700 hc        1 M6S      0.073950
     41 H41C        1.8170    0.3550    3.3940 hc        1 M6S      0.077700
     42 H42C        1.8550    1.6050    2.0890 hc        1 M6S      0.077700
     43 H51C       -0.4510   -0.3490    2.7590 hc        1 M6S      0.073950
     44 H52C       -0.4240    1.4440    3.0060 hc        1 M6S      0.073950
     45 H7         -2.3880   -0.1020   -2.5220 hn        1 M6S      0.486800
     46 H281       -2.0770   -2.2470   -1.1870 hx        1 M6S      0.163200
     47 H282       -2.5660   -1.2060    0.2540 hx        1 M6S      0.163200
     48 H12         1.7340    3.2940   -2.4970 h1        1 M6S      0.135700
     49 H271        2.3800   -0.0630   -2.4480 h1        1 M6S      0.104200
     50 H272        1.6860   -0.2430   -4.1410 h1        1 M6S      0.104200
     51 H261        3.6920    1.8950   -3.1790 hc        1 M6S      0.107700
     52 H262        3.0210    1.7140   -4.8660 hc        1 M6S      0.107700
     53 H15         2.6600    4.6310   -4.4930 hn        1 M6S      0.465300
     54 H161        0.8760    6.2140   -4.3930 hx        1 M6S      0.130200
     55 H162        0.1990    5.5130   -5.9490 hx        1 M6S      0.130200
     56 H18         1.3980    5.8660   -8.1130 ha        1 M6S      0.166500
     57 H22         2.7030    7.8110   -4.4470 ha        1 M6S      0.166500
     58 H19         2.6410    7.5390   -9.4450 ha        1 M6S      0.180000
     59 H21         3.9420    9.4870   -5.7760 ha        1 M6S      0.180000
     60 H24         5.9280    8.7550   -8.7180 hn        1 M6S      0.500400
     61 H251        3.9500   11.5030   -9.3950 hn        1 M6S      0.482467
     62 H252        3.0740   11.3020   -7.9800 hn        1 M6S      0.482467
     63 H2         -5.5430   -2.1190    0.1690 hn        1 M6S      0.489800
     64 H101       -6.3010   -4.1810   -0.7220 hx        1 M6S      0.140367
     65 H102       -6.3700   -2.8690   -2.0120 hx        1 M6S      0.140367
     66 H103       -4.9960   -4.0970   -2.0180 hx        1 M6S      0.140367
     67 H72        -2.4610    0.7310   -1.0740 hn        1 M6S      0.486800
     68 H152        2.2220    4.0890   -6.0020 hn        1 M6S      0.465300
     69 H253        2.5540   10.5750   -9.3980 hn        1 M6S      0.482467
     70 H221       -4.2400   -3.1680    0.0870 hn        1 M6S      0.489800
@<TRIPOS>BOND
     1    1    2 1   
     2    1    6 1   
     3    1    8 1   
     4    1   33 1   
     5    2    3 1   
     6    2   34 1   
     7    2   35 1   
     8    3    4 1   
     9    3   39 1   
    10    3   40 1   
    11    4    5 1   
    12    4   41 1   
    13    4   42 1   
    14    5    6 1   
    15    5   43 1   
    16    5   44 1   
    17    6   36 1   
    18    6   37 1   
    19    7    8 1   
    20    7   28 1   
    21    7   45 1   
    22    7   67 1   
    23    8    9 1   
    24    8   38 1   
    25    9   10 2   
    26    9   11 1   
    27   11   12 1   
    28   11   27 1   
    29   12   13 1   
    30   12   26 1   
    31   12   48 1   
    32   13   14 2   
    33   13   15 1   
    34   15   16 1   
    35   15   53 1   
    36   15   68 1   
    37   16   17 1   
    38   16   54 1   
    39   16   55 1   
    40   17   18 ar  
    41   17   22 ar  
    42   18   19 ar  
    43   18   56 1   
    44   19   20 ar  
    45   19   58 1   
    46   20   21 ar  
    47   20   23 1   
    48   21   22 ar  
    49   21   59 1   
    50   22   57 1   
    51   23   24 2   
    52   23   25 1   
    53   24   60 1   
    54   25   61 1   
    55   25   62 1   
    56   25   69 1   
    57   26   27 1   
    58   26   51 1   
    59   26   52 1   
    60   27   49 1   
    61   27   50 1   
    62   28   29 1   
    63   28   46 1   
    64   28   47 1   
    65   29   30 2   
    66   29   32 1   
    67   31   32 1   
    68   31   64 1   
    69   31   65 1   
    70   31   66 1   
    71   32   63 1   
    72   32   70 1   
@<TRIPOS>SUBSTRUCTURE
     1 M6S         1 TEMP              0 ****  ****    0 ROOT
