@<TRIPOS>MOLECULE
M6S
   70    72     1     0     0
SMALL
bcc


@<TRIPOS>ATOM
      1 C1         -0.0650   -0.2210   -0.0140 c3        1 M6S     -0.088700
      2 C2          1.4610   -0.2100   -0.0040 c3        1 M6S     -0.080400
      3 C3          1.9850   -0.4240    1.4050 c3        1 M6S     -0.081900
      4 C4          1.4360    0.6110    2.3610 c3        1 M6S     -0.089400
      5 C5         -0.0760    0.6290    2.3410 c3        1 M6S     -0.081900
      6 C6         -0.6150    0.8340    0.9360 c3        1 M6S     -0.080400
      7 N7         -2.0950   -0.1370   -1.5420 ny        1 M6S     -0.765000
      8 C8         -0.5760   -0.0660   -1.4640 c3        1 M6S      0.071500
      9 C9         -0.1620    1.3120   -2.0590 c         1 M6S      0.644100
     10 O0         -0.8130    2.3210   -1.7320 o         1 M6S     -0.552100
     11 N11         0.8280    1.3790   -3.0110 n         1 M6S     -0.444800
     12 C12         1.5620    2.6050   -3.3740 cy        1 M6S      0.016700
     13 C13         0.9470    3.4090   -4.5070 c         1 M6S      0.537100
     14 O14        -0.1770    3.3200   -4.9660 o         1 M6S     -0.369100
     15 N15         1.8650    4.4460   -5.1300 ny        1 M6S     -0.680800
     16 C16         1.1770    5.7680   -5.3520 c3        1 M6S      0.164100
     17 C17         1.9950    6.7160   -6.1690 ca        1 M6S     -0.149300
     18 C18         1.9230    6.6780   -7.5680 ca        1 M6S     -0.089000
     19 C19         2.6020    7.6280   -8.3340 ca        1 M6S     -0.079500
     20 C20         3.3560    8.6230   -7.7000 ca        1 M6S     -0.199900
     21 C21         3.4330    8.6640   -6.3030 ca        1 M6S     -0.079500
     22 C22         2.7550    7.7110   -5.5410 ca        1 M6S     -0.089000
     23 C23         4.1330    9.5940   -8.5150 ce        1 M6S      0.558800
     24 N24         5.3120    9.5180   -8.9920 n2        1 M6S     -0.658100
     25 N25         3.3770   10.8600   -8.8060 nz        1 M6S     -0.818600
     26 C26         2.7800    1.7150   -3.7750 cy        1 M6S     -0.104400
     27 C27         1.9580    0.4810   -3.3180 cy        1 M6S      0.080000
     28 C28        -2.6670   -1.3420   -0.8780 c3        1 M6S      0.028800
     29 C29        -4.1320   -1.5680   -1.2560 c         1 M6S      0.503100
     30 O30        -4.7130   -0.9520   -2.1370 o         1 M6S     -0.359100
     31 C10        -5.6640   -3.5170   -1.3890 c3        1 M6S      0.076100
     32 N2         -4.8780   -2.6140   -0.4930 ny        1 M6S     -0.649800
     33 H1         -0.3820   -1.2400    0.3520 hc        1 M6S      0.067700
     34 H21C        1.8480   -1.0280   -0.6670 hc        1 M6S      0.044450
     35 H22C        1.8330    0.7750   -0.3890 hc        1 M6S      0.044450
     36 H61C       -0.3320    1.8590    0.5750 hc        1 M6S      0.044450
     37 H62C       -1.7350    0.7850    0.9730 hc        1 M6S      0.044450
     38 H8         -0.1740   -0.9160   -2.0910 hx        1 M6S      0.123700
     39 H31C        1.7110   -1.4540    1.7570 hc        1 M6S      0.073950
     40 H32C        3.1070   -0.3670    1.3880 hc        1 M6S      0.073950
     41 H41C        1.8310    1.6260    2.0940 hc        1 M6S      0.077700
     42 H42C        1.7910    0.3810    3.4030 hc        1 M6S      0.077700
     43 H51C       -0.4700   -0.3360    2.7590 hc        1 M6S      0.073950
     44 H52C       -0.4520    1.4580    2.9990 hc        1 M6S      0.073950
     45 H7         -2.4640    0.7230   -1.0890 hn        1 M6S      0.486800
     46 H281       -2.0670   -2.2530   -1.1890 hx        1 M6S      0.163200
     47 H282       -2.5680   -1.2100    0.2450 hx        1 M6S      0.163200
     48 H12         1.7270    3.2990   -2.5010 h1        1 M6S      0.135700
     49 H271        2.3870   -0.0540   -2.4350 h1        1 M6S      0.104200
     50 H272        1.7030   -0.2450   -4.1310 h1        1 M6S      0.104200
     51 H261        3.0330    1.7140   -4.8570 hc        1 M6S      0.107700
     52 H262        3.6940    1.9060   -3.1670 hc        1 M6S      0.107700
     53 H15         2.6910    4.5840   -4.5390 hn        1 M6S      0.465300
     54 H161        0.1950    5.5540   -5.8730 hx        1 M6S      0.130200
     55 H162        0.9560    6.2080   -4.3350 hx        1 M6S      0.130200
     56 H18         1.3130    5.9150   -8.0800 ha        1 M6S      0.166500
     57 H22         2.8110    7.7680   -4.4410 ha        1 M6S      0.166500
     58 H19         2.5380    7.5820   -9.4350 ha        1 M6S      0.180000
     59 H21         4.0320    9.4390   -5.7920 ha        1 M6S      0.180000
     60 H24         5.8740    8.7050   -8.8380 hn        1 M6S      0.500400
     61 H251        3.9440   11.5190   -9.3670 hn        1 M6S      0.482467
     62 H252        3.1250   11.3100   -7.9190 hn        1 M6S      0.482467
     63 H2         -5.5440   -2.1360    0.1430 hn        1 M6S      0.489800
     64 H101       -6.2810   -4.2070   -0.7420 hx        1 M6S      0.140367
     65 H102       -4.9650   -4.1230   -2.0260 hx        1 M6S      0.140367
     66 H103       -6.3470   -2.9030   -2.0400 hx        1 M6S      0.140367
     67 H72        -2.3800   -0.1150   -2.5330 hn        1 M6S      0.486800
     68 H152        2.1830    4.0880   -6.0420 hn        1 M6S      0.465300
     69 H253        2.5240   10.6280   -9.3270 hn        1 M6S      0.482467
     70 H221       -4.2340   -3.1770    0.0790 hn        1 M6S      0.489800
@<TRIPOS>BOND
     1    1    2 1   
     2    1    6 1   
     3    1    8 1   
     4    1   33 1   
     5    2    3 1   
     6    2   34 1   
     7    2   35 1   
     8    3    4 1   
     9    3   39 1   
    10    3   40 1   
    11    4    5 1   
    12    4   41 1   
    13    4   42 1   
    14    5    6 1   
    15    5   43 1   
    16    5   44 1   
    17    6   36 1   
    18    6   37 1   
    19    7    8 1   
    20    7   28 1   
    21    7   45 1   
    22    7   67 1   
    23    8    9 1   
    24    8   38 1   
    25    9   10 2   
    26    9   11 1   
    27   11   12 1   
    28   11   27 1   
    29   12   13 1   
    30   12   26 1   
    31   12   48 1   
    32   13   14 2   
    33   13   15 1   
    34   15   16 1   
    35   15   53 1   
    36   15   68 1   
    37   16   17 1   
    38   16   54 1   
    39   16   55 1   
    40   17   18 ar  
    41   17   22 ar  
    42   18   19 ar  
    43   18   56 1   
    44   19   20 ar  
    45   19   58 1   
    46   20   21 ar  
    47   20   23 1   
    48   21   22 ar  
    49   21   59 1   
    50   22   57 1   
    51   23   24 2   
    52   23   25 1   
    53   24   60 1   
    54   25   61 1   
    55   25   62 1   
    56   25   69 1   
    57   26   27 1   
    58   26   51 1   
    59   26   52 1   
    60   27   49 1   
    61   27   50 1   
    62   28   29 1   
    63   28   46 1   
    64   28   47 1   
    65   29   30 2   
    66   29   32 1   
    67   31   32 1   
    68   31   64 1   
    69   31   65 1   
    70   31   66 1   
    71   32   63 1   
    72   32   70 1   
@<TRIPOS>SUBSTRUCTURE
     1 M6S         1 TEMP              0 ****  ****    0 ROOT
