@<TRIPOS>MOLECULE
M72
   25    25     1     0     0
SMALL
bcc


@<TRIPOS>ATOM
      1 O3         -0.1310   -0.9260   -1.4070 o         1 M72     -0.832300
      2 C           0.8290   -0.9810   -0.5870 c         1 M72      0.890600
      3 O           0.8020   -1.5530    0.5360 o         1 M72     -0.832300
      4 CA          2.1540   -0.2980   -1.0270 c3        1 M72     -0.004900
      5 OA          1.9360    0.6220   -2.0740 oh        1 M72     -0.621800
      6 CB          3.1740   -1.3970   -1.4120 c3        1 M72      0.163400
      7 CG          3.6770   -1.3160   -2.8210 ca        1 M72     -0.035300
      8 CD2         2.7590   -1.5050   -3.8660 ca        1 M72     -0.115000
      9 CE2         3.1900   -1.4800   -5.1900 ca        1 M72     -0.145500
     10 CZ          4.5360   -1.2650   -5.4860 ca        1 M72     -0.154000
     11 CE1         5.4490   -1.0680   -4.4520 ca        1 M72     -0.145500
     12 CD1         5.0230   -1.0910   -3.1240 ca        1 M72     -0.115000
     13 O1          4.3040   -1.3290   -0.5240 os        1 M72     -0.444600
     14 C1          4.0190   -1.8810    0.7530 c3        1 M72      0.101700
     15 H2          2.5800    0.3030   -0.1780 h1        1 M72      0.061700
     16 H3          1.1090    0.3600   -2.5110 ho        1 M72      0.420000
     17 H4          2.6780   -2.4050   -1.2800 h1        1 M72      0.060700
     18 H5          1.6940   -1.6520   -3.6210 ha        1 M72      0.150500
     19 H6          2.4650   -1.6260   -6.0030 ha        1 M72      0.113000
     20 H7          4.8740   -1.2470   -6.5310 ha        1 M72      0.108000
     21 H8          6.5090   -0.8900   -4.6820 ha        1 M72      0.113000
     22 H9          5.7420   -0.9310   -2.3060 ha        1 M72      0.150500
     23 H10         2.9700   -1.6500    1.0810 h1        1 M72      0.038367
     24 H11         4.1700   -2.9890    0.7140 h1        1 M72      0.038367
     25 H12         4.7670   -1.4150    1.4400 h1        1 M72      0.038367
@<TRIPOS>BOND
     1    1    2 1   
     2    2    3 1   
     3    2    4 1   
     4    4    5 1   
     5    4    6 1   
     6    4   15 1   
     7    5   16 1   
     8    6    7 1   
     9    6   13 1   
    10    6   17 1   
    11    7    8 ar  
    12    7   12 ar  
    13    8    9 ar  
    14    8   18 1   
    15    9   10 ar  
    16    9   19 1   
    17   10   11 ar  
    18   10   20 1   
    19   11   12 ar  
    20   11   21 1   
    21   12   22 1   
    22   13   14 1   
    23   14   23 1   
    24   14   24 1   
    25   14   25 1   
@<TRIPOS>SUBSTRUCTURE
     1 M72         1 TEMP              0 ****  ****    0 ROOT
