@<TRIPOS>MOLECULE
M72
   25    25     1     0     0
SMALL
bcc


@<TRIPOS>ATOM
      1 O3         -0.1280   -0.7790   -1.4590 o         1 M72     -0.832300
      2 C           0.8120   -0.9120   -0.6250 c         1 M72      0.890600
      3 O           0.7330   -1.5200    0.4770 o         1 M72     -0.832300
      4 CA          2.1790   -0.2840   -1.0160 c3        1 M72     -0.004900
      5 OA          2.0290    0.6820   -2.0330 oh        1 M72     -0.621800
      6 CB          3.1480   -1.4190   -1.4210 c3        1 M72      0.163400
      7 CG          3.6820   -1.3160   -2.8170 ca        1 M72     -0.035300
      8 CD2         2.7770   -1.4210   -3.8840 ca        1 M72     -0.115000
      9 CE2         3.2340   -1.3730   -5.1990 ca        1 M72     -0.145500
     10 CZ          4.5950   -1.2180   -5.4630 ca        1 M72     -0.154000
     11 CE1         5.4970   -1.1040   -4.4070 ca        1 M72     -0.145500
     12 CD1         5.0440   -1.1510   -3.0880 ca        1 M72     -0.115000
     13 O1          4.2630   -1.4410   -0.5110 os        1 M72     -0.444600
     14 C1          3.9250   -2.0210    0.7400 c3        1 M72      0.101700
     15 H2          2.6180    0.2650   -0.1380 h1        1 M72      0.061700
     16 H3          1.1980    0.4780   -2.4940 ho        1 M72      0.420000
     17 H4          2.5990   -2.4050   -1.3340 h1        1 M72      0.060700
     18 H5          1.7000   -1.5210   -3.6630 ha        1 M72      0.150500
     19 H6          2.5180   -1.4530   -6.0290 ha        1 M72      0.113000
     20 H7          4.9540   -1.1810   -6.5010 ha        1 M72      0.108000
     21 H8          6.5690   -0.9740   -4.6110 ha        1 M72      0.113000
     22 H9          5.7530   -1.0560   -2.2520 ha        1 M72      0.150500
     23 H10         2.8830   -1.7480    1.0570 h1        1 M72      0.038367
     24 H11         4.6820   -1.6180    1.4560 h1        1 M72      0.038367
     25 H12         4.0200   -3.1330    0.6650 h1        1 M72      0.038367
@<TRIPOS>BOND
     1    1    2 1   
     2    2    3 1   
     3    2    4 1   
     4    4    5 1   
     5    4    6 1   
     6    4   15 1   
     7    5   16 1   
     8    6    7 1   
     9    6   13 1   
    10    6   17 1   
    11    7    8 ar  
    12    7   12 ar  
    13    8    9 ar  
    14    8   18 1   
    15    9   10 ar  
    16    9   19 1   
    17   10   11 ar  
    18   10   20 1   
    19   11   12 ar  
    20   11   21 1   
    21   12   22 1   
    22   13   14 1   
    23   14   23 1   
    24   14   24 1   
    25   14   25 1   
@<TRIPOS>SUBSTRUCTURE
     1 M72         1 TEMP              0 ****  ****    0 ROOT
