@<TRIPOS>MOLECULE
M73
   79    80     1     0     0
SMALL
bcc


@<TRIPOS>ATOM
      1 O22        -2.5850    0.6580    1.7820 o         1 M73     -0.593000
      2 C21        -3.0000    0.5420    0.6160 c         1 M73      0.735100
      3 O23        -4.1960    1.1470    0.2770 os        1 M73     -0.449900
      4 C22        -4.9240    1.7100    1.3830 c3        1 M73      0.152400
      5 C23        -6.1610    2.3660    0.7740 c3        1 M73     -0.115700
      6 C24        -6.6490    3.4880    1.6670 c3        1 M73     -0.092100
      7 C25        -7.2600    1.3500    0.6050 c         1 M73      0.635100
      8 O26        -7.6220    0.4630    1.3800 o         1 M73     -0.537000
      9 O27        -7.9250    1.4840   -0.5830 os        1 M73     -0.436900
     10 C28        -8.9870    0.5620   -0.8320 c3        1 M73      0.124700
     11 N20        -2.4450   -0.1670   -0.4290 n         1 M73     -0.511900
     12 C19        -1.0650   -0.5980   -0.3420 c3        1 M73      0.077700
     13 C32        -0.8320   -1.8700   -1.1780 c3        1 M73     -0.044100
     14 C38        -1.5270   -3.0570   -0.6130 ca        1 M73     -0.077300
     15 C37        -2.5870   -3.6540   -1.3040 ca        1 M73     -0.122000
     16 C36        -3.2240   -4.7780   -0.7790 ca        1 M73     -0.125500
     17 C35        -2.8070   -5.3150    0.4380 ca        1 M73     -0.128000
     18 C34        -1.7500   -4.7250    1.1310 ca        1 M73     -0.125500
     19 C33        -1.1120   -3.6020    0.6090 ca        1 M73     -0.122000
     20 C17        -0.0720    0.5180   -0.7840 c3        1 M73      0.092100
     21 O18        -0.0220    0.6310   -2.1870 oh        1 M73     -0.601800
     22 C16         1.3000    0.2650   -0.1190 c3        1 M73      0.194800
     23 N11         2.3770    1.0860   -0.5990 n3        1 M73     -0.799500
     24 C12         2.3840    2.4650   -0.1870 c3        1 M73      0.218800
     25 C13         2.7080    2.7330    1.2940 c3        1 M73     -0.081700
     26 C14         4.1510    2.4060    1.6060 c3        1 M73     -0.096100
     27 C15         2.4030    4.1970    1.5930 c3        1 M73     -0.077400
     28 C18         2.3330    4.4780    3.0710 c3        1 M73     -0.093100
     29 S8          3.4000    0.4940   -1.7320 sy        1 M73      1.513200
     30 O9          2.6620   -0.3750   -2.5780 o         1 M73     -0.659800
     31 O10         4.1080    1.5460   -2.3520 o         1 M73     -0.659800
     32 C5          4.4820   -0.4450   -0.8560 ca        1 M73     -0.424500
     33 C4          4.2350   -1.8110   -0.6370 ca        1 M73      0.019500
     34 C3          5.1370   -2.6100    0.0450 ca        1 M73     -0.211000
     35 C6          5.6800    0.0980   -0.3750 ca        1 M73      0.019500
     36 C7          6.6070   -0.6770    0.3110 ca        1 M73     -0.211000
     37 C2          6.3330   -2.0360    0.5250 ca        1 M73      0.192100
     38 O1          7.1640   -2.9030    1.1920 os        1 M73     -0.318900
     39 C1          8.3960   -2.3660    1.6700 c3        1 M73      0.109700
     40 H1         -5.1920    0.8920    2.1010 h1        1 M73      0.073700
     41 H2         -4.2770    2.4690    1.8950 h1        1 M73      0.073700
     42 H3         -5.8980    2.7770   -0.2430 hc        1 M73      0.101700
     43 H4         -6.8930    3.1020    2.6860 hc        1 M73      0.052033
     44 H5         -5.8580    4.2710    1.7590 hc        1 M73      0.052033
     45 H6         -7.5650    3.9550    1.2310 hc        1 M73      0.052033
     46 H7         -9.3610    0.8570   -1.8430 h1        1 M73      0.051367
     47 H8         -8.5920   -0.4830   -0.8300 h1        1 M73      0.051367
     48 H9         -9.7780    0.6730   -0.0530 h1        1 M73      0.051367
     49 H10        -2.8100   -0.0030   -1.3410 hn        1 M73      0.327500
     50 H11        -0.8570   -0.8340    0.7470 h1        1 M73      0.089700
     51 H12        -1.1610   -1.6920   -2.2380 hc        1 M73      0.062200
     52 H13         0.2740   -2.0680   -1.2070 hc        1 M73      0.062200
     53 H14        -2.9220   -3.2330   -2.2630 ha        1 M73      0.128500
     54 H15        -4.0580   -5.2390   -1.3280 ha        1 M73      0.131500
     55 H16        -3.3110   -6.2000    0.8520 ha        1 M73      0.132000
     56 H17        -1.4210   -5.1440    2.0930 ha        1 M73      0.131500
     57 H18        -0.2800   -3.1380    1.1600 ha        1 M73      0.128500
     58 H19        -0.4570    1.5250   -0.4450 h1        1 M73      0.082700
     59 H20         0.5140   -0.0980   -2.5370 ho        1 M73      0.431000
     60 H21         1.1660    0.4220    0.9900 h1        1 M73      0.057700
     61 H22         1.5920   -0.8150   -0.2810 h1        1 M73      0.057700
     62 H23         3.1380    3.0210   -0.8190 h1        1 M73      0.062700
     63 H24         1.3650    2.9030   -0.4060 h1        1 M73      0.062700
     64 H25         2.0450    2.0950    1.9420 hc        1 M73      0.055700
     65 H26         4.3590    1.3250    1.4190 hc        1 M73      0.036700
     66 H27         4.8400    3.0140    0.9700 hc        1 M73      0.036700
     67 H28         4.3750    2.6250    2.6780 hc        1 M73      0.036700
     68 H29         3.1890    4.8430    1.1200 hc        1 M73      0.042700
     69 H30         1.4200    4.4740    1.1250 hc        1 M73      0.042700
     70 H31         2.0580    5.5470    3.2450 hc        1 M73      0.035367
     71 H32         1.5640    3.8330    3.5620 hc        1 M73      0.035367
     72 H33         3.3170    4.2860    3.5630 hc        1 M73      0.035367
     73 H34         3.3080   -2.2590   -1.0390 ha        1 M73      0.153500
     74 H35         4.9440   -3.6790    0.2130 ha        1 M73      0.153500
     75 H36         5.8960    1.1670   -0.5580 ha        1 M73      0.153500
     76 H37         7.5400   -0.2240    0.6720 ha        1 M73      0.153500
     77 H38         8.8880   -3.2470    2.1550 h1        1 M73      0.051700
     78 H39         9.0130   -1.9850    0.8210 h1        1 M73      0.051700
     79 H40         8.2070   -1.5580    2.4160 h1        1 M73      0.051700
@<TRIPOS>BOND
     1    1    2 2   
     2    2    3 1   
     3    2   11 1   
     4    3    4 1   
     5    4    5 1   
     6    4   40 1   
     7    4   41 1   
     8    5    6 1   
     9    5    7 1   
    10    5   42 1   
    11    6   43 1   
    12    6   44 1   
    13    6   45 1   
    14    7    8 2   
    15    7    9 1   
    16    9   10 1   
    17   10   46 1   
    18   10   47 1   
    19   10   48 1   
    20   11   12 1   
    21   11   49 1   
    22   12   13 1   
    23   12   20 1   
    24   12   50 1   
    25   13   14 1   
    26   13   51 1   
    27   13   52 1   
    28   14   15 ar  
    29   14   19 ar  
    30   15   16 ar  
    31   15   53 1   
    32   16   17 ar  
    33   16   54 1   
    34   17   18 ar  
    35   17   55 1   
    36   18   19 ar  
    37   18   56 1   
    38   19   57 1   
    39   20   21 1   
    40   20   22 1   
    41   20   58 1   
    42   21   59 1   
    43   22   23 1   
    44   22   60 1   
    45   22   61 1   
    46   23   24 1   
    47   23   29 1   
    48   24   25 1   
    49   24   62 1   
    50   24   63 1   
    51   25   26 1   
    52   25   27 1   
    53   25   64 1   
    54   26   65 1   
    55   26   66 1   
    56   26   67 1   
    57   27   28 1   
    58   27   68 1   
    59   27   69 1   
    60   28   70 1   
    61   28   71 1   
    62   28   72 1   
    63   29   30 2   
    64   29   31 2   
    65   29   32 1   
    66   32   33 ar  
    67   32   35 ar  
    68   33   34 ar  
    69   33   73 1   
    70   34   37 ar  
    71   34   74 1   
    72   35   36 ar  
    73   35   75 1   
    74   36   37 ar  
    75   36   76 1   
    76   37   38 1   
    77   38   39 1   
    78   39   77 1   
    79   39   78 1   
    80   39   79 1   
@<TRIPOS>SUBSTRUCTURE
     1 M73         1 TEMP              0 ****  ****    0 ROOT
