@<TRIPOS>MOLECULE
M73
   81    81     1     0     0
SMALL
bcc


@<TRIPOS>ATOM
      1 O22         1.0430   -1.9340   -0.7960 o         1 M73     -0.446000
      2 C21         1.9070   -1.1510   -0.4270 c         1 M73      0.660100
      3 O23         2.9970   -1.4690    0.3110 os        1 M73     -0.403900
      4 C22         2.8520   -2.5860    1.2290 c3        1 M73      0.149400
      5 C23         2.6210   -2.0610    2.6430 c3        1 M73     -0.140700
      6 C24         2.4460   -3.2330    3.5870 c3        1 M73     -0.100100
      7 C25         1.4550   -1.1100    2.6830 c         1 M73      0.666100
      8 O26         1.0570   -0.4020    1.7380 o         1 M73     -0.660000
      9 O27         0.8350   -1.0130    3.8750 os        1 M73     -0.385900
     10 C28        -0.2650   -0.0960    3.9830 c3        1 M73      0.121700
     11 N20         1.9480    0.2840   -0.8360 ny        1 M73     -0.629800
     12 C19         1.1030    0.5750   -2.0490 c3        1 M73      0.104500
     13 C32         0.9200    2.0900   -2.2200 c3        1 M73     -0.050100
     14 C38         0.4890    2.7610   -0.9660 ca        1 M73     -0.166300
     15 C37         1.4340    3.3930   -0.1460 ca        1 M73     -0.126500
     16 C36         1.0250    4.0700    1.0010 ca        1 M73     -0.110500
     17 C35        -0.3290    4.1200    1.3380 ca        1 M73     -0.093000
     18 C34        -1.2730    3.4910    0.5260 ca        1 M73     -0.110500
     19 C33        -0.8680    2.8150   -0.6240 ca        1 M73     -0.126500
     20 C17         1.7300   -0.0810   -3.3040 c3        1 M73      0.090100
     21 O18         3.0660    0.3390   -3.4820 oh        1 M73     -0.595800
     22 C16         0.8650    0.1880   -4.5480 c3        1 M73      0.097800
     23 N11         1.2640   -0.5450   -5.7420 n7        1 M73     -0.896200
     24 C12         0.9140   -1.9680   -5.7530 c3        1 M73      0.121800
     25 C13        -0.5830   -2.2900   -5.6010 c3        1 M73     -0.084700
     26 C14        -0.9350   -3.4380   -6.5270 c3        1 M73     -0.096100
     27 C15        -0.9150   -2.6550   -4.1580 c3        1 M73     -0.078400
     28 C18        -2.3730   -2.4400   -3.8430 c3        1 M73     -0.101100
     29 S8          0.3610    0.7790   -7.6560 s4        1 M73      1.691300
     30 O9         -0.9020    0.6690   -7.1680 o         1 M73     -0.446400
     31 O10         1.1900    1.7840   -7.2560 o         1 M73     -0.446400
     32 C5          0.7710   -0.0620   -8.8690 ca        1 M73     -0.691500
     33 C4         -0.1030   -1.0550   -9.4200 ca        1 M73      0.064000
     34 C3          0.2130   -1.7660  -10.5440 ca        1 M73     -0.214500
     35 C6          2.0110    0.1410   -9.5490 ca        1 M73      0.064000
     36 C7          2.3520   -0.5570  -10.6790 ca        1 M73     -0.214500
     37 C2          1.4560   -1.5240  -11.2050 ca        1 M73      0.305100
     38 O1          1.6740   -2.2600  -12.3060 os        1 M73     -0.262900
     39 C1          2.8930   -2.0510  -13.0420 c3        1 M73      0.096700
     40 H1          2.0300   -3.2690    0.8940 h1        1 M73      0.107700
     41 H2          3.8530   -3.0950    1.1540 h1        1 M73      0.107700
     42 H3          3.5200   -1.4560    2.9640 hc        1 M73      0.113700
     43 H4          3.3570   -3.8800    3.5660 hc        1 M73      0.071367
     44 H5          2.2950   -2.8590    4.6310 hc        1 M73      0.071367
     45 H6          1.5580   -3.8460    3.3010 hc        1 M73      0.071367
     46 H7          0.0920    0.9420    3.7830 h1        1 M73      0.068033
     47 H8         -1.0660   -0.3830    3.2610 h1        1 M73      0.068033
     48 H9         -0.5950   -0.2240    5.0450 h1        1 M73      0.068033
     49 H10         1.5890    0.8390   -0.0290 hn        1 M73      0.495300
     50 H11         0.0940    0.0920   -1.8620 hx        1 M73      0.134700
     51 H12         1.8760    2.5480   -2.5940 hc        1 M73      0.080200
     52 H13         0.1360    2.2370   -3.0130 hc        1 M73      0.080200
     53 H14         2.4980    3.3930   -0.4260 ha        1 M73      0.133500
     54 H15         1.7690    4.5790    1.6340 ha        1 M73      0.158500
     55 H16        -0.6530    4.6670    2.2390 ha        1 M73      0.162000
     56 H17        -2.3440    3.5390    0.7850 ha        1 M73      0.158500
     57 H18        -1.6190    2.3360   -1.2700 ha        1 M73      0.133500
     58 H19         1.8130   -1.1980   -3.1270 h1        1 M73      0.110700
     59 H20         3.0670    1.2280   -3.8640 ho        1 M73      0.427000
     60 H21        -0.2110   -0.0510   -4.3080 h1        1 M73      0.093700
     61 H22         0.9390    1.2870   -4.8040 h1        1 M73      0.093700
     62 H23         1.4830   -2.5260   -4.9540 h1        1 M73      0.064700
     63 H24         1.2770   -2.3620   -6.7480 h1        1 M73      0.064700
     64 H25        -1.2040   -1.3970   -5.8990 hc        1 M73      0.065700
     65 H26        -2.0030   -3.7310   -6.3810 hc        1 M73      0.049033
     66 H27        -0.7940   -3.1390   -7.5940 hc        1 M73      0.049033
     67 H28        -0.2940   -4.3290   -6.3190 hc        1 M73      0.049033
     68 H29        -0.6440   -3.7300   -3.9760 hc        1 M73      0.039700
     69 H30        -0.2920   -2.0410   -3.4540 hc        1 M73      0.039700
     70 H31        -2.6540   -1.3660   -3.9710 hc        1 M73      0.047700
     71 H32        -2.5860   -2.7400   -2.7880 hc        1 M73      0.047700
     72 H33        -3.0210   -3.0530   -4.5170 hc        1 M73      0.047700
     73 H34        -1.0740   -1.2360   -8.9160 ha        1 M73      0.173000
     74 H35        -0.4730   -2.5220  -10.9660 ha        1 M73      0.192500
     75 H36         2.7110    0.9020   -9.1490 ha        1 M73      0.173000
     76 H37         3.3150   -0.3650  -11.1830 ha        1 M73      0.192500
     77 H38         3.7730   -2.3060  -12.4040 h1        1 M73      0.083700
     78 H39         2.9420   -0.9990  -13.4120 h1        1 M73      0.083700
     79 H40         2.7860   -2.7760  -13.8930 h1        1 M73      0.083700
     80 H202        2.9230    0.5540   -1.0240 hn        1 M73      0.495300
     81 H111        2.2690   -0.4720   -5.8350 hn        1 M73      0.393800
@<TRIPOS>BOND
     1    1    2 2   
     2    2    3 1   
     3    2   11 1   
     4    3    4 1   
     5    4    5 1   
     6    4   40 1   
     7    4   41 1   
     8    5    6 1   
     9    5    7 1   
    10    5   42 1   
    11    6   43 1   
    12    6   44 1   
    13    6   45 1   
    14    7    8 2   
    15    7    9 1   
    16    9   10 1   
    17   10   46 1   
    18   10   47 1   
    19   10   48 1   
    20   11   12 1   
    21   11   49 1   
    22   11   80 1   
    23   12   13 1   
    24   12   20 1   
    25   12   50 1   
    26   13   14 1   
    27   13   51 1   
    28   13   52 1   
    29   14   15 ar  
    30   14   19 ar  
    31   15   16 ar  
    32   15   53 1   
    33   16   17 ar  
    34   16   54 1   
    35   17   18 ar  
    36   17   55 1   
    37   18   19 ar  
    38   18   56 1   
    39   19   57 1   
    40   20   21 1   
    41   20   22 1   
    42   20   58 1   
    43   21   59 1   
    44   22   23 1   
    45   22   60 1   
    46   22   61 1   
    47   23   24 1   
    48   23   81 1   
    49   24   25 1   
    50   24   62 1   
    51   24   63 1   
    52   25   26 1   
    53   25   27 1   
    54   25   64 1   
    55   26   65 1   
    56   26   66 1   
    57   26   67 1   
    58   27   28 1   
    59   27   68 1   
    60   27   69 1   
    61   28   70 1   
    62   28   71 1   
    63   28   72 1   
    64   29   30 1   
    65   29   31 1   
    66   29   32 1   
    67   32   33 ar  
    68   32   35 ar  
    69   33   34 ar  
    70   33   73 1   
    71   34   37 ar  
    72   34   74 1   
    73   35   36 ar  
    74   35   75 1   
    75   36   37 ar  
    76   36   76 1   
    77   37   38 1   
    78   38   39 1   
    79   39   77 1   
    80   39   78 1   
    81   39   79 1   
@<TRIPOS>SUBSTRUCTURE
     1 M73         1 TEMP              0 ****  ****    0 ROOT
