@<TRIPOS>MOLECULE
M73
   81    81     1     0     0
SMALL
bcc


@<TRIPOS>ATOM
      1 O22         1.0730   -1.9300   -0.7970 o         1 M73     -0.446000
      2 C21         1.9270   -1.1350   -0.4320 c         1 M73      0.660100
      3 O23         3.0250   -1.4380    0.3020 os        1 M73     -0.403900
      4 C22         2.9000   -2.5560    1.2210 c3        1 M73      0.149400
      5 C23         2.6680   -2.0340    2.6350 c3        1 M73     -0.140700
      6 C24         2.5140   -3.2080    3.5810 c3        1 M73     -0.100100
      7 C25         1.4890   -1.0990    2.6810 c         1 M73      0.666100
      8 O26         1.0770   -0.3970    1.7380 o         1 M73     -0.660000
      9 O27         0.8730   -1.0110    3.8760 os        1 M73     -0.385900
     10 C28        -0.2390   -0.1090    3.9880 c3        1 M73      0.121700
     11 N20         1.9470    0.3000   -0.8410 n4        1 M73     -0.629800
     12 C19         1.0930    0.5790   -2.0500 c3        1 M73      0.104500
     13 C32         0.8890    2.0910   -2.2200 c3        1 M73     -0.050100
     14 C38         0.4530    2.7560   -0.9640 ca        1 M73     -0.166300
     15 C37         1.3930    3.4020   -0.1490 ca        1 M73     -0.126500
     16 C36         0.9790    4.0730    0.9990 ca        1 M73     -0.110500
     17 C35        -0.3740    4.1040    1.3430 ca        1 M73     -0.093000
     18 C34        -1.3130    3.4620    0.5340 ca        1 M73     -0.110500
     19 C33        -0.9020    2.7910   -0.6170 ca        1 M73     -0.126500
     20 C17         1.7240   -0.0680   -3.3080 c3        1 M73      0.090100
     21 O18         3.0530    0.3700   -3.4910 oh        1 M73     -0.595800
     22 C16         0.8510    0.1880   -4.5480 c3        1 M73      0.097800
     23 N11         1.2550   -0.5390   -5.7430 n3        1 M73     -0.896200
     24 C12         0.9240   -1.9670   -5.7540 c3        1 M73      0.121800
     25 C13        -0.5670   -2.3090   -5.5950 c3        1 M73     -0.084700
     26 C14        -0.9070   -3.4620   -6.5190 c3        1 M73     -0.096100
     27 C15        -0.8890   -2.6780   -4.1510 c3        1 M73     -0.078400
     28 C18        -2.3490   -2.4820   -3.8300 c3        1 M73     -0.101100
     29 S8          0.3260    0.7720   -7.6540 s4        1 M73      1.691300
     30 O9         -0.9330    0.6450   -7.1610 o         1 M73     -0.446400
     31 O10         1.1420    1.7880   -7.2580 o         1 M73     -0.446400
     32 C5          0.7420   -0.0640   -8.8690 ca        1 M73     -0.691500
     33 C4         -0.1210   -1.0680   -9.4160 ca        1 M73      0.064000
     34 C3          0.2010   -1.7760  -10.5410 ca        1 M73     -0.214500
     35 C6          1.9770    0.1550   -9.5530 ca        1 M73      0.064000
     36 C7          2.3230   -0.5380  -10.6850 ca        1 M73     -0.214500
     37 C2          1.4370   -1.5170  -11.2070 ca        1 M73      0.305100
     38 O1          1.6610   -2.2500  -12.3090 os        1 M73     -0.262900
     39 C1          2.8740   -2.0260  -13.0500 c3        1 M73      0.096700
     40 H1          2.0850   -3.2510    0.8900 h1        1 M73      0.107700
     41 H2          3.9070   -3.0510    1.1420 h1        1 M73      0.107700
     42 H3          3.5600   -1.4160    2.9530 hc        1 M73      0.113700
     43 H4          1.6330   -3.8330    3.3000 hc        1 M73      0.071367
     44 H5          3.4330   -3.8420    3.5560 hc        1 M73      0.071367
     45 H6          2.3620   -2.8360    4.6250 hc        1 M73      0.071367
     46 H7          0.1030    0.9340    3.7860 h1        1 M73      0.068033
     47 H8         -0.5630   -0.2410    5.0510 h1        1 M73      0.068033
     48 H9         -1.0400   -0.4070    3.2700 h1        1 M73      0.068033
     49 H10         1.5840    0.8510   -0.0330 hn        1 M73      0.495300
     50 H11         0.0920    0.0820   -1.8590 hx        1 M73      0.134700
     51 H12         1.8360    2.5620   -2.5980 hc        1 M73      0.080200
     52 H13         0.0990    2.2280   -3.0100 hc        1 M73      0.080200
     53 H14         2.4560    3.4170   -0.4340 ha        1 M73      0.133500
     54 H15         1.7190    4.5930    1.6290 ha        1 M73      0.158500
     55 H16        -0.7010    4.6460    2.2450 ha        1 M73      0.162000
     56 H17        -2.3820    3.4950    0.7980 ha        1 M73      0.158500
     57 H18        -1.6500    2.3020   -1.2600 ha        1 M73      0.133500
     58 H19         1.8230   -1.1840   -3.1310 h1        1 M73      0.110700
     59 H20         3.0400    1.2600   -3.8730 ho        1 M73      0.427000
     60 H21         0.9090    1.2890   -4.8050 h1        1 M73      0.093700
     61 H22        -0.2210   -0.0650   -4.3040 h1        1 M73      0.093700
     62 H23         1.2890   -2.3560   -6.7500 h1        1 M73      0.064700
     63 H24         1.5040   -2.5170   -4.9560 h1        1 M73      0.064700
     64 H25        -1.2020   -1.4240   -5.8910 hc        1 M73      0.065700
     65 H26        -0.2540   -4.3440   -6.3140 hc        1 M73      0.049033
     66 H27        -0.7750   -3.1620   -7.5870 hc        1 M73      0.049033
     67 H28        -1.9710   -3.7700   -6.3680 hc        1 M73      0.049033
     68 H29        -0.6040   -3.7490   -3.9690 hc        1 M73      0.039700
     69 H30        -0.2710   -2.0550   -3.4490 hc        1 M73      0.039700
     70 H31        -2.6450   -1.4120   -3.9570 hc        1 M73      0.047700
     71 H32        -2.9910   -3.1040   -4.5010 hc        1 M73      0.047700
     72 H33        -2.5530   -2.7840   -2.7740 hc        1 M73      0.047700
     73 H34        -1.0870   -1.2630   -8.9080 ha        1 M73      0.173000
     74 H35        -0.4770   -2.5410  -10.9600 ha        1 M73      0.192500
     75 H36         2.6680    0.9260   -9.1570 ha        1 M73      0.173000
     76 H37         3.2810   -0.3330  -11.1930 ha        1 M73      0.192500
     77 H38         2.7730   -2.7520  -13.8990 h1        1 M73      0.083700
     78 H39         2.9070   -0.9740  -13.4210 h1        1 M73      0.083700
     79 H40         3.7600   -2.2680  -12.4150 h1        1 M73      0.083700
     80 H202        2.9170    0.5830   -1.0330 hn        1 M73      0.495300
     81 H111        2.2590   -0.4520   -5.8400 hn        1 M73      0.393800
@<TRIPOS>BOND
     1    1    2 2   
     2    2    3 1   
     3    2   11 1   
     4    3    4 1   
     5    4    5 1   
     6    4   40 1   
     7    4   41 1   
     8    5    6 1   
     9    5    7 1   
    10    5   42 1   
    11    6   43 1   
    12    6   44 1   
    13    6   45 1   
    14    7    8 2   
    15    7    9 1   
    16    9   10 1   
    17   10   46 1   
    18   10   47 1   
    19   10   48 1   
    20   11   12 1   
    21   11   49 1   
    22   11   80 1   
    23   12   13 1   
    24   12   20 1   
    25   12   50 1   
    26   13   14 1   
    27   13   51 1   
    28   13   52 1   
    29   14   15 ar  
    30   14   19 ar  
    31   15   16 ar  
    32   15   53 1   
    33   16   17 ar  
    34   16   54 1   
    35   17   18 ar  
    36   17   55 1   
    37   18   19 ar  
    38   18   56 1   
    39   19   57 1   
    40   20   21 1   
    41   20   22 1   
    42   20   58 1   
    43   21   59 1   
    44   22   23 1   
    45   22   60 1   
    46   22   61 1   
    47   23   24 1   
    48   23   81 1   
    49   24   25 1   
    50   24   62 1   
    51   24   63 1   
    52   25   26 1   
    53   25   27 1   
    54   25   64 1   
    55   26   65 1   
    56   26   66 1   
    57   26   67 1   
    58   27   28 1   
    59   27   68 1   
    60   27   69 1   
    61   28   70 1   
    62   28   71 1   
    63   28   72 1   
    64   29   30 1   
    65   29   31 1   
    66   29   32 1   
    67   32   33 ar  
    68   32   35 ar  
    69   33   34 ar  
    70   33   73 1   
    71   34   37 ar  
    72   34   74 1   
    73   35   36 ar  
    74   35   75 1   
    75   36   37 ar  
    76   36   76 1   
    77   37   38 1   
    78   38   39 1   
    79   39   77 1   
    80   39   78 1   
    81   39   79 1   
@<TRIPOS>SUBSTRUCTURE
     1 M73         1 TEMP              0 ****  ****    0 ROOT
