@<TRIPOS>MOLECULE
M73
   81    81     1     0     0
SMALL
bcc


@<TRIPOS>ATOM
      1 O22         1.0830   -1.8950   -0.7780 o         1 M73     -0.448000
      2 C21         1.8850   -1.1020   -0.3020 c         1 M73      0.658100
      3 O23         2.8820   -1.4180    0.5600 os        1 M73     -0.405900
      4 C22         2.6370   -2.5400    1.4490 c3        1 M73      0.149400
      5 C23         2.2360   -2.0250    2.8280 c3        1 M73     -0.140700
      6 C24         1.9690   -3.2030    3.7430 c3        1 M73     -0.100100
      7 C25         1.0590   -1.0910    2.7340 c         1 M73      0.666100
      8 O26         0.7610   -0.3880    1.7490 o         1 M73     -0.659000
      9 O27         0.3060   -1.0030    3.8480 os        1 M73     -0.386900
     10 C28        -0.8110   -0.1010    3.8280 c3        1 M73      0.121700
     11 N20         1.9540    0.3350   -0.6870 n4        1 M73     -0.630800
     12 C19         1.2730    0.6340   -1.9980 c3        1 M73      0.147500
     13 C32         1.1390    2.1540   -2.1850 c3        1 M73     -0.052100
     14 C38         0.6050    2.8370   -0.9770 ca        1 M73     -0.166300
     15 C37         1.4830    3.4530   -0.0750 ca        1 M73     -0.127500
     16 C36         0.9840    4.1430    1.0280 ca        1 M73     -0.112500
     17 C35        -0.3940    4.2230    1.2380 ca        1 M73     -0.095000
     18 C34        -1.2720    3.6120    0.3420 ca        1 M73     -0.112500
     19 C33        -0.7760    2.9220   -0.7630 ca        1 M73     -0.127500
     20 C17         2.0450   -0.0130   -3.1780 c3        1 M73      0.094100
     21 O18         3.3730    0.4780   -3.0950 oh        1 M73     -0.609800
     22 C16         1.3840    0.3780   -4.5140 c3        1 M73      0.098800
     23 N11         1.7860   -0.3790   -5.6880 n3        1 M73     -0.896200
     24 C12         1.4720   -1.8070   -5.6810 c3        1 M73      0.128800
     25 C13         0.0880   -2.2220   -5.1610 c3        1 M73     -0.069700
     26 C14        -1.0280   -1.6610   -6.0130 c3        1 M73     -0.109100
     27 C15         0.0310   -3.7470   -5.1330 c3        1 M73     -0.078400
     28 C18        -1.1030   -4.2600   -4.2830 c3        1 M73     -0.099100
     29 S8          1.0690    1.0920   -7.6590 s4        1 M73      1.691300
     30 O9         -0.0250    1.4590   -6.9430 o         1 M73     -0.440400
     31 O10         2.2760    1.6920   -7.4740 o         1 M73     -0.440400
     32 C5          0.8980    0.1670   -8.8650 ca        1 M73     -0.695500
     33 C4         -0.3710   -0.4110   -9.1950 ca        1 M73      0.065500
     34 C3         -0.5580   -1.1790  -10.3100 ca        1 M73     -0.215000
     35 C6          1.9780   -0.1170   -9.7590 ca        1 M73      0.065500
     36 C7          1.8170   -0.8830  -10.8850 ca        1 M73     -0.215000
     37 C2          0.5400   -1.4260  -11.1880 ca        1 M73      0.307100
     38 O1          0.2590   -2.1790  -12.2630 os        1 M73     -0.262900
     39 C1          1.3100   -2.4480  -13.2090 c3        1 M73      0.096700
     40 H1          3.6440   -3.0420    1.4920 h1        1 M73      0.106200
     41 H2          1.8660   -3.2270    1.0160 h1        1 M73      0.106200
     42 H3          3.0830   -1.4080    3.2530 hc        1 M73      0.113700
     43 H4          1.1300   -3.8280    3.3530 hc        1 M73      0.071033
     44 H5          1.6900   -2.8350    4.7620 hc        1 M73      0.071033
     45 H6          2.8860   -3.8360    3.8270 hc        1 M73      0.071033
     46 H7         -1.2580   -0.2330    4.8460 h1        1 M73      0.068367
     47 H8         -1.5220   -0.3990    3.0220 h1        1 M73      0.068367
     48 H9         -0.4470    0.9420    3.6680 h1        1 M73      0.068367
     49 H10         1.4810    0.8760    0.0690 hn        1 M73      0.498800
     50 H11         0.2470    0.1580   -1.9440 hx        1 M73      0.126700
     51 H12         2.1390    2.5810   -2.4700 hc        1 M73      0.090700
     52 H13         0.4370    2.3170   -3.0490 hc        1 M73      0.090700
     53 H14         2.5690    3.4290   -0.2570 ha        1 M73      0.134500
     54 H15         1.6780    4.6390    1.7260 ha        1 M73      0.157500
     55 H16        -0.7880    4.7810    2.1040 ha        1 M73      0.160000
     56 H17        -2.3600    3.6850    0.5000 ha        1 M73      0.157500
     57 H18        -1.4740    2.4590   -1.4760 ha        1 M73      0.134500
     58 H19         2.0360   -1.1350   -3.0520 h1        1 M73      0.072700
     59 H20         3.9060    0.0190   -3.7570 ho        1 M73      0.435000
     60 H21         1.6410    1.4600   -4.7210 h1        1 M73      0.095200
     61 H22         0.2640    0.2950   -4.4050 h1        1 M73      0.095200
     62 H23         2.2440   -2.3670   -5.0740 h1        1 M73      0.057700
     63 H24         1.5700   -2.1570   -6.7500 h1        1 M73      0.057700
     64 H25        -0.0340   -1.8490   -4.1050 hc        1 M73      0.051700
     65 H26        -0.9310   -2.0120   -7.0690 hc        1 M73      0.045700
     66 H27        -1.0260   -0.5430   -6.0040 hc        1 M73      0.045700
     67 H28        -2.0170   -2.0070   -5.6210 hc        1 M73      0.045700
     68 H29        -0.0760   -4.1340   -6.1810 hc        1 M73      0.048700
     69 H30         0.9980   -4.1500   -4.7270 hc        1 M73      0.048700
     70 H31        -1.0220   -3.8770   -3.2370 hc        1 M73      0.047700
     71 H32        -2.0920   -3.9470   -4.6980 hc        1 M73      0.047700
     72 H33        -1.0780   -5.3770   -4.2520 hc        1 M73      0.047700
     73 H34        -1.2270   -0.2130   -8.5180 ha        1 M73      0.174000
     74 H35        -1.5440   -1.6100  -10.5600 ha        1 M73      0.193000
     75 H36         2.9740    0.3130   -9.5330 ha        1 M73      0.174000
     76 H37         2.6710   -1.0710  -11.5570 ha        1 M73      0.193000
     77 H38         0.7820   -3.0680  -13.9820 h1        1 M73      0.084033
     78 H39         1.6850   -1.4920  -13.6470 h1        1 M73      0.084033
     79 H40         2.1270   -3.0270  -12.7170 h1        1 M73      0.084033
     80 H202        2.9400    0.6300   -0.7400 hn        1 M73      0.498800
     81 H111        2.7860   -0.2840   -5.8040 hn        1 M73      0.380800
@<TRIPOS>BOND
     1    1    2 2   
     2    2    3 1   
     3    2   11 1   
     4    3    4 1   
     5    4    5 1   
     6    4   40 1   
     7    4   41 1   
     8    5    6 1   
     9    5    7 1   
    10    5   42 1   
    11    6   43 1   
    12    6   44 1   
    13    6   45 1   
    14    7    8 2   
    15    7    9 1   
    16    9   10 1   
    17   10   46 1   
    18   10   47 1   
    19   10   48 1   
    20   11   12 1   
    21   11   49 1   
    22   11   80 1   
    23   12   13 1   
    24   12   20 1   
    25   12   50 1   
    26   13   14 1   
    27   13   51 1   
    28   13   52 1   
    29   14   15 ar  
    30   14   19 ar  
    31   15   16 ar  
    32   15   53 1   
    33   16   17 ar  
    34   16   54 1   
    35   17   18 ar  
    36   17   55 1   
    37   18   19 ar  
    38   18   56 1   
    39   19   57 1   
    40   20   21 1   
    41   20   22 1   
    42   20   58 1   
    43   21   59 1   
    44   22   23 1   
    45   22   60 1   
    46   22   61 1   
    47   23   24 1   
    48   23   81 1   
    49   24   25 1   
    50   24   62 1   
    51   24   63 1   
    52   25   26 1   
    53   25   27 1   
    54   25   64 1   
    55   26   65 1   
    56   26   66 1   
    57   26   67 1   
    58   27   28 1   
    59   27   68 1   
    60   27   69 1   
    61   28   70 1   
    62   28   71 1   
    63   28   72 1   
    64   29   30 1   
    65   29   31 1   
    66   29   32 1   
    67   32   33 ar  
    68   32   35 ar  
    69   33   34 ar  
    70   33   73 1   
    71   34   37 ar  
    72   34   74 1   
    73   35   36 ar  
    74   35   75 1   
    75   36   37 ar  
    76   36   76 1   
    77   37   38 1   
    78   38   39 1   
    79   39   77 1   
    80   39   78 1   
    81   39   79 1   
@<TRIPOS>SUBSTRUCTURE
     1 M73         1 TEMP              0 ****  ****    0 ROOT
