@<TRIPOS>MOLECULE
M74
   22    22     1     0     0
SMALL
bcc


@<TRIPOS>ATOM
      1 O3         -0.3220    0.2950   -0.5260 o         1 M74     -0.830300
      2 C           0.8790    0.0140   -0.2950 c         1 M74      0.890600
      3 O           1.3590   -0.3360    0.8260 o         1 M74     -0.830300
      4 CA          1.9040    0.0590   -1.4630 c3        1 M74     -0.015900
      5 CB          2.1070   -1.3860   -1.9650 c3        1 M74      0.166400
      6 O1          2.8070   -2.1710   -1.0060 oh        1 M74     -0.637800
      7 CG          2.8420   -1.4410   -3.2720 ca        1 M74     -0.043300
      8 CD2         4.1500   -1.9300   -3.3630 ca        1 M74     -0.118000
      9 CE2         4.7990   -1.9760   -4.5960 ca        1 M74     -0.143500
     10 CZ          4.1500   -1.5330   -5.7480 ca        1 M74     -0.155000
     11 CE1         2.8480   -1.0420   -5.6630 ca        1 M74     -0.143500
     12 CD1         2.1950   -0.9960   -4.4330 ca        1 M74     -0.118000
     13 O2          3.1320    0.6090   -1.0230 oh        1 M74     -0.617800
     14 H2          1.5510    0.7140   -2.2990 h1        1 M74      0.064700
     15 H3          1.0840   -1.8450   -2.1110 h1        1 M74      0.048700
     16 H4          2.5270   -1.8490   -0.1310 ho        1 M74      0.445000
     17 H5          4.6560   -2.2730   -2.4470 ha        1 M74      0.143500
     18 H6          5.8270   -2.3600   -4.6580 ha        1 M74      0.113000
     19 H7          4.6630   -1.5690   -6.7180 ha        1 M74      0.109000
     20 H8          2.3340   -0.6880   -6.5680 ha        1 M74      0.113000
     21 H9          1.1690   -0.6040   -4.3630 ha        1 M74      0.143500
     22 H10         3.2300    0.3480   -0.0930 ho        1 M74      0.416000
@<TRIPOS>BOND
     1    1    2 1   
     2    2    3 1   
     3    2    4 1   
     4    4    5 1   
     5    4   13 1   
     6    4   14 1   
     7    5    6 1   
     8    5    7 1   
     9    5   15 1   
    10    6   16 1   
    11    7    8 ar  
    12    7   12 ar  
    13    8    9 ar  
    14    8   17 1   
    15    9   10 ar  
    16    9   18 1   
    17   10   11 ar  
    18   10   19 1   
    19   11   12 ar  
    20   11   20 1   
    21   12   21 1   
    22   13   22 1   
@<TRIPOS>SUBSTRUCTURE
     1 M74         1 TEMP              0 ****  ****    0 ROOT
