@<TRIPOS>MOLECULE
M74
   22    22     1     0     0
SMALL
bcc


@<TRIPOS>ATOM
      1 O3         -0.2510    0.4320   -0.5140 o         1 M74     -0.830300
      2 C           0.9170    0.0370   -0.2770 c         1 M74      0.890600
      3 O           1.3400   -0.4100    0.8310 o         1 M74     -0.830300
      4 CA          1.9670    0.0550   -1.4230 c3        1 M74     -0.015900
      5 CB          2.0580   -1.3750   -1.9980 c3        1 M74      0.166400
      6 O1          2.6670   -2.2660   -1.0690 oh        1 M74     -0.637800
      7 CG          2.8140   -1.4250   -3.2920 ca        1 M74     -0.043300
      8 CD2         4.0780   -2.0190   -3.3860 ca        1 M74     -0.118000
      9 CE2         4.7480   -2.0560   -4.6080 ca        1 M74     -0.143500
     10 CZ          4.1640   -1.5020   -5.7470 ca        1 M74     -0.155000
     11 CE1         2.9060   -0.9060   -5.6590 ca        1 M74     -0.143500
     12 CD1         2.2330   -0.8690   -4.4390 ca        1 M74     -0.118000
     13 O2          3.2270    0.4730   -0.9330 oh        1 M74     -0.617800
     14 H2          1.6900    0.7800   -2.2290 h1        1 M74      0.064700
     15 H3          1.0030   -1.7370   -2.1860 h1        1 M74      0.048700
     16 H4          2.3970   -1.9660   -0.1840 ho        1 M74      0.445000
     17 H5          4.5330   -2.4500   -2.4810 ha        1 M74      0.143500
     18 H6          5.7410   -2.5220   -4.6730 ha        1 M74      0.113000
     19 H7          4.6940   -1.5310   -6.7080 ha        1 M74      0.109000
     20 H8          2.4440   -0.4640   -6.5520 ha        1 M74      0.113000
     21 H9          1.2420   -0.3950   -4.3680 ha        1 M74      0.143500
     22 H10         3.2820    0.1570   -0.0170 ho        1 M74      0.416000
@<TRIPOS>BOND
     1    1    2 1   
     2    2    3 1   
     3    2    4 1   
     4    4    5 1   
     5    4   13 1   
     6    4   14 1   
     7    5    6 1   
     8    5    7 1   
     9    5   15 1   
    10    6   16 1   
    11    7    8 ar  
    12    7   12 ar  
    13    8    9 ar  
    14    8   17 1   
    15    9   10 ar  
    16    9   18 1   
    17   10   11 ar  
    18   10   19 1   
    19   11   12 ar  
    20   11   20 1   
    21   12   21 1   
    22   13   22 1   
@<TRIPOS>SUBSTRUCTURE
     1 M74         1 TEMP              0 ****  ****    0 ROOT
