@<TRIPOS>MOLECULE
M76
   37    39     1     0     0
SMALL
bcc


@<TRIPOS>ATOM
      1 O1         -0.2110    1.0630    2.2870 o         1 M76     -0.606100
      2 C2         -0.1830    0.3220    1.2830 c         1 M76      0.696300
      3 N3          1.0130   -0.1720    0.7950 n         1 M76     -0.555900
      4 C4          2.2430   -0.0010    1.5260 c3        1 M76      0.134300
      5 C5          3.4580   -0.0100    0.6440 ca        1 M76     -0.120300
      6 C6          4.4850   -0.9280    0.8820 ca        1 M76     -0.091500
      7 C7          5.6350   -0.9240    0.1000 ca        1 M76     -0.168000
      8 C8          5.7580    0.0120   -0.9440 ca        1 M76      0.128900
      9 C10         4.7260    0.9380   -1.1910 ca        1 M76     -0.168000
     10 C11         3.5870    0.9190   -0.3940 ca        1 M76     -0.091500
     11 C12        -1.4140   -0.0200    0.5170 cc        1 M76     -0.224400
     12 C13        -1.7130   -1.3280    0.1970 cd        1 M76      0.267700
     13 O14        -0.8530   -2.3270    0.5820 oh        1 M76     -0.494100
     14 N15        -2.8300   -1.6650   -0.6000 n         1 M76     -0.253500
     15 O16        -3.1970   -2.9440   -0.5020 oh        1 M76     -0.421100
     16 C17        -3.8650   -0.6970   -0.8320 c         1 M76      0.708100
     17 O18        -4.9200   -1.1050   -1.3400 o         1 M76     -0.598500
     18 C19        -3.5270    0.7000   -0.5350 ca        1 M76     -0.175600
     19 C20        -4.4440    1.7000   -0.9010 ca        1 M76     -0.062000
     20 C21        -4.1690    3.0290   -0.6180 ca        1 M76     -0.152000
     21 C22        -2.9820    3.3680    0.0430 ca        1 M76     -0.085000
     22 C23        -2.0740    2.3880    0.4170 ca        1 M76     -0.132000
     23 C24        -2.3290    1.0320    0.1340 ca        1 M76      0.054200
     24 F9          6.8720    0.0220   -1.7130 f         1 M76     -0.139900
     25 H1          0.9890   -0.8880    0.1070 hn        1 M76      0.317500
     26 H2          2.1950    0.9850    2.0780 h1        1 M76      0.062700
     27 H3          2.3390   -0.8170    2.3030 h1        1 M76      0.062700
     28 H4          4.3900   -1.6620    1.6980 ha        1 M76      0.143000
     29 H5          6.4470   -1.6410    0.2860 ha        1 M76      0.150000
     30 H6          4.8320    1.6660   -2.0080 ha        1 M76      0.150000
     31 H7          2.7800    1.6450   -0.5810 ha        1 M76      0.143000
     32 H9         -3.5740   -3.1760   -1.3780 ho        1 M76      0.455000
     33 H10        -5.3750    1.4070   -1.4150 ha        1 M76      0.157000
     34 H11        -4.8800    3.8150   -0.9100 ha        1 M76      0.142000
     35 H12        -2.7690    4.4240    0.2730 ha        1 M76      0.140000
     36 H13        -1.1550    2.6640    0.9610 ha        1 M76      0.167000
     37 H8         -1.2860   -3.1960    0.5170 ho        1 M76      0.460000
@<TRIPOS>BOND
     1    1    2 2   
     2    2    3 1   
     3    2   11 1   
     4    3    4 1   
     5    3   25 1   
     6    4    5 1   
     7    4   26 1   
     8    4   27 1   
     9    5    6 ar  
    10    5   10 ar  
    11    6    7 ar  
    12    6   28 1   
    13    7    8 ar  
    14    7   29 1   
    15    8    9 ar  
    16    8   24 1   
    17    9   10 ar  
    18    9   30 1   
    19   10   31 1   
    20   11   12 2   
    21   11   23 1   
    22   12   13 1   
    23   12   14 1   
    24   13   37 1   
    25   14   15 1   
    26   14   16 1   
    27   15   32 1   
    28   16   17 2   
    29   16   18 1   
    30   18   19 ar  
    31   18   23 ar  
    32   19   20 ar  
    33   19   33 1   
    34   20   21 ar  
    35   20   34 1   
    36   21   22 ar  
    37   21   35 1   
    38   22   23 ar  
    39   22   36 1   
@<TRIPOS>SUBSTRUCTURE
     1 M76         1 TEMP              0 ****  ****    0 ROOT
