@<TRIPOS>MOLECULE
M76
   38    40     1     0     0
SMALL
bcc


@<TRIPOS>ATOM
      1 O1          0.2200    0.7210    0.1630 o         1 M76     -0.434100
      2 C2          1.3790    0.3670   -0.0040 c         1 M76      0.604300
      3 N3          2.1150   -0.0460    1.2660 n4        1 M76     -0.677800
      4 C4          1.5710    0.6000    2.5040 c3        1 M76      0.178100
      5 C5          2.2890    0.1220    3.7170 ca        1 M76     -0.208300
      6 C6          1.7990   -0.9760    4.4340 ca        1 M76     -0.073000
      7 C7          2.4390   -1.4040    5.5900 ca        1 M76     -0.163000
      8 C8          3.5880   -0.7220    6.0400 ca        1 M76      0.184900
      9 C10         4.0810    0.3880    5.3230 ca        1 M76     -0.163000
     10 C11         3.4280    0.8010    4.1700 ca        1 M76     -0.073000
     11 C12         2.1570    0.3050   -1.2260 cc        1 M76     -0.308400
     12 C13         3.0140   -0.7640   -1.5050 cd        1 M76      0.350700
     13 O14         3.1380   -1.7590   -0.5710 oh        1 M76     -0.534100
     14 N15         3.7770   -0.8120   -2.6610 n         1 M76     -0.251500
     15 O16         4.3310   -1.9980   -2.9120 oh        1 M76     -0.414100
     16 C17         3.5380    0.1020   -3.7600 c         1 M76      0.724100
     17 O18         4.1510   -0.1290   -4.8040 o         1 M76     -0.539500
     18 C19         2.6510    1.2290   -3.4660 ca        1 M76     -0.169600
     19 C20         2.4790    2.1990   -4.4680 ca        1 M76     -0.043000
     20 C21         1.6450    3.2870   -4.2440 ca        1 M76     -0.131000
     21 C22         0.9770    3.4080   -3.0220 ca        1 M76     -0.058000
     22 C23         1.1370    2.4480   -2.0280 ca        1 M76     -0.151000
     23 C24         1.9720    1.3380   -2.2320 ca        1 M76      0.042200
     24 F9          4.2170   -1.1310    7.1610 f         1 M76     -0.105900
     25 H1          2.0470   -1.0680    1.3560 hn        1 M76      0.456800
     26 H2          0.4690    0.3560    2.5610 hx        1 M76      0.114200
     27 H3          1.6790    1.7150    2.3780 hx        1 M76      0.114200
     28 H4          0.8900   -1.4990    4.0950 ha        1 M76      0.145000
     29 H5          2.0550   -2.2630    6.1640 ha        1 M76      0.174500
     30 H6          4.9730    0.9210    5.6910 ha        1 M76      0.174500
     31 H7          3.8040    1.6800    3.6220 ha        1 M76      0.145000
     32 H9          5.1130   -1.8200   -3.4860 ho        1 M76      0.482000
     33 H10         3.0150    2.0830   -5.4260 ha        1 M76      0.174000
     34 H11         1.5110    4.0510   -5.0270 ha        1 M76      0.166000
     35 H12         0.3130    4.2710   -2.8440 ha        1 M76      0.160000
     36 H13         0.5830    2.5660   -1.0840 ha        1 M76      0.150000
     37 H8          3.6190   -2.5330   -0.9260 ho        1 M76      0.500000
     38 H32         3.1080    0.1840    1.1640 hn        1 M76      0.456800
@<TRIPOS>BOND
     1    1    2 2   
     2    2    3 1   
     3    2   11 1   
     4    3    4 1   
     5    3   25 1   
     6    3   38 1   
     7    4    5 1   
     8    4   26 1   
     9    4   27 1   
    10    5    6 ar  
    11    5   10 ar  
    12    6    7 ar  
    13    6   28 1   
    14    7    8 ar  
    15    7   29 1   
    16    8    9 ar  
    17    8   24 1   
    18    9   10 ar  
    19    9   30 1   
    20   10   31 1   
    21   11   12 2   
    22   11   23 1   
    23   12   13 1   
    24   12   14 1   
    25   13   37 1   
    26   14   15 1   
    27   14   16 1   
    28   15   32 1   
    29   16   17 2   
    30   16   18 1   
    31   18   19 ar  
    32   18   23 ar  
    33   19   20 ar  
    34   19   33 1   
    35   20   21 ar  
    36   20   34 1   
    37   21   22 ar  
    38   21   35 1   
    39   22   23 ar  
    40   22   36 1   
@<TRIPOS>SUBSTRUCTURE
     1 M76         1 TEMP              0 ****  ****    0 ROOT
