@<TRIPOS>MOLECULE
M76
   38    40     1     0     0
SMALL
bcc


@<TRIPOS>ATOM
      1 O1          0.2150    0.6840    0.1570 o         1 M76     -0.434100
      2 C2          1.3810    0.3490   -0.0070 c         1 M76      0.604300
      3 N3          2.1190   -0.0560    1.2630 ny        1 M76     -0.677800
      4 C4          1.5620    0.5780    2.5020 c3        1 M76      0.178100
      5 C5          2.2840    0.1080    3.7150 ca        1 M76     -0.208300
      6 C6          1.8080   -0.9980    4.4290 ca        1 M76     -0.073000
      7 C7          2.4510   -1.4200    5.5860 ca        1 M76     -0.163000
      8 C8          3.5900   -0.7220    6.0400 ca        1 M76      0.184900
      9 C10         4.0690    0.3960    5.3260 ca        1 M76     -0.163000
     10 C11         3.4120    0.8020    4.1710 ca        1 M76     -0.073000
     11 C12         2.1640    0.3040   -1.2280 cc        1 M76     -0.308400
     12 C13         3.0380   -0.7500   -1.5070 cd        1 M76      0.350700
     13 O14         3.1750   -1.7460   -0.5760 oh        1 M76     -0.534100
     14 N15         3.8050   -0.7820   -2.6610 n         1 M76     -0.251500
     15 O16         4.3800   -1.9580   -2.9140 oh        1 M76     -0.414100
     16 C17         3.5550    0.1310   -3.7580 c         1 M76      0.724100
     17 O18         4.1750   -0.0850   -4.8010 o         1 M76     -0.539500
     18 C19         2.6490    1.2440   -3.4630 ca        1 M76     -0.169600
     19 C20         2.4650    2.2140   -4.4620 ca        1 M76     -0.043000
     20 C21         1.6130    3.2880   -4.2370 ca        1 M76     -0.131000
     21 C22         0.9390    3.3940   -3.0170 ca        1 M76     -0.058000
     22 C23         1.1120    2.4330   -2.0250 ca        1 M76     -0.151000
     23 C24         1.9650    1.3370   -2.2310 ca        1 M76      0.042200
     24 F9          4.2220   -1.1240    7.1610 f         1 M76     -0.105900
     25 H1          3.1090    0.1890    1.1650 hn        1 M76      0.456800
     26 H2          1.6540    1.6950    2.3790 hx        1 M76      0.114200
     27 H3          0.4630    0.3170    2.5550 hx        1 M76      0.114200
     28 H4          0.9070   -1.5330    4.0870 ha        1 M76      0.145000
     29 H5          2.0790   -2.2840    6.1580 ha        1 M76      0.174500
     30 H6          4.9530    0.9400    5.6960 ha        1 M76      0.174500
     31 H7          3.7770    1.6870    3.6260 ha        1 M76      0.145000
     32 H9          5.1600   -1.7650   -3.4850 ho        1 M76      0.482000
     33 H10         3.0050    2.1100   -5.4190 ha        1 M76      0.174000
     34 H11         1.4690    4.0520   -5.0180 ha        1 M76      0.166000
     35 H12         0.2600    4.2450   -2.8380 ha        1 M76      0.160000
     36 H13         0.5530    2.5380   -1.0830 ha        1 M76      0.150000
     37 H8          3.6710   -2.5110   -0.9320 ho        1 M76      0.500000
     38 H32         2.0660   -1.0800    1.3500 hn        1 M76      0.456800
@<TRIPOS>BOND
     1    1    2 2   
     2    2    3 1   
     3    2   11 1   
     4    3    4 1   
     5    3   25 1   
     6    3   38 1   
     7    4    5 1   
     8    4   26 1   
     9    4   27 1   
    10    5    6 ar  
    11    5   10 ar  
    12    6    7 ar  
    13    6   28 1   
    14    7    8 ar  
    15    7   29 1   
    16    8    9 ar  
    17    8   24 1   
    18    9   10 ar  
    19    9   30 1   
    20   10   31 1   
    21   11   12 2   
    22   11   23 1   
    23   12   13 1   
    24   12   14 1   
    25   13   37 1   
    26   14   15 1   
    27   14   16 1   
    28   15   32 1   
    29   16   17 2   
    30   16   18 1   
    31   18   19 ar  
    32   18   23 ar  
    33   19   20 ar  
    34   19   33 1   
    35   20   21 ar  
    36   20   34 1   
    37   21   22 ar  
    38   21   35 1   
    39   22   23 ar  
    40   22   36 1   
@<TRIPOS>SUBSTRUCTURE
     1 M76         1 TEMP              0 ****  ****    0 ROOT
