@<TRIPOS>MOLECULE
M76
   37    31     1     0     0
SMALL
bcc


@<TRIPOS>ATOM
      1 O1         -2.0920   -1.2470    0.1310 o         1 M76     -0.367000
      2 C2         -1.0000   -0.7740   -0.0080 c1        1 M76      0.372000
      3 N3         -0.3880   -0.0340    1.0760 n2        1 M76     -0.365000
      4 C4         -0.9580   -0.0930    2.4110 c3        1 M76      0.011000
      5 C5         -0.0430    0.6640    3.3920 c2        1 M76     -0.113000
      6 C6          0.8680   -0.0410    4.1720 c1        1 M76     -0.096000
      7 C7          1.6180    0.6180    5.1260 c1        1 M76     -0.168000
      8 C8          1.4640    1.9770    5.3070 c1        1 M76      0.094000
      9 C10         0.5510    2.6830    4.5250 c2        1 M76     -0.168000
     10 C11        -0.2000    2.0190    3.5690 c2        1 M76     -0.087000
     11 C12        -0.2610   -0.9350   -1.3360 c2        1 M76     -0.220000
     12 C13         0.9750   -1.7710   -1.4060 c1        1 M76      0.225000
     13 O14         1.5130   -2.3820   -0.1910 o         1 M76     -0.248000
     14 N15         1.6490   -1.9470   -2.6570 n3        1 M76     -0.180000
     15 O16         2.7930   -2.6790   -2.7130 oh        1 M76     -0.225000
     16 C17         1.1360   -1.3140   -3.8530 c1        1 M76      0.346000
     17 O18         1.6990   -1.4630   -4.8970 o         1 M76     -0.324000
     18 C19        -0.1490   -0.4370   -3.7800 c1        1 M76     -0.156000
     19 C20        -0.6410    0.1920   -4.9400 c1        1 M76     -0.108500
     20 C21        -1.7890    0.9720   -4.8750 c1        1 M76     -0.108500
     21 C22        -2.4520    1.1320   -3.6620 c1        1 M76     -0.108500
     22 C23        -1.9670    0.5110   -2.5190 c1        1 M76     -0.108500
     23 C24        -0.8030   -0.2800   -2.5870 c1        1 M76      0.067000
     24 F9          2.1280    2.5880    6.2480 f         1 M76     -0.105000
     25 H1          0.3680    0.4790    0.9190 hn        1 M76      0.232000
     26 H2         -1.8400    0.3170    2.4060 h1        1 M76      0.102000
     27 H3         -1.0350   -1.0270    2.6930 h1        1 M76      0.102000
     28 H4          0.9750   -0.9800    4.0460 ha        1 M76      0.139000
     29 H5          2.2760    0.1050    5.6890 ha        1 M76      0.150000
     30 H6          0.4400    3.6410    4.6510 ha        1 M76      0.150000
     31 H7         -0.8360    2.5090    3.0240 ha        1 M76      0.147000
     32 H9          2.5950   -3.5270   -2.9380 ho        1 M76      0.254000
     33 H10        -0.1730    0.0790   -5.7950 ha        1 M76      0.151750
     34 H11        -2.1430    1.4290   -5.7140 ha        1 M76      0.151750
     35 H12        -3.2410    1.6680   -3.6170 ha        1 M76      0.151750
     36 H13        -2.4270    0.6220   -1.6760 ha        1 M76      0.151750
     37 H8          1.3900   -3.2750   -0.2220 ho        1 M76      0.258000
@<TRIPOS>BOND
     1    1    2 1   
     2    2   11 1   
     3    3    4 1   
     4    3   25 1   
     5    4    5 1   
     6    4   26 1   
     7    4   27 1   
     8    5    6 1   
     9    5   10 1   
    10    6   28 1   
    11    7    8 1   
    12    7   29 1   
    13    8    9 1   
    14    9   10 1   
    15    9   30 1   
    16   10   31 1   
    17   11   12 1   
    18   11   23 1   
    19   12   14 1   
    20   13   37 1   
    21   14   15 1   
    22   14   16 1   
    23   15   32 1   
    24   16   17 1   
    25   18   23 1   
    26   19   20 1   
    27   19   33 1   
    28   20   34 1   
    29   21   22 1   
    30   21   35 1   
    31   22   36 1   
@<TRIPOS>SUBSTRUCTURE
     1 M76         1 TEMP              0 ****  ****    0 ROOT
