@<TRIPOS>MOLECULE
M76
   38    40     1     0     0
SMALL
bcc


@<TRIPOS>ATOM
      1 O1          0.2190    0.7210    0.1680 o         1 M76     -0.434100
      2 C2          1.3780    0.3660   -0.0000 c         1 M76      0.604300
      3 N3          2.1160   -0.0410    1.2690 n4        1 M76     -0.677800
      4 C4          1.5780    0.6140    2.5050 c3        1 M76      0.178100
      5 C5          2.2990    0.1410    3.7190 ca        1 M76     -0.208300
      6 C6          1.8050   -0.9490    4.4460 ca        1 M76     -0.073000
      7 C7          2.4470   -1.3720    5.6030 ca        1 M76     -0.163000
      8 C8          3.6020   -0.6930    6.0440 ca        1 M76      0.184900
      9 C10         4.0980    0.4090    5.3160 ca        1 M76     -0.163000
     10 C11         3.4430    0.8170    4.1620 ca        1 M76     -0.073000
     11 C12         2.1530    0.2970   -1.2240 cc        1 M76     -0.308400
     12 C13         3.0090   -0.7740   -1.4990 cd        1 M76      0.350700
     13 O14         3.1350   -1.7640   -0.5610 oh        1 M76     -0.534100
     14 N15         3.7690   -0.8280   -2.6580 n         1 M76     -0.251500
     15 O16         4.3230   -2.0150   -2.9040 oh        1 M76     -0.414100
     16 C17         3.5270    0.0800   -3.7610 c         1 M76      0.724100
     17 O18         4.1380   -0.1560   -4.8050 o         1 M76     -0.539500
     18 C19         2.6420    1.2090   -3.4710 ca        1 M76     -0.169600
     19 C20         2.4670    2.1730   -4.4770 ca        1 M76     -0.043000
     20 C21         1.6340    3.2630   -4.2570 ca        1 M76     -0.131000
     21 C22         0.9690    3.3910   -3.0340 ca        1 M76     -0.058000
     22 C23         1.1320    2.4360   -2.0350 ca        1 M76     -0.151000
     23 C24         1.9660    1.3240   -2.2350 ca        1 M76      0.042200
     24 F9          4.2320   -1.0960    7.1650 f         1 M76     -0.105900
     25 H1          3.1100    0.1840    1.1630 hn        1 M76      0.456800
     26 H2          1.6900    1.7280    2.3720 hx        1 M76      0.114200
     27 H3          0.4750    0.3740    2.5670 hx        1 M76      0.114200
     28 H4          0.8920   -1.4700    4.1140 ha        1 M76      0.145000
     29 H5          2.0610   -2.2240    6.1850 ha        1 M76      0.174500
     30 H6          4.9940    0.9400    5.6760 ha        1 M76      0.174500
     31 H7          3.8210    1.6900    3.6060 ha        1 M76      0.145000
     32 H9          5.1030   -1.8400   -3.4800 ho        1 M76      0.482000
     33 H10         3.0000    2.0520   -5.4370 ha        1 M76      0.174000
     34 H11         1.4980    4.0220   -5.0440 ha        1 M76      0.166000
     35 H12         0.3050    4.2540   -2.8590 ha        1 M76      0.160000
     36 H13         0.5800    2.5590   -1.0900 ha        1 M76      0.150000
     37 H8          3.6160   -2.5400   -0.9130 ho        1 M76      0.500000
     38 H32         2.0460   -1.0630    1.3660 hn        1 M76      0.456800
@<TRIPOS>BOND
     1    1    2 2   
     2    2    3 1   
     3    2   11 1   
     4    3    4 1   
     5    3   25 1   
     6    3   38 1   
     7    4    5 1   
     8    4   26 1   
     9    4   27 1   
    10    5    6 ar  
    11    5   10 ar  
    12    6    7 ar  
    13    6   28 1   
    14    7    8 ar  
    15    7   29 1   
    16    8    9 ar  
    17    8   24 1   
    18    9   10 ar  
    19    9   30 1   
    20   10   31 1   
    21   11   12 2   
    22   11   23 1   
    23   12   13 1   
    24   12   14 1   
    25   13   37 1   
    26   14   15 1   
    27   14   16 1   
    28   15   32 1   
    29   16   17 2   
    30   16   18 1   
    31   18   19 ar  
    32   18   23 ar  
    33   19   20 ar  
    34   19   33 1   
    35   20   21 ar  
    36   20   34 1   
    37   21   22 ar  
    38   21   35 1   
    39   22   23 ar  
    40   22   36 1   
@<TRIPOS>SUBSTRUCTURE
     1 M76         1 TEMP              0 ****  ****    0 ROOT
