@<TRIPOS>MOLECULE
M77
   37    39     1     0     0
SMALL
bcc


@<TRIPOS>ATOM
      1 O1          0.2860    0.0540    0.3800 o         1 M77     -0.649300
      2 S1          1.6690    0.0040    0.0980 sy        1 M77      1.492200
      3 O2          2.5200    0.0210    1.2260 o         1 M77     -0.649300
      4 N4          2.0050   -1.2930   -0.8210 n3        1 M77     -0.815500
      5 C22         3.2670   -1.9790   -0.7510 c3        1 M77      0.227800
      6 C21         3.2260   -3.3730   -0.0870 c3        1 M77      0.148800
      7 N17         2.2360   -4.2630   -0.6520 n3        1 M77     -0.826200
      8 C16         0.8730   -3.9870   -0.2430 c3        1 M77      0.170800
      9 C20         0.1420   -2.9600   -1.1060 c3        1 M77     -0.097400
     10 C15         1.0210   -1.8650   -1.7060 c3        1 M77      0.237800
     11 C5          2.0570    1.3490   -0.8870 ca        1 M77     -0.344500
     12 C6          2.4720    1.2500   -2.2000 ca        1 M77      0.011000
     13 C7          2.7800    2.3830   -2.9830 ca        1 M77     -0.173000
     14 C8          2.6690    3.6420   -2.4460 ca        1 M77     -0.036000
     15 C9          2.2420    3.7980   -1.1050 ca        1 M77     -0.185300
     16 C10         1.9340    2.6560   -0.3190 ca        1 M77      0.076000
     17 C11         1.5060    2.8880    1.0210 ca        1 M77     -0.244300
     18 C14         2.1080    5.0950   -0.5040 ca        1 M77      0.429200
     19 N13         1.7110    5.2940    0.7410 nb        1 M77     -0.663000
     20 C12         1.4140    4.1860    1.4910 ca        1 M77      0.408200
     21 H221        3.6800   -2.0930   -1.7950 h1        1 M77      0.056700
     22 H222        3.9870   -1.3500   -0.1500 h1        1 M77      0.056700
     23 H211        4.2430   -3.8330   -0.2460 h1        1 M77      0.039700
     24 H212        3.0860   -3.2280    1.0260 h1        1 M77      0.039700
     25 H17         2.4720   -5.2110   -0.4230 hn        1 M77      0.364800
     26 H161        0.2880   -4.9500   -0.2950 h1        1 M77      0.032200
     27 H162        0.8290   -3.6350    0.8320 h1        1 M77      0.032200
     28 H201       -0.3580   -3.4830   -1.9630 hc        1 M77      0.056200
     29 H202       -0.6580   -2.4900   -0.4750 hc        1 M77      0.056200
     30 H151        0.3450   -1.0300   -2.0580 h1        1 M77      0.050700
     31 H152        1.5490   -2.2840   -2.6120 h1        1 M77      0.050700
     32 H6          2.5780    0.2650   -2.6910 ha        1 M77      0.141000
     33 H7          3.1080    2.2410   -4.0240 ha        1 M77      0.143000
     34 H8          2.9050    4.5390   -3.0400 ha        1 M77      0.141000
     35 H11         1.2540    2.0430    1.6810 ha        1 M77      0.167000
     36 H14         2.3450    5.9940   -1.1020 h4        1 M77      0.023100
     37 H12         1.0860    4.4000    2.5250 h4        1 M77      0.030100
@<TRIPOS>BOND
     1    1    2 2   
     2    2    3 2   
     3    2    4 1   
     4    2   11 1   
     5    4    5 1   
     6    4   10 1   
     7    5    6 1   
     8    5   21 1   
     9    5   22 1   
    10    6    7 1   
    11    6   23 1   
    12    6   24 1   
    13    7    8 1   
    14    7   25 1   
    15    8    9 1   
    16    8   26 1   
    17    8   27 1   
    18    9   10 1   
    19    9   28 1   
    20    9   29 1   
    21   10   30 1   
    22   10   31 1   
    23   11   12 ar  
    24   11   16 ar  
    25   12   13 ar  
    26   12   32 1   
    27   13   14 ar  
    28   13   33 1   
    29   14   15 ar  
    30   14   34 1   
    31   15   16 ar  
    32   15   18 ar  
    33   16   17 ar  
    34   17   20 ar  
    35   17   35 1   
    36   18   19 ar  
    37   18   36 1   
    38   19   20 ar  
    39   20   37 1   
@<TRIPOS>SUBSTRUCTURE
     1 M77         1 TEMP              0 ****  ****    0 ROOT
