@<TRIPOS>MOLECULE
M77
   37    39     1     0     0
SMALL
bcc


@<TRIPOS>ATOM
      1 O1         -0.4620    1.3660   -1.1170 o         1 M77     -0.646800
      2 S1         -0.4440    0.6470    0.0980 sy        1 M77      1.494200
      3 O2         -0.3280    1.4270    1.2690 o         1 M77     -0.646800
      4 N4         -1.7650   -0.2990    0.1970 n3        1 M77     -0.814500
      5 C22        -2.3730   -0.6350    1.4570 c3        1 M77      0.182800
      6 C21        -3.7580    0.0040    1.7060 c3        1 M77      0.145800
      7 N17        -4.7480   -0.1430    0.6700 n3        1 M77     -0.811200
      8 C16        -4.5200    0.6350   -0.5250 c3        1 M77      0.162800
      9 C20        -3.5270    0.0960   -1.5550 c3        1 M77     -0.140400
     10 C15        -2.4230   -0.7920   -0.9860 c3        1 M77      0.228800
     11 C5          0.8710   -0.4460    0.0490 ca        1 M77     -0.346500
     12 C6          0.7370   -1.8200    0.0680 ca        1 M77      0.011000
     13 C7          1.8490   -2.6890    0.0260 ca        1 M77     -0.174000
     14 C8          3.1220   -2.1750   -0.0370 ca        1 M77     -0.034000
     15 C9          3.3130   -0.7730   -0.0600 ca        1 M77     -0.185300
     16 C10         2.1920    0.0990   -0.0180 ca        1 M77      0.076000
     17 C11         2.4590    1.4990   -0.0470 ca        1 M77     -0.245300
     18 C14         4.6250   -0.1930   -0.1270 ca        1 M77      0.430200
     19 N13         4.8560    1.1090   -0.1530 nb        1 M77     -0.663000
     20 C12         3.7680    1.9410   -0.1120 ca        1 M77      0.410200
     21 H221       -2.4750   -1.7580    1.5240 h1        1 M77      0.054700
     22 H222       -1.6890   -0.2970    2.2900 h1        1 M77      0.054700
     23 H211       -4.1720   -0.4750    2.6390 h1        1 M77      0.063700
     24 H212       -3.6180    1.1020    1.9140 h1        1 M77      0.063700
     25 H17        -4.8780   -1.1120    0.4400 hn        1 M77      0.356800
     26 H161       -5.5230    0.7390   -1.0330 h1        1 M77      0.055700
     27 H162       -4.1950    1.6690   -0.2170 h1        1 M77      0.055700
     28 H201       -4.0730   -0.5130   -2.3220 hc        1 M77      0.061200
     29 H202       -3.0620    0.9690   -2.0860 hc        1 M77      0.061200
     30 H151       -1.6380   -0.9230   -1.7900 h1        1 M77      0.047200
     31 H152       -2.8520   -1.8120   -0.7650 h1        1 M77      0.047200
     32 H6         -0.2590   -2.2940    0.1170 ha        1 M77      0.138000
     33 H7          1.6810   -3.7760    0.0450 ha        1 M77      0.143000
     34 H8          4.0020   -2.8360   -0.0690 ha        1 M77      0.141000
     35 H11         1.6320    2.2260   -0.0160 ha        1 M77      0.166000
     36 H14         5.5080   -0.8580   -0.1600 h4        1 M77      0.024100
     37 H12         4.0090    3.0200   -0.1360 h4        1 M77      0.031100
@<TRIPOS>BOND
     1    1    2 2   
     2    2    3 2   
     3    2    4 1   
     4    2   11 1   
     5    4    5 1   
     6    4   10 1   
     7    5    6 1   
     8    5   21 1   
     9    5   22 1   
    10    6    7 1   
    11    6   23 1   
    12    6   24 1   
    13    7    8 1   
    14    7   25 1   
    15    8    9 1   
    16    8   26 1   
    17    8   27 1   
    18    9   10 1   
    19    9   28 1   
    20    9   29 1   
    21   10   30 1   
    22   10   31 1   
    23   11   12 ar  
    24   11   16 ar  
    25   12   13 ar  
    26   12   32 1   
    27   13   14 ar  
    28   13   33 1   
    29   14   15 ar  
    30   14   34 1   
    31   15   16 ar  
    32   15   18 ar  
    33   16   17 ar  
    34   17   20 ar  
    35   17   35 1   
    36   18   19 ar  
    37   18   36 1   
    38   19   20 ar  
    39   20   37 1   
@<TRIPOS>SUBSTRUCTURE
     1 M77         1 TEMP              0 ****  ****    0 ROOT
