@<TRIPOS>MOLECULE
M77
   37    39     1     0     0
SMALL
bcc


@<TRIPOS>ATOM
      1 O1          0.2790    0.0560    0.3700 o         1 M77     -0.649300
      2 S1          1.6630    0.0040    0.0960 sy        1 M77      1.492200
      3 O2          2.5080    0.0180    1.2290 o         1 M77     -0.649300
      4 N4          2.0020   -1.2930   -0.8230 n3        1 M77     -0.815500
      5 C22         3.2640   -1.9800   -0.7460 c3        1 M77      0.227800
      6 C21         3.2190   -3.3740   -0.0830 c3        1 M77      0.147800
      7 N17         2.2300   -4.2630   -0.6520 n3        1 M77     -0.826200
      8 C16         0.8660   -3.9860   -0.2490 c3        1 M77      0.170800
      9 C20         0.1400   -2.9590   -1.1160 c3        1 M77     -0.097400
     10 C15         1.0220   -1.8640   -1.7120 c3        1 M77      0.237800
     11 C5          2.0580    1.3490   -0.8860 ca        1 M77     -0.344500
     12 C6          2.4780    1.2500   -2.1980 ca        1 M77      0.011000
     13 C7          2.7920    2.3830   -2.9790 ca        1 M77     -0.173000
     14 C8          2.6820    3.6420   -2.4400 ca        1 M77     -0.036000
     15 C9          2.2510    3.7970   -1.1010 ca        1 M77     -0.185300
     16 C10         1.9370    2.6560   -0.3170 ca        1 M77      0.076000
     17 C11         1.5050    2.8870    1.0220 ca        1 M77     -0.244300
     18 C14         2.1180    5.0940   -0.4990 ca        1 M77      0.429200
     19 N13         1.7170    5.2930    0.7450 nb        1 M77     -0.663000
     20 C12         1.4140    4.1850    1.4930 ca        1 M77      0.408200
     21 H221        3.9820   -1.3510   -0.1430 h1        1 M77      0.056700
     22 H222        3.6810   -2.0940   -1.7890 h1        1 M77      0.056700
     23 H211        3.0740   -3.2290    1.0290 h1        1 M77      0.039700
     24 H212        4.2360   -3.8340   -0.2380 h1        1 M77      0.039700
     25 H17         2.4650   -5.2110   -0.4220 hn        1 M77      0.364800
     26 H161        0.2800   -4.9490   -0.3040 h1        1 M77      0.032200
     27 H162        0.8180   -3.6340    0.8250 h1        1 M77      0.032200
     28 H201       -0.3570   -3.4810   -1.9750 hc        1 M77      0.056200
     29 H202       -0.6640   -2.4880   -0.4890 hc        1 M77      0.056200
     30 H151        0.3480   -1.0290   -2.0660 h1        1 M77      0.050700
     31 H152        1.5540   -2.2840   -2.6150 h1        1 M77      0.050700
     32 H6          2.5830    0.2660   -2.6890 ha        1 M77      0.141000
     33 H7          3.1230    2.2420   -4.0190 ha        1 M77      0.143000
     34 H8          2.9220    4.5390   -3.0330 ha        1 M77      0.141000
     35 H11         1.2480    2.0420    1.6800 ha        1 M77      0.167000
     36 H14         2.3600    5.9940   -1.0950 h4        1 M77      0.023100
     37 H12         1.0830    4.3990    2.5250 h4        1 M77      0.030100
@<TRIPOS>BOND
     1    1    2 2   
     2    2    3 2   
     3    2    4 1   
     4    2   11 1   
     5    4    5 1   
     6    4   10 1   
     7    5    6 1   
     8    5   21 1   
     9    5   22 1   
    10    6    7 1   
    11    6   23 1   
    12    6   24 1   
    13    7    8 1   
    14    7   25 1   
    15    8    9 1   
    16    8   26 1   
    17    8   27 1   
    18    9   10 1   
    19    9   28 1   
    20    9   29 1   
    21   10   30 1   
    22   10   31 1   
    23   11   12 ar  
    24   11   16 ar  
    25   12   13 ar  
    26   12   32 1   
    27   13   14 ar  
    28   13   33 1   
    29   14   15 ar  
    30   14   34 1   
    31   15   16 ar  
    32   15   18 ar  
    33   16   17 ar  
    34   17   20 ar  
    35   17   35 1   
    36   18   19 ar  
    37   18   36 1   
    38   19   20 ar  
    39   20   37 1   
@<TRIPOS>SUBSTRUCTURE
     1 M77         1 TEMP              0 ****  ****    0 ROOT
