@<TRIPOS>MOLECULE
M77
   37    39     1     0     0
SMALL
bcc


@<TRIPOS>ATOM
      1 O1          0.2850    0.0530    0.3800 o         1 M77     -0.649300
      2 S1          1.6680    0.0030    0.0970 sy        1 M77      1.492200
      3 O2          2.5190    0.0190    1.2260 o         1 M77     -0.649300
      4 N4          2.0040   -1.2920   -0.8230 n3        1 M77     -0.815500
      5 C22         3.2660   -1.9790   -0.7540 c3        1 M77      0.227800
      6 C21         3.2270   -3.3730   -0.0900 c3        1 M77      0.147800
      7 N17         2.2360   -4.2630   -0.6550 n7        1 M77     -0.826200
      8 C16         0.8730   -3.9870   -0.2450 c3        1 M77      0.170800
      9 C20         0.1420   -2.9600   -1.1070 c3        1 M77     -0.097400
     10 C15         1.0200   -1.8650   -1.7070 c3        1 M77      0.237800
     11 C5          2.0560    1.3490   -0.8860 ca        1 M77     -0.344500
     12 C6          2.4690    1.2510   -2.2000 ca        1 M77      0.011000
     13 C7          2.7770    2.3850   -2.9820 ca        1 M77     -0.173000
     14 C8          2.6680    3.6440   -2.4430 ca        1 M77     -0.036000
     15 C9          2.2430    3.7980   -1.1010 ca        1 M77     -0.185300
     16 C10         1.9350    2.6560   -0.3160 ca        1 M77      0.076000
     17 C11         1.5100    2.8860    1.0250 ca        1 M77     -0.244300
     18 C14         2.1110    5.0950   -0.4990 ca        1 M77      0.429200
     19 N13         1.7160    5.2930    0.7470 nb        1 M77     -0.663000
     20 C12         1.4190    4.1840    1.4960 ca        1 M77      0.408200
     21 H221        3.6780   -2.0920   -1.7980 h1        1 M77      0.056700
     22 H222        3.9870   -1.3490   -0.1530 h1        1 M77      0.056700
     23 H211        4.2430   -3.8320   -0.2510 h1        1 M77      0.039700
     24 H212        3.0870   -3.2280    1.0220 h1        1 M77      0.039700
     25 H17         2.4720   -5.2110   -0.4270 hn        1 M77      0.364800
     26 H161        0.2880   -4.9510   -0.2980 h1        1 M77      0.032200
     27 H162        0.8300   -3.6350    0.8300 h1        1 M77      0.032200
     28 H201       -0.3590   -3.4830   -1.9640 hc        1 M77      0.056200
     29 H202       -0.6590   -2.4910   -0.4760 hc        1 M77      0.056200
     30 H151        1.5470   -2.2830   -2.6140 h1        1 M77      0.050700
     31 H152        0.3420   -1.0300   -2.0580 h1        1 M77      0.050700
     32 H6          2.5740    0.2670   -2.6920 ha        1 M77      0.141000
     33 H7          3.1040    2.2440   -4.0240 ha        1 M77      0.143000
     34 H8          2.9040    4.5410   -3.0370 ha        1 M77      0.141000
     35 H11         1.2570    2.0410    1.6840 ha        1 M77      0.167000
     36 H14         2.3480    5.9940   -1.0970 h4        1 M77      0.023100
     37 H12         1.0930    4.3970    2.5300 h4        1 M77      0.030100
@<TRIPOS>BOND
     1    1    2 2   
     2    2    3 2   
     3    2    4 1   
     4    2   11 1   
     5    4    5 1   
     6    4   10 1   
     7    5    6 1   
     8    5   21 1   
     9    5   22 1   
    10    6    7 1   
    11    6   23 1   
    12    6   24 1   
    13    7    8 1   
    14    7   25 1   
    15    8    9 1   
    16    8   26 1   
    17    8   27 1   
    18    9   10 1   
    19    9   28 1   
    20    9   29 1   
    21   10   30 1   
    22   10   31 1   
    23   11   12 ar  
    24   11   16 ar  
    25   12   13 ar  
    26   12   32 1   
    27   13   14 ar  
    28   13   33 1   
    29   14   15 ar  
    30   14   34 1   
    31   15   16 ar  
    32   15   18 ar  
    33   16   17 ar  
    34   17   20 ar  
    35   17   35 1   
    36   18   19 ar  
    37   18   36 1   
    38   19   20 ar  
    39   20   37 1   
@<TRIPOS>SUBSTRUCTURE
     1 M77         1 TEMP              0 ****  ****    0 ROOT
