@<TRIPOS>MOLECULE
M77
   37    33     1     0     0
SMALL
bcc


@<TRIPOS>ATOM
      1 O1         -2.0980    0.1270    0.1460 o         1 M77     -0.933500
      2 S1         -0.6770    0.0600    0.3470 ss        1 M77      2.837000
      3 O2         -0.6020   -0.0370    1.7780 o         1 M77     -0.933500
      4 N4         -0.0360   -1.2670   -0.3730 n2        1 M77     -0.829000
      5 C22         1.1950   -1.8680    0.0010 c3        1 M77     -0.008000
      6 C21         0.9610   -3.1990    0.6810 c3        1 M77     -0.089000
      7 N17         0.2660   -4.0930   -0.1800 n3        1 M77     -0.304000
      8 C16        -1.1380   -4.0210    0.0360 c3        1 M77     -0.065000
      9 C20        -1.7540   -2.9110   -0.7870 c3        1 M77     -0.177000
     10 C15        -0.6840   -2.0250   -1.3830 c3        1 M77      0.005000
     11 C5          0.1260    1.5270   -0.2420 c1        1 M77     -0.804000
     12 C6          0.5730    1.5730   -1.5520 c2        1 M77      0.009000
     13 C7          1.0440    2.7620   -2.0820 c1        1 M77     -0.170000
     14 C8          1.0690    3.9060   -1.3010 c1        1 M77     -0.033500
     15 C9          0.6140    3.8600    0.0340 c1        1 M77     -0.126000
     16 C10         0.1520    2.6930    0.5540 c1        1 M77      0.087000
     17 C11        -0.2940    2.6490    1.8660 c1        1 M77     -0.192000
     18 C14         0.6400    5.0200    0.8290 c1        1 M77     -0.033500
     19 N13         0.2000    4.9740    2.1220 n1        1 M77     -0.140000
     20 C12        -0.2670    3.7980    2.6470 c1        1 M77     -0.060000
     21 H221        1.6710   -1.2710    0.6150 h1        1 M77      0.097000
     22 H222        1.7420   -2.0070   -0.8000 h1        1 M77      0.097000
     23 H211        0.4310   -3.0570    1.4930 h1        1 M77      0.076500
     24 H212        1.8240   -3.5920    0.9250 h1        1 M77      0.076500
     25 H17         0.5550   -4.9470   -0.0300 hn        1 M77      0.160000
     26 H161       -1.3090   -3.8510    0.9850 h1        1 M77      0.071000
     27 H162       -1.5470   -4.8750   -0.2170 h1        1 M77      0.071000
     28 H201       -2.3370   -2.3720   -0.2160 hc        1 M77      0.093500
     29 H202       -2.2850   -3.3030   -1.5090 hc        1 M77      0.093500
     30 H151       -1.0950   -1.4140   -2.0300 h1        1 M77      0.087500
     31 H152       -0.0220   -2.5820   -1.8420 h1        1 M77      0.087500
     32 H6          0.5550    0.7670   -2.1030 ha        1 M77      0.164000
     33 H7          1.3590    2.7940   -3.0050 ha        1 M77      0.146000
     34 H8          1.4020    4.7440   -1.6740 ha        1 M77      0.150500
     35 H11        -0.6260    1.8130    2.2400 ha        1 M77      0.171000
     36 H14         0.9720    5.8590    0.4560 ha        1 M77      0.150500
     37 H12        -0.5800    3.7670    3.5710 ha        1 M77      0.165000
@<TRIPOS>BOND
     1    1    2 1   
     2    2    3 1   
     3    4    5 1   
     4    4   10 1   
     5    5    6 1   
     6    5   21 1   
     7    5   22 1   
     8    6    7 1   
     9    6   23 1   
    10    6   24 1   
    11    7    8 1   
    12    7   25 1   
    13    8    9 1   
    14    8   26 1   
    15    8   27 1   
    16    9   10 1   
    17    9   28 1   
    18    9   29 1   
    19   10   30 1   
    20   10   31 1   
    21   11   12 1   
    22   11   16 1   
    23   12   13 1   
    24   12   32 1   
    25   13   33 1   
    26   14   15 1   
    27   14   34 1   
    28   15   18 1   
    29   16   17 1   
    30   17   35 1   
    31   18   36 1   
    32   19   20 1   
    33   20   37 1   
@<TRIPOS>SUBSTRUCTURE
     1 M77         1 TEMP              0 ****  ****    0 ROOT
