@<TRIPOS>MOLECULE
M7B
   31    31     1     0     0
SMALL
bcc


@<TRIPOS>ATOM
      1 P           2.0990   -0.4830    2.0220 p5        1 M7B      1.321900
      2 C1          5.0990   -4.3860    0.4170 c3        1 M7B      0.316900
      3 C2          6.3840   -3.8070    1.0590 c3        1 M7B      0.096100
      4 O2          7.4760   -4.0110    0.1710 oh        1 M7B     -0.624800
      5 C3          6.1660   -2.3400    1.4300 c3        1 M7B      0.049100
      6 O3          7.4280   -1.7970    1.8070 oh        1 M7B     -0.638800
      7 C4          5.5800   -1.5510    0.2370 c3        1 M7B      0.142100
      8 O4          5.4260   -0.2060    0.6070 oh        1 M7B     -0.670800
      9 C5          4.2670   -2.2480   -0.1450 c3        1 M7B      0.054100
     10 C6          3.4490   -1.5340   -1.2270 c3        1 M7B      0.117100
     11 O6          4.1960   -0.5150   -1.8680 oh        1 M7B     -0.646800
     12 C7          2.1600   -0.9480   -0.5890 c3        1 M7B      0.177400
     13 O7          2.4560   -0.0280    0.3840 os        1 M7B     -0.581200
     14 O8          3.4890   -0.9930    2.3670 o         1 M7B     -0.917167
     15 O9          1.6830    0.8050    2.6560 o         1 M7B     -0.917167
     16 O10         1.0720   -1.5670    1.8730 o         1 M7B     -0.917167
     17 O1          5.3630   -5.5970   -0.2480 oh        1 M7B     -0.613800
     18 O5          4.5950   -3.5670   -0.6250 os        1 M7B     -0.465600
     19 H1          4.3130   -4.5960    1.1920 h2        1 M7B      0.089700
     20 H2          6.6460   -4.4110    1.9710 h1        1 M7B      0.060700
     21 H3          7.5800   -3.1980   -0.3370 ho        1 M7B      0.410000
     22 H4          5.4340   -2.2440    2.2910 h1        1 M7B      0.139700
     23 H5          7.2710   -0.8440    1.8810 ho        1 M7B      0.421000
     24 H6          6.2960   -1.5440   -0.6300 h1        1 M7B      0.029700
     25 H7          4.6110   -0.1470    1.1830 ho        1 M7B      0.505000
     26 H8          3.6230   -2.3160    0.7970 h1        1 M7B      0.152700
     27 H9          3.1860   -2.2580   -2.0460 h1        1 M7B      0.038700
     28 H10         4.2730    0.2010   -1.2160 ho        1 M7B      0.434000
     29 H11         1.5990   -0.4380   -1.4270 h1        1 M7B      0.014700
     30 H12         1.5360   -1.7930   -0.1800 h1        1 M7B      0.014700
     31 H15         6.0210   -5.4010   -0.9290 ho        1 M7B      0.408000
@<TRIPOS>BOND
     1    1   13 1   
     2    1   14 1   
     3    1   15 1   
     4    1   16 1   
     5    2    3 1   
     6    2   17 1   
     7    2   18 1   
     8    2   19 1   
     9    3    4 1   
    10    3    5 1   
    11    3   20 1   
    12    4   21 1   
    13    5    6 1   
    14    5    7 1   
    15    5   22 1   
    16    6   23 1   
    17    7    8 1   
    18    7    9 1   
    19    7   24 1   
    20    8   25 1   
    21    9   10 1   
    22    9   18 1   
    23    9   26 1   
    24   10   11 1   
    25   10   12 1   
    26   10   27 1   
    27   11   28 1   
    28   12   13 1   
    29   12   29 1   
    30   12   30 1   
    31   17   31 1   
@<TRIPOS>SUBSTRUCTURE
     1 M7B         1 TEMP              0 ****  ****    0 ROOT
