@<TRIPOS>MOLECULE
M7B
   31    31     1     0     0
SMALL
bcc


@<TRIPOS>ATOM
      1 P          -2.1900   -0.5880   -1.3500 p5        1 M7B      1.333900
      2 C1          2.2080    1.7100   -0.6480 c3        1 M7B      0.304900
      3 C2          3.4530    0.8210   -0.8170 c3        1 M7B      0.086100
      4 O2          4.3010    0.8810    0.3210 oh        1 M7B     -0.618800
      5 C3          2.9790   -0.6290   -1.0420 c3        1 M7B      0.073100
      6 O3          4.1150   -1.4740   -1.1090 oh        1 M7B     -0.600800
      7 C4          1.9870   -1.0770    0.0630 c3        1 M7B      0.140100
      8 O4          1.5170   -2.3620   -0.2550 oh        1 M7B     -0.635800
      9 C5          0.8710   -0.0320    0.2020 c3        1 M7B      0.041100
     10 C6         -0.1340   -0.2800    1.3460 c3        1 M7B      0.131100
     11 O6         -0.3420   -1.6610    1.5180 oh        1 M7B     -0.649800
     12 C7         -1.4630    0.4520    0.9850 c3        1 M7B      0.195400
     13 O7         -2.3710   -0.3630    0.3600 os        1 M7B     -0.574200
     14 O8         -1.1740   -1.7110   -1.2440 o         1 M7B     -0.927167
     15 O9         -3.5650   -0.9010   -1.8420 o         1 M7B     -0.927167
     16 O10        -1.5390    0.6980   -1.7890 o         1 M7B     -0.927167
     17 O1          2.6020    3.0060   -0.2500 oh        1 M7B     -0.628800
     18 O5          1.4660    1.2520    0.4700 os        1 M7B     -0.469600
     19 H1          1.5790    1.7390   -1.5800 h2        1 M7B      0.088700
     20 H2          4.0910    1.1710   -1.6700 h1        1 M7B      0.064700
     21 H3          3.7160    0.9230    1.0910 ho        1 M7B      0.412000
     22 H4          2.4860   -0.7280   -2.0470 h1        1 M7B      0.097700
     23 H5          4.4710   -1.5190   -0.2130 ho        1 M7B      0.391000
     24 H6          2.5520   -1.1810    1.0330 h1        1 M7B      0.022700
     25 H7          0.6240   -2.2800   -0.6600 ho        1 M7B      0.497000
     26 H8          0.2630    0.0040   -0.7690 h1        1 M7B      0.168700
     27 H9          0.2840    0.0960    2.3170 h1        1 M7B      0.016700
     28 H10        -0.8990   -1.9420    0.7500 ho        1 M7B      0.478000
     29 H11        -1.9160    0.8080    1.9570 h1        1 M7B     -0.002300
     30 H12        -1.2200    1.3440    0.3410 h1        1 M7B     -0.002300
     31 H15         1.8530    3.3830    0.2320 ho        1 M7B      0.420000
@<TRIPOS>BOND
     1    1   13 1   
     2    1   14 1   
     3    1   15 1   
     4    1   16 1   
     5    2    3 1   
     6    2   17 1   
     7    2   18 1   
     8    2   19 1   
     9    3    4 1   
    10    3    5 1   
    11    3   20 1   
    12    4   21 1   
    13    5    6 1   
    14    5    7 1   
    15    5   22 1   
    16    6   23 1   
    17    7    8 1   
    18    7    9 1   
    19    7   24 1   
    20    8   25 1   
    21    9   10 1   
    22    9   18 1   
    23    9   26 1   
    24   10   11 1   
    25   10   12 1   
    26   10   27 1   
    27   11   28 1   
    28   12   13 1   
    29   12   29 1   
    30   12   30 1   
    31   17   31 1   
@<TRIPOS>SUBSTRUCTURE
     1 M7B         1 TEMP              0 ****  ****    0 ROOT
