@<TRIPOS>MOLECULE
M7B
   31    31     1     0     0
SMALL
bcc


@<TRIPOS>ATOM
      1 P           3.0490    0.7410   -0.0110 p5        1 M7B      1.324900
      2 C1          5.8720   -4.3070    0.0060 c3        1 M7B      0.326900
      3 C2          6.6800   -2.9980   -0.0680 c3        1 M7B      0.086100
      4 O2          6.3490   -2.2440   -1.2110 oh        1 M7B     -0.627800
      5 C3          6.5320   -2.2200    1.2460 c3        1 M7B      0.128100
      6 O3          7.2970   -1.0300    1.1750 oh        1 M7B     -0.625800
      7 C4          5.0540   -1.9200    1.5000 c3        1 M7B      0.042100
      8 O4          4.9100   -1.5380    2.8610 oh        1 M7B     -0.636800
      9 C5          4.1190   -3.1060    1.2260 c3        1 M7B      0.115100
     10 C6          3.0100   -2.7950    0.2040 c3        1 M7B      0.098100
     11 O6          3.5240   -2.5820   -1.0920 oh        1 M7B     -0.686800
     12 C7          2.0820   -1.6310    0.6480 c3        1 M7B      0.183400
     13 O7          2.7240   -0.5240    1.1410 os        1 M7B     -0.585200
     14 O8          1.8100    0.7620   -0.8520 o         1 M7B     -0.913500
     15 O9          3.3600    1.9100    0.8640 o         1 M7B     -0.913500
     16 O10         4.2440    0.0550   -0.6650 o         1 M7B     -0.913500
     17 O1          5.3600   -4.7130   -1.2330 oh        1 M7B     -0.647800
     18 O5          4.7910   -4.3280    0.9120 os        1 M7B     -0.466600
     19 H1          6.5340   -5.1580    0.3470 h2        1 M7B      0.044700
     20 H2          7.7640   -3.2670   -0.2220 h1        1 M7B      0.041700
     21 H3          5.6080   -1.6370   -1.0020 ho        1 M7B      0.481000
     22 H4          6.9800   -2.8050    2.0940 h1        1 M7B      0.055700
     23 H5          6.7850   -0.3960    0.6460 ho        1 M7B      0.441000
     24 H6          4.7470   -1.0470    0.8210 h1        1 M7B      0.177700
     25 H7          4.1880   -0.8890    2.8620 ho        1 M7B      0.441000
     26 H8          3.6000   -3.3730    2.1970 h1        1 M7B      0.055700
     27 H9          2.3840   -3.7320    0.1090 h1        1 M7B      0.016700
     28 H10         3.6340   -1.6060   -1.2130 ho        1 M7B      0.484000
     29 H11         1.4130   -2.0490    1.4570 h1        1 M7B      0.009700
     30 H12         1.4530   -1.3460   -0.2470 h1        1 M7B      0.009700
     31 H15         4.8930   -3.9580   -1.6260 ho        1 M7B      0.452000
@<TRIPOS>BOND
     1    1   13 1   
     2    1   14 1   
     3    1   15 1   
     4    1   16 1   
     5    2    3 1   
     6    2   17 1   
     7    2   18 1   
     8    2   19 1   
     9    3    4 1   
    10    3    5 1   
    11    3   20 1   
    12    4   21 1   
    13    5    6 1   
    14    5    7 1   
    15    5   22 1   
    16    6   23 1   
    17    7    8 1   
    18    7    9 1   
    19    7   24 1   
    20    8   25 1   
    21    9   10 1   
    22    9   18 1   
    23    9   26 1   
    24   10   11 1   
    25   10   12 1   
    26   10   27 1   
    27   11   28 1   
    28   12   13 1   
    29   12   29 1   
    30   12   30 1   
    31   17   31 1   
@<TRIPOS>SUBSTRUCTURE
     1 M7B         1 TEMP              0 ****  ****    0 ROOT
