@<TRIPOS>MOLECULE
M7B
   31    30     1     0     0
SMALL
bcc


@<TRIPOS>ATOM
      1 P          -4.2670    1.1950    2.2930 p4        1 M7B      1.708200
      2 C1          0.6030    0.2220   -2.3050 c3        1 M7B      0.306900
      3 C2          2.0370   -0.1800   -2.0200 c3        1 M7B      0.088100
      4 O2          2.7900    0.9940   -1.6820 oh        1 M7B     -0.609800
      5 C3          2.1380   -1.1550   -0.9030 c3        1 M7B      0.075100
      6 O3          3.5450   -1.3530   -0.5730 oh        1 M7B     -0.623800
      7 C4          1.4190   -0.6920    0.3120 c3        1 M7B      0.130100
      8 O4          1.4090   -1.7530    1.2780 oh        1 M7B     -0.661800
      9 C5         -0.0160   -0.2850    0.0140 c3        1 M7B      0.081100
     10 C6         -0.6080    0.3320    1.2380 c3        1 M7B      0.138100
     11 O6         -0.3330   -0.4820    2.3540 oh        1 M7B     -0.648800
     12 C7         -2.1190    0.4600    1.0630 c3        1 M7B      0.200400
     13 O7         -2.6700    1.0580    2.1980 os        1 M7B     -0.566200
     14 O8         -4.8890   -0.1820    2.3690 o         1 M7B     -0.933500
     15 O9         -4.7850    1.9150    1.0710 os        1 M7B     -1.244000
     16 O10        -4.6330    1.9820    3.5350 o         1 M7B     -0.982300
     17 O1          0.6010    1.2540   -3.2330 oh        1 M7B     -0.605800
     18 O5         -0.1100    0.6720   -1.0910 os        1 M7B     -0.464600
     19 H1          0.1310   -0.5410   -2.6810 h2        1 M7B      0.082700
     20 H2          2.4190   -0.5790   -2.8230 h1        1 M7B      0.069700
     21 H3          3.4290    1.1370   -2.3130 ho        1 M7B      0.411000
     22 H4          1.7580   -2.0050   -1.1900 h1        1 M7B      0.052700
     23 H5          3.8140   -2.1460   -0.8820 ho        1 M7B      0.423000
     24 H6          1.8910    0.0690    0.6850 h1        1 M7B      0.035700
     25 H7          2.2050   -1.7750    1.7090 ho        1 M7B      0.519000
     26 H8         -0.5270   -1.0800   -0.2150 h1        1 M7B      0.111700
     27 H9         -0.2200    1.2170    1.3770 h1        1 M7B      0.018700
     28 H10        -0.1810    0.0380    3.0730 ho        1 M7B      0.478000
     29 H11        -2.5120   -0.4360    0.9390 h1        1 M7B      0.000200
     30 H12        -2.3120    1.0160    0.2720 h1        1 M7B      0.000200
     31 H15        -0.0070    1.0850   -3.8680 ho        1 M7B      0.411000
@<TRIPOS>BOND
     1    1   13 1   
     2    1   14 1   
     3    1   16 2   
     4    2    3 1   
     5    2   17 1   
     6    2   18 1   
     7    2   19 1   
     8    3    4 1   
     9    3    5 1   
    10    3   20 1   
    11    4   21 1   
    12    5    6 1   
    13    5    7 1   
    14    5   22 1   
    15    6   23 1   
    16    7    8 1   
    17    7    9 1   
    18    7   24 1   
    19    8   25 1   
    20    9   10 1   
    21    9   18 1   
    22    9   26 1   
    23   10   11 1   
    24   10   12 1   
    25   10   27 1   
    26   11   28 1   
    27   12   13 1   
    28   12   29 1   
    29   12   30 1   
    30   17   31 1   
@<TRIPOS>SUBSTRUCTURE
     1 M7B         1 TEMP              0 ****  ****    0 ROOT
