@<TRIPOS>MOLECULE
M7C
   41    43     1     0     0
SMALL
bcc


@<TRIPOS>ATOM
      1 C15        -0.0230   -0.0050   -0.0380 ca        1 M7C     -0.070000
      2 C14         1.3610   -0.1560   -0.0440 ca        1 M7C     -0.151000
      3 C13         2.0580   -0.2590    1.1610 ca        1 M7C     -0.097000
      4 C12         1.3670   -0.2100    2.3710 ca        1 M7C     -0.151000
      5 C11        -0.0200   -0.0600    2.3860 ca        1 M7C     -0.070000
      6 C10        -0.7210    0.0430    1.1790 ca        1 M7C     -0.133600
      7 C9         -2.1940    0.2040    1.1170 c         1 M7C      0.721100
      8 O8         -2.7900    0.3670    0.0300 o         1 M7C     -0.581100
      9 N2         -2.8930    0.1780    2.3470 ne        1 M7C     -0.722100
     10 C8         -4.1990    0.1980    2.3860 c2        1 M7C      0.576800
     11 S1         -5.3110    0.2450    1.0230 ss        1 M7C     -0.109300
     12 N1         -4.9000    0.1970    3.6010 ns        1 M7C     -0.492400
     13 C7         -6.2980    0.1880    3.5140 c         1 M7C      0.692500
     14 O7         -7.0090    0.1760    4.5230 o         1 M7C     -0.556500
     15 C1         -6.8020    0.1810    2.0620 c3        1 M7C      0.096900
     16 O5         -7.4150   -1.0520    1.7430 os        1 M7C     -0.367600
     17 C5         -8.6870   -1.2880    2.3720 c3        1 M7C      0.120100
     18 C6         -9.1450   -2.6550    1.8590 c3        1 M7C      0.137400
     19 O6         -8.5460   -3.6300    2.6960 oh        1 M7C     -0.594800
     20 C4         -9.6770   -0.1850    1.9670 c3        1 M7C      0.126100
     21 O4        -10.9000   -0.4480    2.6260 oh        1 M7C     -0.589800
     22 C3         -9.1000    1.1730    2.4020 c3        1 M7C      0.105100
     23 O3        -10.0070    2.1630    1.9560 oh        1 M7C     -0.602800
     24 C2         -7.7240    1.3680    1.7400 c3        1 M7C      0.107100
     25 O2         -7.2180    2.5900    2.2410 oh        1 M7C     -0.589800
     26 H15        -0.5830    0.0790   -0.9840 ha        1 M7C      0.155500
     27 H14         1.9030   -0.1930   -1.0000 ha        1 M7C      0.137500
     28 H13         3.1520   -0.3780    1.1550 ha        1 M7C      0.135000
     29 H12         1.9160   -0.2910    3.3210 ha        1 M7C      0.137500
     30 H11        -0.5470   -0.0240    3.3520 ha        1 M7C      0.155500
     31 H1         -4.4340    0.1560    4.4800 hn        1 M7C      0.361500
     32 H2         -7.8490    1.4230    0.6210 h1        1 M7C      0.077700
     33 H5         -8.5570   -1.3100    3.4900 h1        1 M7C      0.104700
     34 H61C       -8.8300   -2.7970    0.7920 h1        1 M7C      0.050200
     35 H62C      -10.2640   -2.7140    1.9460 h1        1 M7C      0.050200
     36 H4         -9.8400   -0.1880    0.8530 h1        1 M7C      0.057700
     37 H6         -8.6760   -4.4810    2.2630 ho        1 M7C      0.405000
     38 HA        -11.4540    0.3360    2.5000 ho        1 M7C      0.427000
     39 H3         -8.9930    1.2150    3.5230 h1        1 M7C      0.090700
     40 HB         -9.6490    3.0140    2.2420 ho        1 M7C      0.428000
     41 HC         -6.4460    2.8200    1.7050 ho        1 M7C      0.421000
@<TRIPOS>BOND
     1    1    2 ar  
     2    1    6 ar  
     3    1   26 1   
     4    2    3 ar  
     5    2   27 1   
     6    3    4 ar  
     7    3   28 1   
     8    4    5 ar  
     9    4   29 1   
    10    5    6 ar  
    11    5   30 1   
    12    6    7 1   
    13    7    8 2   
    14    7    9 1   
    15    9   10 2   
    16   10   11 1   
    17   10   12 1   
    18   11   15 1   
    19   12   13 1   
    20   12   31 1   
    21   13   14 2   
    22   13   15 1   
    23   15   16 1   
    24   15   24 1   
    25   16   17 1   
    26   17   18 1   
    27   17   20 1   
    28   17   33 1   
    29   18   19 1   
    30   18   34 1   
    31   18   35 1   
    32   19   37 1   
    33   20   21 1   
    34   20   22 1   
    35   20   36 1   
    36   21   38 1   
    37   22   23 1   
    38   22   24 1   
    39   22   39 1   
    40   23   40 1   
    41   24   25 1   
    42   24   32 1   
    43   25   41 1   
@<TRIPOS>SUBSTRUCTURE
     1 M7C         1 TEMP              0 ****  ****    0 ROOT
