@<TRIPOS>MOLECULE
M7C
   41    43     1     0     0
SMALL
bcc


@<TRIPOS>ATOM
      1 C15        -0.0260    0.0050   -0.0490 ca        1 M7C     -0.070000
      2 C14         1.3580   -0.1460   -0.0570 ca        1 M7C     -0.151000
      3 C13         2.0570   -0.2600    1.1460 ca        1 M7C     -0.097000
      4 C12         1.3670   -0.2230    2.3570 ca        1 M7C     -0.151000
      5 C11        -0.0200   -0.0730    2.3750 ca        1 M7C     -0.070000
      6 C10        -0.7230    0.0410    1.1700 ca        1 M7C     -0.133600
      7 C9         -2.1960    0.2020    1.1100 c         1 M7C      0.721100
      8 O8         -2.7940    0.3640    0.0240 o         1 M7C     -0.581100
      9 N2         -2.8920    0.1770    2.3420 ne        1 M7C     -0.722100
     10 C8         -4.1990    0.1980    2.3830 c2        1 M7C      0.576800
     11 S1         -5.3130    0.2430    1.0230 ss        1 M7C     -0.109300
     12 N1         -4.8970    0.1980    3.6000 n         1 M7C     -0.492400
     13 C7         -6.2940    0.1900    3.5160 c         1 M7C      0.692500
     14 O7         -7.0030    0.1790    4.5260 o         1 M7C     -0.556500
     15 C1         -6.8020    0.1810    2.0640 c3        1 M7C      0.096900
     16 O5         -7.4160   -1.0520    1.7490 os        1 M7C     -0.367600
     17 C5         -8.6860   -1.2870    2.3800 c3        1 M7C      0.120100
     18 C6         -9.1450   -2.6550    1.8710 c3        1 M7C      0.137400
     19 O6         -8.5460   -3.6280    2.7080 oh        1 M7C     -0.594800
     20 C4         -9.6770   -0.1850    1.9760 c3        1 M7C      0.126100
     21 O4        -10.8990   -0.4470    2.6380 oh        1 M7C     -0.589800
     22 C3         -9.0990    1.1740    2.4080 c3        1 M7C      0.105100
     23 O3        -10.0070    2.1640    1.9620 oh        1 M7C     -0.602800
     24 C2         -7.7240    1.3680    1.7440 c3        1 M7C      0.107100
     25 O2         -7.2170    2.5900    2.2420 oh        1 M7C     -0.589800
     26 H15        -0.5860    0.0970   -0.9940 ha        1 M7C      0.155500
     27 H14         1.9000   -0.1740   -1.0140 ha        1 M7C      0.137500
     28 H13         3.1510   -0.3780    1.1380 ha        1 M7C      0.135000
     29 H12         1.9170   -0.3120    3.3060 ha        1 M7C      0.137500
     30 H11        -0.5460   -0.0460    3.3410 ha        1 M7C      0.155500
     31 H1         -4.4280    0.1590    4.4780 hn        1 M7C      0.361500
     32 H2         -7.8510    1.4210    0.6240 h1        1 M7C      0.077700
     33 H5         -8.5540   -1.3070    3.4980 h1        1 M7C      0.104700
     34 H61C      -10.2640   -2.7130    1.9600 h1        1 M7C      0.050200
     35 H62C       -8.8320   -2.7990    0.8030 h1        1 M7C      0.050200
     36 H4         -9.8420   -0.1890    0.8630 h1        1 M7C      0.057700
     37 H6         -8.6790   -4.4810    2.2780 ho        1 M7C      0.405000
     38 HA        -11.4520    0.3370    2.5120 ho        1 M7C      0.427000
     39 H3         -8.9900    1.2170    3.5290 h1        1 M7C      0.090700
     40 HB         -9.6480    3.0150    2.2470 ho        1 M7C      0.428000
     41 HC         -6.4460    2.8200    1.7040 ho        1 M7C      0.421000
@<TRIPOS>BOND
     1    1    2 ar  
     2    1    6 ar  
     3    1   26 1   
     4    2    3 ar  
     5    2   27 1   
     6    3    4 ar  
     7    3   28 1   
     8    4    5 ar  
     9    4   29 1   
    10    5    6 ar  
    11    5   30 1   
    12    6    7 1   
    13    7    8 2   
    14    7    9 1   
    15    9   10 2   
    16   10   11 1   
    17   10   12 1   
    18   11   15 1   
    19   12   13 1   
    20   12   31 1   
    21   13   14 2   
    22   13   15 1   
    23   15   16 1   
    24   15   24 1   
    25   16   17 1   
    26   17   18 1   
    27   17   20 1   
    28   17   33 1   
    29   18   19 1   
    30   18   34 1   
    31   18   35 1   
    32   19   37 1   
    33   20   21 1   
    34   20   22 1   
    35   20   36 1   
    36   21   38 1   
    37   22   23 1   
    38   22   24 1   
    39   22   39 1   
    40   23   40 1   
    41   24   25 1   
    42   24   32 1   
    43   25   41 1   
@<TRIPOS>SUBSTRUCTURE
     1 M7C         1 TEMP              0 ****  ****    0 ROOT
