@<TRIPOS>MOLECULE
M7C
   41    43     1     0     0
SMALL
bcc


@<TRIPOS>ATOM
      1 C15        -0.0610   -0.0710   -0.0270 ca        1 M7C     -0.069500
      2 C14         1.3250   -0.1930   -0.0410 ca        1 M7C     -0.151000
      3 C13         2.0340   -0.2540    1.1600 ca        1 M7C     -0.095000
      4 C12         1.3520   -0.1930    2.3750 ca        1 M7C     -0.151000
      5 C11        -0.0380   -0.0710    2.3980 ca        1 M7C     -0.069500
      6 C10        -0.7510   -0.0100    1.1950 ca        1 M7C     -0.134600
      7 C9         -2.2270    0.1190    1.1410 c         1 M7C      0.719100
      8 O8         -2.8380    0.2330    0.0560 o         1 M7C     -0.580100
      9 N2         -2.9170    0.1160    2.3770 ne        1 M7C     -0.718100
     10 C8         -4.2240    0.1350    2.4140 c2        1 M7C      0.571800
     11 S1         -5.3280    0.1560    1.0440 ss        1 M7C     -0.104300
     12 N1         -4.9300    0.1490    3.6260 n         1 M7C     -0.492400
     13 C7         -6.3270    0.1480    3.5330 c         1 M7C      0.690500
     14 O7         -7.0430    0.1410    4.5380 o         1 M7C     -0.555500
     15 C1         -6.8240    0.1340    2.0780 c3        1 M7C      0.095900
     16 O5         -7.4590   -1.0910    1.7730 os        1 M7C     -0.383600
     17 C5         -8.7450   -1.2950    2.3830 c3        1 M7C      0.081100
     18 C6         -9.2280   -2.6480    1.8530 c3        1 M7C      0.142400
     19 O6         -8.4350   -3.7050    2.3420 oh        1 M7C     -0.589800
     20 C4         -9.7100   -0.1710    1.9840 c3        1 M7C      0.130100
     21 O4        -10.9300   -0.4070    2.6620 oh        1 M7C     -0.588800
     22 C3         -9.1020    1.1770    2.4070 c3        1 M7C      0.104100
     23 O3         -9.9860    2.1840    1.9540 oh        1 M7C     -0.601800
     24 C2         -7.7230    1.3350    1.7410 c3        1 M7C      0.107100
     25 O2         -7.1890    2.5510    2.2260 oh        1 M7C     -0.589800
     26 H15        -0.6300   -0.0210   -0.9700 ha        1 M7C      0.155500
     27 H14         1.8610   -0.2410   -1.0000 ha        1 M7C      0.138500
     28 H13         3.1300   -0.3500    1.1480 ha        1 M7C      0.136000
     29 H12         1.9090   -0.2400    3.3220 ha        1 M7C      0.138500
     30 H11        -0.5580   -0.0240    3.3670 ha        1 M7C      0.155500
     31 H1         -4.4670    0.1340    4.5080 hn        1 M7C      0.362500
     32 H2         -7.8480    1.3760    0.6210 h1        1 M7C      0.078700
     33 H5         -8.6240   -1.3260    3.5010 h1        1 M7C      0.097700
     34 H61C       -9.2330   -2.6420    0.7310 h1        1 M7C      0.067700
     35 H62C      -10.2630   -2.8380    2.2490 h1        1 M7C      0.067700
     36 H4         -9.8870   -0.1740    0.8730 h1        1 M7C      0.059700
     37 H6         -7.5380   -3.5640    2.0120 ho        1 M7C      0.409000
     38 HA        -11.4760    0.3790    2.5220 ho        1 M7C      0.427000
     39 H3         -8.9910    1.2260    3.5270 h1        1 M7C      0.090700
     40 HB         -9.6090    3.0290    2.2350 ho        1 M7C      0.428000
     41 HC         -6.4260    2.7690    1.6730 ho        1 M7C      0.421000
@<TRIPOS>BOND
     1    1    2 ar  
     2    1    6 ar  
     3    1   26 1   
     4    2    3 ar  
     5    2   27 1   
     6    3    4 ar  
     7    3   28 1   
     8    4    5 ar  
     9    4   29 1   
    10    5    6 ar  
    11    5   30 1   
    12    6    7 1   
    13    7    8 2   
    14    7    9 1   
    15    9   10 2   
    16   10   11 1   
    17   10   12 1   
    18   11   15 1   
    19   12   13 1   
    20   12   31 1   
    21   13   14 2   
    22   13   15 1   
    23   15   16 1   
    24   15   24 1   
    25   16   17 1   
    26   17   18 1   
    27   17   20 1   
    28   17   33 1   
    29   18   19 1   
    30   18   34 1   
    31   18   35 1   
    32   19   37 1   
    33   20   21 1   
    34   20   22 1   
    35   20   36 1   
    36   21   38 1   
    37   22   23 1   
    38   22   24 1   
    39   22   39 1   
    40   23   40 1   
    41   24   25 1   
    42   24   32 1   
    43   25   41 1   
@<TRIPOS>SUBSTRUCTURE
     1 M7C         1 TEMP              0 ****  ****    0 ROOT
