@<TRIPOS>MOLECULE
M7G
   46    48     1     0     0
SMALL
bcc


@<TRIPOS>ATOM
      1 PA          0.0000    0.0000    0.0000 p5        1 M7G      0.947800
      2 O1A         1.6090    0.0000    0.0000 o         1 M7G     -0.640500
      3 O2A        -0.4940    0.0000    1.3940 o         1 M7G     -0.640500
      4 O3A        -0.5370   -1.3140   -0.7600 os        1 M7G     -0.455800
      5 O5'        -0.5370    1.3150   -0.7590 os        1 M7G     -0.455200
      6 PB          0.0350   -2.5830    0.0470 p5        1 M7G      0.854900
      7 O1B        -0.4660   -3.9400   -0.6610 o         1 M7G     -0.436833
      8 O2B         1.6440   -2.5410    0.0470 o         1 M7G     -0.436833
      9 O3B        -0.4600   -2.5450    1.4410 o         1 M7G     -0.436833
     10 C5'        -0.0300    2.4420   -0.0420 c3        1 M7G      0.249400
     11 C4'        -0.5050    3.7310   -0.7140 c3        1 M7G      0.147100
     12 O4'        -1.9470    3.8060   -0.6930 os        1 M7G     -0.357600
     13 C3'        -0.0350    4.9630    0.0880 c3        1 M7G      0.133100
     14 O3'         1.1460    5.5190   -0.4940 oh        1 M7G     -0.570800
     15 C2'        -1.2150    5.9580   -0.0230 c3        1 M7G      0.102100
     16 O2'        -0.7970    7.1590   -0.6760 oh        1 M7G     -0.572800
     17 C1'        -2.2580    5.2040   -0.8760 c3        1 M7G      0.383300
     18 N9         -3.6120    5.4920   -0.3980 nh        1 M7G     -0.391400
     19 C8         -4.7000    6.0830   -1.1860 c3        1 M7G      0.424000
     20 N7         -5.8470    6.1720   -0.2730 nh        1 M7G     -0.393400
     21 CM7        -7.1780    6.6960   -0.5880 c3        1 M7G      0.271100
     22 C5         -5.4160    5.6590    0.9690 cc        1 M7G     -0.408200
     23 C6         -6.0910    5.5020    2.1890 c         1 M7G      0.680700
     24 O6         -7.2570    5.8470    2.3030 o         1 M7G     -0.835500
     25 N1         -5.4290    4.9650    3.2340 ns        1 M7G     -0.011400
     26 C2         -4.1290    4.5850    3.0940 cc        1 M7G     -0.355200
     27 N2         -3.4720    4.0400    4.1680 nz        1 M7G      0.351400
     28 N3         -3.4890    4.7330    1.9560 nd        1 M7G     -0.567300
     29 C4         -4.0940    5.2560    0.8790 cd        1 M7G      0.234600
     30 H5'1       -0.3920    2.4130    0.9790 h1        1 M7G      0.009700
     31 H5'2        1.0530    2.4130   -0.0420 h1        1 M7G      0.009700
     32 H4'        -0.1420    3.7870   -1.7330 h1        1 M7G      0.021700
     33 H3'         0.1360    4.6960    1.1240 h1        1 M7G      0.015700
     34 HO3'        1.8030    5.6310    0.1730 ho        1 M7G      0.370000
     35 H2'        -1.6180    6.1740    0.9590 h1        1 M7G      0.041700
     36 HO2'       -0.8060    7.8720   -0.0580 ho        1 M7G      0.369000
     37 H1'        -2.1550    5.4770   -1.9200 h2        1 M7G      0.017700
     38 H81        -4.9410    5.4440   -2.0270 h2        1 M7G     -0.035800
     39 H82        -4.4190    7.0720   -1.5280 h2        1 M7G     -0.035800
     40 HM71       -7.2030    7.0180   -1.6220 h1        1 M7G     -0.018967
     41 HM72       -7.3970    7.5370    0.0580 h1        1 M7G     -0.018967
     42 HM73       -7.9170    5.9200   -0.4340 h1        1 M7G     -0.018967
     43 HN1        -5.8840    4.8760    4.1210 hn        1 M7G      0.118500
     44 HN21       -2.8400    4.7150    4.5510 hn        1 M7G      0.112467
     45 HN22       -4.1370    3.7720    4.8660 hn        1 M7G      0.112467
     46 H23        -2.9580    3.2340    3.8700 hn        1 M7G      0.112467
@<TRIPOS>BOND
     1    1    2 1   
     2    1    3 1   
     3    1    4 1   
     4    1    5 1   
     5    4    6 1   
     6    5   10 1   
     7    6    7 1   
     8    6    8 1   
     9    6    9 1   
    10   10   11 1   
    11   10   30 1   
    12   10   31 1   
    13   11   12 1   
    14   11   13 1   
    15   11   32 1   
    16   12   17 1   
    17   13   14 1   
    18   13   15 1   
    19   13   33 1   
    20   14   34 1   
    21   15   16 1   
    22   15   17 1   
    23   15   35 1   
    24   16   36 1   
    25   17   18 1   
    26   17   37 1   
    27   18   19 1   
    28   18   29 1   
    29   19   20 1   
    30   19   38 1   
    31   19   39 1   
    32   20   21 1   
    33   20   22 1   
    34   21   40 1   
    35   21   41 1   
    36   21   42 1   
    37   22   23 1   
    38   22   29 2   
    39   23   24 2   
    40   23   25 1   
    41   25   26 1   
    42   25   43 1   
    43   26   27 1   
    44   26   28 2   
    45   27   44 1   
    46   27   45 1   
    47   27   46 1   
    48   28   29 1   
@<TRIPOS>SUBSTRUCTURE
     1 M7G         1 TEMP              0 ****  ****    0 ROOT
