@<TRIPOS>MOLECULE
M7K
   41    43     1     0     0
SMALL
bcc


@<TRIPOS>ATOM
      1 N01        -0.1120    0.2630   -0.0420 nb        1 M7K     -0.757000
      2 C02         1.2400    0.2980   -0.0820 ca        1 M7K      0.686200
      3 N02         1.8790    0.5830   -1.2770 nv        1 M7K     -0.946500
      4 C03         2.0560    0.1060    1.1120 ca        1 M7K     -0.267300
      5 C04         1.4410   -0.0890    2.3130 ca        1 M7K     -0.049000
      6 C05         0.0160   -0.1100    2.3900 ca        1 M7K     -0.185300
      7 C06        -0.6720   -0.3050    3.6100 ca        1 M7K     -0.066000
      8 C07        -2.0460   -0.3180    3.6460 ca        1 M7K     -0.158000
      9 C08        -2.7870   -0.1440    2.4510 ca        1 M7K     -0.104300
     10 C09        -2.1470    0.0400    1.2440 ca        1 M7K     -0.173300
     11 C10        -0.7160    0.0700    1.1770 ca        1 M7K      0.454600
     12 C11        -4.2760   -0.1770    2.5030 c3        1 M7K     -0.049100
     13 C12        -4.7980    1.2570    2.4060 c3        1 M7K      0.097800
     14 N13        -6.2890    1.3240    2.3900 ny        1 M7K     -0.767000
     15 C14        -6.7880    2.7360    2.2940 c3        1 M7K      0.170100
     16 C21        -8.2780    2.7720    2.2290 ca        1 M7K     -0.161300
     17 C22        -8.9160    2.4920    1.0170 ca        1 M7K     -0.159000
     18 C23       -10.3180    2.5620    0.9460 ca        1 M7K      0.149900
     19 C24       -11.0710    2.9150    2.0860 ca        1 M7K     -0.117000
     20 C25       -10.4140    3.1930    3.2800 ca        1 M7K     -0.092000
     21 C26        -9.0210    3.1210    3.3600 ca        1 M7K     -0.111000
     22 F27       -10.9430    2.2890   -0.2200 f         1 M7K     -0.110900
     23 HN02        2.8350    0.3290   -1.3440 hn        1 M7K      0.432300
     24 HN0A        1.3510    0.5760   -2.1180 hn        1 M7K      0.432300
     25 H03         3.1530    0.1290    1.0290 ha        1 M7K      0.155000
     26 H04         2.0260   -0.2350    3.2350 ha        1 M7K      0.150000
     27 H06        -0.0870   -0.4480    4.5320 ha        1 M7K      0.146000
     28 H07        -2.5770   -0.4780    4.5950 ha        1 M7K      0.133000
     29 H09        -2.7220    0.1560    0.3120 ha        1 M7K      0.142000
     30 H11        -4.6690   -0.7950    1.6510 hc        1 M7K      0.069700
     31 H11A       -4.6190   -0.6530    3.4610 hc        1 M7K      0.069700
     32 H12        -4.4160    1.7360    1.4580 hx        1 M7K      0.110700
     33 H12A       -4.4310    1.8590    3.2850 hx        1 M7K      0.110700
     34 HN13       -6.6490    0.7870    1.5920 hn        1 M7K      0.449300
     35 H14        -6.4070    3.2980    3.1950 hx        1 M7K      0.111200
     36 H14A       -6.3390    3.1950    1.3660 hx        1 M7K      0.111200
     37 H22        -8.3420    2.2420    0.1120 ha        1 M7K      0.152000
     38 H24       -12.1690    2.9720    2.0150 ha        1 M7K      0.178000
     39 H25       -10.9980    3.4780    4.1710 ha        1 M7K      0.167000
     40 H26        -8.5180    3.3560    4.3100 ha        1 M7K      0.147000
     41 H132       -6.6600    0.8920    3.2440 hn        1 M7K      0.449300
@<TRIPOS>BOND
     1    1    2 ar  
     2    1   11 ar  
     3    2    3 1   
     4    2    4 ar  
     5    3   23 1   
     6    3   24 1   
     7    4    5 ar  
     8    4   25 1   
     9    5    6 ar  
    10    5   26 1   
    11    6    7 ar  
    12    6   11 ar  
    13    7    8 ar  
    14    7   27 1   
    15    8    9 ar  
    16    8   28 1   
    17    9   10 ar  
    18    9   12 1   
    19   10   11 ar  
    20   10   29 1   
    21   12   13 1   
    22   12   30 1   
    23   12   31 1   
    24   13   14 1   
    25   13   32 1   
    26   13   33 1   
    27   14   15 1   
    28   14   34 1   
    29   14   41 1   
    30   15   16 1   
    31   15   35 1   
    32   15   36 1   
    33   16   17 ar  
    34   16   21 ar  
    35   17   18 ar  
    36   17   37 1   
    37   18   19 ar  
    38   18   22 1   
    39   19   20 ar  
    40   19   38 1   
    41   20   21 ar  
    42   20   39 1   
    43   21   40 1   
@<TRIPOS>SUBSTRUCTURE
     1 M7K         1 TEMP              0 ****  ****    0 ROOT
