@<TRIPOS>MOLECULE
M7K
   41    43     1     0     0
SMALL
bcc


@<TRIPOS>ATOM
      1 N01        -0.1120    0.2490   -0.0450 nb        1 M7K     -0.757000
      2 C02         1.2400    0.2800   -0.0830 ca        1 M7K      0.686200
      3 N02         1.8830    0.5700   -1.2750 nh        1 M7K     -0.946500
      4 C03         2.0540    0.0780    1.1110 ca        1 M7K     -0.267300
      5 C04         1.4350   -0.1230    2.3100 ca        1 M7K     -0.049000
      6 C05         0.0100   -0.1390    2.3850 ca        1 M7K     -0.185300
      7 C06        -0.6810   -0.3400    3.6020 ca        1 M7K     -0.066000
      8 C07        -2.0550   -0.3490    3.6350 ca        1 M7K     -0.158000
      9 C08        -2.7930   -0.1640    2.4390 ca        1 M7K     -0.104300
     10 C09        -2.1500    0.0250    1.2350 ca        1 M7K     -0.173300
     11 C10        -0.7180    0.0500    1.1710 ca        1 M7K      0.454600
     12 C11        -4.2820   -0.1930    2.4890 c3        1 M7K     -0.049100
     13 C12        -4.7990    1.2440    2.4050 c3        1 M7K      0.097800
     14 N13        -6.2900    1.3170    2.3870 n4        1 M7K     -0.767000
     15 C14        -6.7830    2.7320    2.3070 c3        1 M7K      0.170100
     16 C21        -8.2730    2.7750    2.2400 ca        1 M7K     -0.161300
     17 C22        -8.9090    2.5150    1.0220 ca        1 M7K     -0.159000
     18 C23       -10.3110    2.5910    0.9500 ca        1 M7K      0.149900
     19 C24       -11.0650    2.9300    2.0940 ca        1 M7K     -0.117000
     20 C25       -10.4090    3.1880    3.2930 ca        1 M7K     -0.092000
     21 C26        -9.0170    3.1090    3.3740 ca        1 M7K     -0.111000
     22 F27       -10.9340    2.3390   -0.2220 f         1 M7K     -0.110900
     23 HN02        2.8380    0.3130   -1.3410 hn        1 M7K      0.432300
     24 HN0A        1.3560    0.5700   -2.1160 hn        1 M7K      0.432300
     25 H03         3.1500    0.0980    1.0310 ha        1 M7K      0.155000
     26 H04         2.0180   -0.2770    3.2320 ha        1 M7K      0.150000
     27 H06        -0.0980   -0.4910    4.5240 ha        1 M7K      0.146000
     28 H07        -2.5890   -0.5130    4.5820 ha        1 M7K      0.133000
     29 H09        -2.7230    0.1490    0.3030 ha        1 M7K      0.142000
     30 H11        -4.6290   -0.6770    3.4410 hc        1 M7K      0.069700
     31 H11A       -4.6760   -0.8000    1.6300 hc        1 M7K      0.069700
     32 H12        -4.4310    1.8360    3.2910 hx        1 M7K      0.110700
     33 H12A       -4.4130    1.7310    1.4630 hx        1 M7K      0.110700
     34 HN13       -6.6500    0.7910    1.5820 hn        1 M7K      0.449300
     35 H14        -6.3300    3.2000    1.3850 hx        1 M7K      0.111200
     36 H14A       -6.4020    3.2820    3.2150 hx        1 M7K      0.111200
     37 H22        -8.3340    2.2770    0.1150 ha        1 M7K      0.152000
     38 H24       -12.1630    2.9920    2.0220 ha        1 M7K      0.178000
     39 H25       -10.9940    3.4610    4.1870 ha        1 M7K      0.167000
     40 H26        -8.5140    3.3280    4.3290 ha        1 M7K      0.147000
     41 H132       -6.6640    0.8760    3.2350 hn        1 M7K      0.449300
@<TRIPOS>BOND
     1    1    2 ar  
     2    1   11 ar  
     3    2    3 1   
     4    2    4 ar  
     5    3   23 1   
     6    3   24 1   
     7    4    5 ar  
     8    4   25 1   
     9    5    6 ar  
    10    5   26 1   
    11    6    7 ar  
    12    6   11 ar  
    13    7    8 ar  
    14    7   27 1   
    15    8    9 ar  
    16    8   28 1   
    17    9   10 ar  
    18    9   12 1   
    19   10   11 ar  
    20   10   29 1   
    21   12   13 1   
    22   12   30 1   
    23   12   31 1   
    24   13   14 1   
    25   13   32 1   
    26   13   33 1   
    27   14   15 1   
    28   14   34 1   
    29   14   41 1   
    30   15   16 1   
    31   15   35 1   
    32   15   36 1   
    33   16   17 ar  
    34   16   21 ar  
    35   17   18 ar  
    36   17   37 1   
    37   18   19 ar  
    38   18   22 1   
    39   19   20 ar  
    40   19   38 1   
    41   20   21 ar  
    42   20   39 1   
    43   21   40 1   
@<TRIPOS>SUBSTRUCTURE
     1 M7K         1 TEMP              0 ****  ****    0 ROOT
