@<TRIPOS>MOLECULE
M7K
   42    44     1     0     0
SMALL
bcc


@<TRIPOS>ATOM
      1 N01         0.1860   -0.1930   -0.1220 nb        1 M7K     -0.627000
      2 C02         1.5140   -0.2080    0.0160 ca        1 M7K      0.479200
      3 N02         2.3210   -0.4150   -1.2100 n4        1 M7K     -0.826300
      4 C03         2.2170   -0.0440    1.2550 ca        1 M7K     -0.231300
      5 C04         1.4580    0.1380    2.3890 ca        1 M7K     -0.023000
      6 C05         0.0390    0.1550    2.3010 ca        1 M7K     -0.113300
      7 C06        -0.7870    0.3220    3.4430 ca        1 M7K     -0.085000
      8 C07        -2.1540    0.3160    3.3190 ca        1 M7K     -0.100000
      9 C08        -2.7690    0.1490    2.0470 ca        1 M7K     -0.077300
     10 C09        -2.0000   -0.0090    0.9160 ca        1 M7K     -0.136300
     11 C10        -0.5680   -0.0150    1.0150 ca        1 M7K      0.411600
     12 C11        -4.2570    0.0830    1.9660 c3        1 M7K     -0.064100
     13 C12        -4.8720    1.4460    2.2820 c3        1 M7K      0.101800
     14 N13        -6.3620    1.4190    2.2770 n4        1 M7K     -0.769000
     15 C14        -6.9550    2.7660    2.6010 c3        1 M7K      0.178100
     16 C21        -8.4400    2.7210    2.5030 ca        1 M7K     -0.173300
     17 C22        -9.0420    2.7720    1.2410 ca        1 M7K     -0.163000
     18 C23       -10.4440    2.7730    1.1470 ca        1 M7K      0.154900
     19 C24       -11.2350    2.7290    2.3160 ca        1 M7K     -0.107000
     20 C25       -10.6140    2.6840    3.5590 ca        1 M7K     -0.089000
     21 C26        -9.2210    2.6740    3.6610 ca        1 M7K     -0.106000
     22 F27       -11.0320    2.8170   -0.0680 f         1 M7K     -0.105900
     23 HN02        2.9490    0.3880   -1.3320 hn        1 M7K      0.478800
     24 HN0A        2.8770   -1.2720   -1.0970 hn        1 M7K      0.478800
     25 H03         3.3170   -0.0650    1.3020 ha        1 M7K      0.180000
     26 H04         1.9430    0.2690    3.3730 ha        1 M7K      0.188000
     27 H06        -0.3100    0.4470    4.4300 ha        1 M7K      0.174000
     28 H07        -2.7890    0.4230    4.2130 ha        1 M7K      0.154000
     29 H09        -2.4650   -0.1490   -0.0750 ha        1 M7K      0.170000
     30 H11        -4.6200   -0.6890    2.7010 hc        1 M7K      0.083700
     31 H11A       -4.5720   -0.2530    0.9410 hc        1 M7K      0.083700
     32 H12        -4.5350    1.7940    3.3010 hx        1 M7K      0.109700
     33 H12A       -4.5370    2.2060    1.5180 hx        1 M7K      0.109700
     34 HN13       -6.7000    0.7320    2.9620 hn        1 M7K      0.453800
     35 H14        -6.5290    3.5110    1.8680 hx        1 M7K      0.110700
     36 H14A       -6.6220    3.0460    3.6420 hx        1 M7K      0.110700
     37 H22        -8.4410    2.8390    0.3220 ha        1 M7K      0.148000
     38 H24       -12.3350    2.7400    2.2290 ha        1 M7K      0.185000
     39 H25       -11.2290    2.6600    4.4760 ha        1 M7K      0.174000
     40 H26        -8.7490    2.6510    4.6560 ha        1 M7K      0.148000
     41 H023        1.7230   -0.5080   -2.0440 hn        1 M7K      0.478800
     42 H132       -6.7030    1.1250    1.3530 hn        1 M7K      0.453800
@<TRIPOS>BOND
     1    1    2 ar  
     2    1   11 ar  
     3    2    3 1   
     4    2    4 ar  
     5    3   23 1   
     6    3   24 1   
     7    3   41 1   
     8    4    5 ar  
     9    4   25 1   
    10    5    6 ar  
    11    5   26 1   
    12    6    7 ar  
    13    6   11 ar  
    14    7    8 ar  
    15    7   27 1   
    16    8    9 ar  
    17    8   28 1   
    18    9   10 ar  
    19    9   12 1   
    20   10   11 ar  
    21   10   29 1   
    22   12   13 1   
    23   12   30 1   
    24   12   31 1   
    25   13   14 1   
    26   13   32 1   
    27   13   33 1   
    28   14   15 1   
    29   14   34 1   
    30   14   42 1   
    31   15   16 1   
    32   15   35 1   
    33   15   36 1   
    34   16   17 ar  
    35   16   21 ar  
    36   17   18 ar  
    37   17   37 1   
    38   18   19 ar  
    39   18   22 1   
    40   19   20 ar  
    41   19   38 1   
    42   20   21 ar  
    43   20   39 1   
    44   21   40 1   
@<TRIPOS>SUBSTRUCTURE
     1 M7K         1 TEMP              0 ****  ****    0 ROOT
