@<TRIPOS>MOLECULE
M7M
   51    53     1     0     0
SMALL
bcc


@<TRIPOS>ATOM
      1 OAX        -5.6220    1.5650   -2.2780 o         1 M7M     -0.943500
      2 OAY        -4.2360    3.4090   -3.3280 o         1 M7M     -0.943500
      3 PAZ        -4.7140    2.7400   -2.0740 p5        1 M7M      1.443900
      4 OBA        -5.0920    3.6620   -0.9520 o         1 M7M     -0.943500
      5 OBD        -3.1920    1.9770   -1.4130 os        1 M7M     -0.784800
      6 NBE         4.8180    1.2000    0.7340 nc        1 M7M     -0.776100
      7 CBF         5.2680    0.0480    1.3940 c         1 M7M      0.751700
      8 CBG         4.6320   -1.2130    1.0180 cc        1 M7M     -0.232200
      9 NBH         4.9130   -2.5390    1.4980 nh        1 M7M     -0.541400
     10 CBI         3.9600   -3.3950    0.7180 c3        1 M7M      0.387000
     11 OBJ        -0.7190    2.2930   -0.6790 o         1 M7M     -0.942000
     12 PBK        -1.9140    1.3990   -0.8030 p5        1 M7M      1.601800
     13 OBL        -2.0430    0.4150    0.3250 o         1 M7M     -0.942000
     14 CBM         3.8450    1.1480   -0.1970 cd        1 M7M      0.862100
     15 NBN         3.2100   -0.0650   -0.5920 na        1 M7M     -0.688000
     16 CBO         3.6280   -1.2220    0.0320 cd        1 M7M      0.309000
     17 NBP         3.2160   -2.5580   -0.2660 nh        1 M7M     -0.628400
     18 CBQ         1.8040   -2.8910   -0.4340 c3        1 M7M      0.360300
     19 OBR         1.2820   -2.1500   -1.5340 os        1 M7M     -0.442600
     20 CBS        -0.0230   -1.6040   -1.2180 c3        1 M7M      0.054100
     21 CBT        -0.0500   -0.1540   -1.7480 c3        1 M7M      0.227400
     22 OBU        -1.3240    0.2770   -1.9830 os        1 M7M     -0.547200
     23 CBW         2.2120    2.4120   -1.5690 c3        1 M7M      0.151100
     24 CBX         0.8770   -2.6670    0.8040 c3        1 M7M      0.080100
     25 CBY        -0.2310   -1.7140    0.3040 c3        1 M7M      0.127100
     26 CBZ         3.9450    3.5720   -0.3150 c3        1 M7M      0.151100
     27 OCA         0.4440   -3.9300    1.2650 oh        1 M7M     -0.633800
     28 OCB        -1.4900   -2.2660    0.6020 oh        1 M7M     -0.677800
     29 HBC         5.4310   -1.9070    3.4190 h1        1 M7M      0.035700
     30 HBCA        3.7200   -2.5350    3.3040 h1        1 M7M      0.035700
     31 HBCB        5.1150   -3.7030    3.2170 h1        1 M7M      0.035700
     32 HBI         4.5890   -4.1110    0.1170 h2        1 M7M      0.052700
     33 HNBN        2.4110   -0.0880   -1.2020 hn        1 M7M      0.505800
     34 HBQ         1.7900   -3.9840   -0.7270 h2        1 M7M      0.060700
     35 HBS        -0.7790   -2.2280   -1.7630 h1        1 M7M      0.073700
     36 HBT         0.4710    0.5080   -0.9960 h1        1 M7M     -0.003300
     37 HBTA        0.5380   -0.1490   -2.7140 h1        1 M7M     -0.003300
     38 HBW         1.3180    2.3670   -0.8660 h1        1 M7M      0.066367
     39 HBWA        2.1580    3.3940   -2.1100 h1        1 M7M      0.066367
     40 HBWB        2.1210    1.6050   -2.3430 h1        1 M7M      0.066367
     41 HBX         1.4380   -2.2050    1.6610 h1        1 M7M      0.056700
     42 HBY        -0.1340   -0.7050    0.7980 h1        1 M7M      0.122700
     43 HBZ         5.0660    3.5890   -0.2610 h1        1 M7M      0.066367
     44 HBZA        3.6030    4.4210   -0.9640 h1        1 M7M      0.066367
     45 HBZB        3.5300    3.7200    0.7180 h1        1 M7M      0.066367
     46 HOCA       -0.4990   -4.0150    1.0650 ho        1 M7M      0.436000
     47 HOCB       -2.1240   -1.5070    0.5730 ho        1 M7M      0.520000
     48 H23         3.2520   -3.9710    1.3810 h2        1 M7M      0.052700
     49 OBB         6.1590    0.1280    2.2710 o         1 M7M     -0.649100
     50 CBC         4.7710   -2.6750    2.9320 c3        1 M7M      0.133100
     51 NBV         3.5060    2.3280   -0.9120 nh        1 M7M     -0.703600
@<TRIPOS>BOND
     1    1    3 1   
     2    2    3 1   
     3    3    4 1   
     4    3    5 1   
     5    5   12 1   
     6    6    7 1   
     7    6   14 2   
     8    7    8 1   
     9    7   49 2   
    10    8    9 1   
    11    8   16 2   
    12    9   10 1   
    13    9   50 1   
    14   10   17 1   
    15   10   32 1   
    16   10   48 1   
    17   11   12 1   
    18   12   13 1   
    19   12   22 1   
    20   14   15 1   
    21   14   51 1   
    22   15   16 1   
    23   15   33 1   
    24   16   17 1   
    25   17   18 1   
    26   18   19 1   
    27   18   24 1   
    28   18   34 1   
    29   19   20 1   
    30   20   21 1   
    31   20   25 1   
    32   20   35 1   
    33   21   22 1   
    34   21   36 1   
    35   21   37 1   
    36   23   38 1   
    37   23   39 1   
    38   23   40 1   
    39   23   51 1   
    40   24   25 1   
    41   24   27 1   
    42   24   41 1   
    43   25   28 1   
    44   25   42 1   
    45   26   43 1   
    46   26   44 1   
    47   26   45 1   
    48   26   51 1   
    49   27   46 1   
    50   28   47 1   
    51   29   50 1   
    52   30   50 1   
    53   31   50 1   
@<TRIPOS>SUBSTRUCTURE
     1 M7M         1 TEMP              0 ****  ****    0 ROOT
