@<TRIPOS>MOLECULE
M7P
   31    31     1     0     0
SMALL
bcc


@<TRIPOS>ATOM
      1 O10        -0.5410    4.2690    3.0130 o         1 M7P     -0.927167
      2 P           0.8420    3.7000    3.1760 p5        1 M7P      1.336900
      3 O8          1.2960    3.8720    4.6150 o         1 M7P     -0.927167
      4 O9          1.7930    4.4280    2.2600 o         1 M7P     -0.927167
      5 O7          0.8260    2.1460    2.8040 os        1 M7P     -0.577200
      6 C7          0.1640    1.7360    1.5840 c3        1 M7P      0.182400
      7 C6          0.3610    0.2470    1.3780 c3        1 M7P      0.031100
      8 O6         -0.2200   -0.4780    2.4930 oh        1 M7P     -0.660800
      9 C5         -0.2910   -0.1640    0.1350 c3        1 M7P      0.136100
     10 O5          0.2800    0.5900   -0.9610 os        1 M7P     -0.442600
     11 C1          0.4630   -0.1670   -2.0490 c3        1 M7P      0.261900
     12 O1          0.6180    0.8720   -3.2870 oh        1 M7P     -0.637800
     13 C2         -0.4260   -1.1700   -2.4960 c3        1 M7P      0.105100
     14 O2          0.3110   -2.1100   -3.3890 oh        1 M7P     -0.669800
     15 C3         -0.9850   -1.9270   -1.3610 c3        1 M7P      0.132100
     16 O3         -1.0520   -3.2930   -1.7150 oh        1 M7P     -0.621800
     17 C4         -0.1210   -1.7830   -0.0320 c3        1 M7P      0.082100
     18 O4         -0.6260   -2.4010    0.9210 oh        1 M7P     -0.618800
     19 H71         0.5440    2.2210    0.8310 h1        1 M7P      0.015700
     20 H72        -0.7930    1.9320    1.6500 h1        1 M7P      0.015700
     21 H6          1.3330    0.0460    1.3220 h1        1 M7P      0.111700
     22 HO6         0.3410   -0.4790    3.1660 ho        1 M7P      0.408000
     23 H5         -1.2560    0.0480    0.1950 h1        1 M7P      0.054700
     24 H1          1.3290   -0.6030   -1.9340 h2        1 M7P      0.181700
     25 HO1         0.2210    1.6470   -3.0780 ho        1 M7P      0.477000
     26 H2         -1.1630   -0.7510   -3.0030 h1        1 M7P      0.051700
     27 HO2        -0.0370   -2.0860   -4.1850 ho        1 M7P      0.494000
     28 H3         -1.9070   -1.5970   -1.1790 h1        1 M7P      0.070700
     29 HO3        -1.9140   -3.5560   -1.7350 ho        1 M7P      0.411000
     30 H4          0.8060   -2.0320   -0.1790 h1        1 M7P      0.054700
     31 HO4        -0.1960   -3.1540    1.0430 ho        1 M7P      0.396000
@<TRIPOS>BOND
     1    1    2 1   
     2    2    3 1   
     3    2    4 1   
     4    2    5 1   
     5    5    6 1   
     6    6    7 1   
     7    6   19 1   
     8    6   20 1   
     9    7    8 1   
    10    7    9 1   
    11    7   21 1   
    12    8   22 1   
    13    9   10 1   
    14    9   17 1   
    15    9   23 1   
    16   10   11 1   
    17   11   12 1   
    18   11   13 1   
    19   11   24 1   
    20   12   25 1   
    21   13   14 1   
    22   13   15 1   
    23   13   26 1   
    24   14   27 1   
    25   15   16 1   
    26   15   17 1   
    27   15   28 1   
    28   16   29 1   
    29   17   18 1   
    30   17   30 1   
    31   18   31 1   
@<TRIPOS>SUBSTRUCTURE
     1 M7P         1 TEMP              0 ****  ****    0 ROOT
