@<TRIPOS>MOLECULE
M7P
   31    31     1     0     0
SMALL
bcc


@<TRIPOS>ATOM
      1 O10         2.2610    1.1650   -2.7640 o         1 M7P     -0.915167
      2 P           1.9420    0.1360   -1.7280 p5        1 M7P      1.331900
      3 O8          0.6670   -0.6630   -1.9580 o         1 M7P     -0.915167
      4 O9          3.0710   -0.6390   -1.1190 o         1 M7P     -0.915167
      5 O7          1.3790    1.1190   -0.3940 os        1 M7P     -0.587200
      6 C7          1.5420    0.5710    0.8550 c3        1 M7P      0.178400
      7 C6          0.1850    0.2960    1.5660 c3        1 M7P      0.115100
      8 O6         -0.2550    1.4340    2.2950 oh        1 M7P     -0.648800
      9 C5         -0.8430   -0.1700    0.5360 c3        1 M7P     -0.010900
     10 O5         -1.4620   -1.3730    1.0160 os        1 M7P     -0.456600
     11 C1         -2.1970   -2.0520    0.0160 c3        1 M7P      0.336900
     12 O1         -1.3440   -2.6560   -0.9010 oh        1 M7P     -0.659800
     13 C2         -3.2590   -1.1380   -0.6380 c3        1 M7P      0.052100
     14 O2         -4.3650   -0.9970    0.2510 oh        1 M7P     -0.630800
     15 C3         -2.7090    0.2470   -1.0150 c3        1 M7P      0.069100
     16 O3         -3.7730    1.0800   -1.4400 oh        1 M7P     -0.594800
     17 C4         -1.9360    0.8450    0.1800 c3        1 M7P      0.125100
     18 O4         -1.4170    2.1150   -0.1460 oh        1 M7P     -0.630800
     19 H71         2.1040    1.2930    1.5180 h1        1 M7P      0.017700
     20 H72         2.1140   -0.3990    0.7950 h1        1 M7P      0.017700
     21 H6          0.3210   -0.4970    2.3530 h1        1 M7P      0.047700
     22 HO6        -0.2380    2.1750    1.6750 ho        1 M7P      0.414000
     23 H5         -0.2550   -0.3960   -0.4340 h1        1 M7P      0.196700
     24 H1         -2.7180   -2.8930    0.5630 h2        1 M7P      0.055700
     25 HO1        -0.6980   -2.0100   -1.2700 ho        1 M7P      0.508000
     26 H2         -3.6880   -1.6400   -1.5460 h1        1 M7P      0.076700
     27 HO2        -3.9970   -0.6960    1.0910 ho        1 M7P      0.401000
     28 H3         -2.0150    0.1660   -1.9020 h1        1 M7P      0.142700
     29 HO3        -4.3420    1.2080   -0.6710 ho        1 M7P      0.382000
     30 H4         -2.6320    1.0300    1.0440 h1        1 M7P      0.029700
     31 HO4        -0.5790    1.9780   -0.6260 ho        1 M7P      0.467000
@<TRIPOS>BOND
     1    1    2 1   
     2    2    3 1   
     3    2    4 1   
     4    2    5 1   
     5    5    6 1   
     6    6    7 1   
     7    6   19 1   
     8    6   20 1   
     9    7    8 1   
    10    7    9 1   
    11    7   21 1   
    12    8   22 1   
    13    9   10 1   
    14    9   17 1   
    15    9   23 1   
    16   10   11 1   
    17   11   12 1   
    18   11   13 1   
    19   11   24 1   
    20   12   25 1   
    21   13   14 1   
    22   13   15 1   
    23   13   26 1   
    24   14   27 1   
    25   15   16 1   
    26   15   17 1   
    27   15   28 1   
    28   16   29 1   
    29   17   18 1   
    30   17   30 1   
    31   18   31 1   
@<TRIPOS>SUBSTRUCTURE
     1 M7P         1 TEMP              0 ****  ****    0 ROOT
