@<TRIPOS>MOLECULE
M7P
   31    31     1     0     0
SMALL
bcc


@<TRIPOS>ATOM
      1 O10         3.0970    2.2380    2.0100 o         1 M7P     -0.914833
      2 P           3.6220    1.3090    0.9630 p5        1 M7P      1.328900
      3 O8          5.1350    1.2880    0.8010 o         1 M7P     -0.914833
      4 O9          2.9450   -0.0130    0.7680 o         1 M7P     -0.914833
      5 O7          3.2250    2.1700   -0.5100 os        1 M7P     -0.590200
      6 C7          3.0580    1.3930   -1.6300 c3        1 M7P      0.178400
      7 C6          4.1230    1.6960   -2.7250 c3        1 M7P      0.114100
      8 O6          3.7170    2.7770   -3.5520 oh        1 M7P     -0.645800
      9 C5          5.4700    1.9460   -2.0520 c3        1 M7P     -0.006900
     10 O5          6.4870    1.1730   -2.7030 os        1 M7P     -0.451600
     11 C1          7.6850    1.0990   -1.9520 c3        1 M7P      0.330900
     12 O1          7.5050    0.2470   -0.8620 oh        1 M7P     -0.660800
     13 C2          8.2520    2.4820   -1.5420 c3        1 M7P      0.095100
     14 O2          8.9850    3.0230   -2.6310 oh        1 M7P     -0.614800
     15 C3          7.1490    3.4190   -1.0420 c3        1 M7P      0.057100
     16 O3          7.6930    4.7290   -0.9410 oh        1 M7P     -0.625800
     17 C4          5.9400    3.4020   -2.0030 c3        1 M7P      0.119100
     18 O4          4.9630    4.3080   -1.5340 oh        1 M7P     -0.651800
     19 H71         2.0530    1.6110   -2.0990 h1        1 M7P      0.017700
     20 H72         3.1170    0.2970   -1.3690 h1        1 M7P      0.017700
     21 H6          4.2050    0.8250   -3.4320 h1        1 M7P      0.049700
     22 HO6         3.4970    3.5060   -2.9560 ho        1 M7P      0.412000
     23 H5          5.3520    1.5850   -0.9600 h1        1 M7P      0.192700
     24 H1          8.4210    0.5850   -2.6380 h2        1 M7P      0.061700
     25 HO1         6.7720    0.5650   -0.2890 ho        1 M7P      0.498000
     26 H2          9.0200    2.3350   -0.7330 h1        1 M7P      0.074700
     27 HO2         8.3360    3.4030   -3.2360 ho        1 M7P      0.400000
     28 H3          6.7980    3.0650   -0.0240 h1        1 M7P      0.121700
     29 HO3         6.9330    5.3040   -0.7760 ho        1 M7P      0.410000
     30 H4          6.2280    3.7850   -3.0190 h1        1 M7P      0.039700
     31 HO4         4.4120    3.8400   -0.8790 ho        1 M7P      0.473000
@<TRIPOS>BOND
     1    1    2 1   
     2    2    3 1   
     3    2    4 1   
     4    2    5 1   
     5    5    6 1   
     6    6    7 1   
     7    6   19 1   
     8    6   20 1   
     9    7    8 1   
    10    7    9 1   
    11    7   21 1   
    12    8   22 1   
    13    9   10 1   
    14    9   17 1   
    15    9   23 1   
    16   10   11 1   
    17   11   12 1   
    18   11   13 1   
    19   11   24 1   
    20   12   25 1   
    21   13   14 1   
    22   13   15 1   
    23   13   26 1   
    24   14   27 1   
    25   15   16 1   
    26   15   17 1   
    27   15   28 1   
    28   16   29 1   
    29   17   18 1   
    30   17   30 1   
    31   18   31 1   
@<TRIPOS>SUBSTRUCTURE
     1 M7P         1 TEMP              0 ****  ****    0 ROOT
