@<TRIPOS>MOLECULE
M7P
   31    31     1     0     0
SMALL
bcc


@<TRIPOS>ATOM
      1 O10         2.6850    2.5920    1.9820 o         1 M7P     -0.918167
      2 P           3.6120    1.8860    1.0460 p5        1 M7P      1.321900
      3 O8          4.9660    2.5340    0.8020 o         1 M7P     -0.918167
      4 O9          3.6670    0.3870    1.0850 o         1 M7P     -0.918167
      5 O7          2.9430    2.2320   -0.5200 os        1 M7P     -0.582200
      6 C7          3.0340    1.2410   -1.4640 c3        1 M7P      0.175400
      7 C6          4.0350    1.6130   -2.5910 c3        1 M7P      0.119100
      8 O6          3.5830    2.7510   -3.3050 oh        1 M7P     -0.645800
      9 C5          5.4240    1.8350   -1.9800 c3        1 M7P      0.042100
     10 O5          6.3660    1.0430   -2.7240 os        1 M7P     -0.451600
     11 C1          7.6650    1.0180   -2.1800 c3        1 M7P      0.324900
     12 O1          7.6630    0.1220   -1.0980 oh        1 M7P     -0.649800
     13 C2          8.2620    2.3890   -1.7810 c3        1 M7P      0.100100
     14 O2          8.9040    2.9500   -2.9180 oh        1 M7P     -0.620800
     15 C3          7.2160    3.3160   -1.1640 c3        1 M7P      0.045100
     16 O3          7.7610    4.6330   -1.1570 oh        1 M7P     -0.639800
     17 C4          5.9040    3.2910   -1.9780 c3        1 M7P      0.141100
     18 O4          4.9900    4.1860   -1.3990 oh        1 M7P     -0.667800
     19 H71         2.0300    1.1110   -1.9650 h1        1 M7P      0.015700
     20 H72         3.3520    0.2620   -1.0020 h1        1 M7P      0.015700
     21 H6          4.0830    0.7920   -3.3580 h1        1 M7P      0.039700
     22 HO6         3.3660    3.4140   -2.6310 ho        1 M7P      0.433000
     23 H5          5.3770    1.4880   -0.8930 h1        1 M7P      0.144700
     24 H1          8.3100    0.5430   -2.9760 h2        1 M7P      0.070700
     25 HO1         6.9730    0.3930   -0.4710 ho        1 M7P      0.450000
     26 H2          9.0930    2.2060   -1.0420 h1        1 M7P      0.063700
     27 HO2         8.2960    3.5990   -3.2920 ho        1 M7P      0.409000
     28 H3          6.9650    2.9980   -0.1050 h1        1 M7P      0.143700
     29 HO3         7.0230    5.2010   -0.8940 ho        1 M7P      0.422000
     30 H4          6.0730    3.6630   -3.0260 h1        1 M7P      0.033700
     31 HO4         4.6330    3.7520   -0.5750 ho        1 M7P      0.502000
@<TRIPOS>BOND
     1    1    2 1   
     2    2    3 1   
     3    2    4 1   
     4    2    5 1   
     5    5    6 1   
     6    6    7 1   
     7    6   19 1   
     8    6   20 1   
     9    7    8 1   
    10    7    9 1   
    11    7   21 1   
    12    8   22 1   
    13    9   10 1   
    14    9   17 1   
    15    9   23 1   
    16   10   11 1   
    17   11   12 1   
    18   11   13 1   
    19   11   24 1   
    20   12   25 1   
    21   13   14 1   
    22   13   15 1   
    23   13   26 1   
    24   14   27 1   
    25   15   16 1   
    26   15   17 1   
    27   15   28 1   
    28   16   29 1   
    29   17   18 1   
    30   17   30 1   
    31   18   31 1   
@<TRIPOS>SUBSTRUCTURE
     1 M7P         1 TEMP              0 ****  ****    0 ROOT
