@<TRIPOS>MOLECULE
M7R
   84    89     1     0     0
SMALL
bcc


@<TRIPOS>ATOM
      1 C1          2.9340   -0.9840    1.3900 c         1 M7R      0.911600
      2 O1          3.2660   -1.4800    2.4990 o         1 M7R     -0.852300
      3 C2          4.0030   -0.8450    0.2770 c3        1 M7R     -0.180700
      4 O2          1.7610   -0.5610    1.1390 o         1 M7R     -0.852300
      5 C3          4.6670   -2.1910    0.0220 c3        1 M7R     -0.031100
      6 O3          2.8340    5.3890    0.1360 os        1 M7R     -0.352900
      7 C4          3.9630   -3.0220   -0.9920 ca        1 M7R     -0.052300
      8 C5          5.0430    0.1930    0.6930 c3        1 M7R     -0.021100
      9 C6          4.5150    1.5800    0.5640 ca        1 M7R     -0.070300
     10 C7          3.3950    1.9580    1.3130 ca        1 M7R     -0.088000
     11 C8          2.7700    3.1890    1.1120 ca        1 M7R     -0.122300
     12 C9          3.3620    4.1070    0.2290 ca        1 M7R      0.096100
     13 C10         4.5210    3.7670   -0.4810 ca        1 M7R     -0.177000
     14 C11         5.0800    2.5010   -0.3260 ca        1 M7R     -0.124000
     15 C12         2.3540    5.7320   -1.1720 c3        1 M7R      0.135400
     16 C13         0.9020    6.1570   -1.0440 c3        1 M7R     -0.114400
     17 C14         0.3450    6.5680   -2.3810 c3        1 M7R     -0.085100
     18 C15         1.4710    3.4730    1.8100 c3        1 M7R      0.133300
     19 C17        -3.0260    1.9330    0.6020 ca        1 M7R     -0.085500
     20 C19        -3.9680    0.9410    0.3570 ca        1 M7R     -0.151000
     21 C22        -1.2620    0.2840    0.5250 ca        1 M7R     -0.085500
     22 C23        -4.6270   -1.4420   -0.0640 c3        1 M7R      0.001300
     23 C24        -4.0310   -2.8480   -0.2170 c3        1 M7R     -0.064400
     24 C25        -5.3870   -1.1020   -1.3570 c3        1 M7R     -0.064400
     25 C26        -5.6240   -1.4710    1.1060 c3        1 M7R     -0.064400
     26 C27        -5.1320   -3.8710   -0.4760 c3        1 M7R     -0.062367
     27 C28        -6.4890   -2.1230   -1.6100 c3        1 M7R     -0.062367
     28 C29        -6.7250   -2.4900    0.8420 c3        1 M7R     -0.062367
     29 C30        -5.8740   -3.5110   -1.7580 c3        1 M7R     -0.068400
     30 C31        -6.1100   -3.8770    0.6930 c3        1 M7R     -0.068400
     31 C32        -7.4660   -2.1230   -0.4390 c3        1 M7R     -0.068400
     32 C51         4.7030   -3.8320   -1.8640 ca        1 M7R     -0.132000
     33 C52         4.0590   -4.6370   -2.8020 ca        1 M7R     -0.140500
     34 C53         2.6680   -4.6430   -2.8810 ca        1 M7R     -0.155000
     35 C54         1.9240   -3.8390   -2.0170 ca        1 M7R     -0.140500
     36 C55         2.5630   -3.0330   -1.0780 ca        1 M7R     -0.132000
     37 C87        -1.6640    1.6100    0.6940 ca        1 M7R     -0.143600
     38 C97        -0.7100    2.7290    0.9530 c         1 M7R      0.667700
     39 C98        -3.5770   -0.3980    0.1940 ca        1 M7R     -0.060300
     40 C99        -2.2170   -0.7070    0.2780 ca        1 M7R     -0.151000
     41 N99         0.4710    2.4510    1.6040 n         1 M7R     -0.541900
     42 O99        -1.0290    3.9060    0.6510 o         1 M7R     -0.663100
     43 H2          3.4920   -0.4940   -0.6590 hc        1 M7R      0.052700
     44 H3          5.7320   -2.0400   -0.3060 hc        1 M7R      0.050700
     45 H3A         4.6960   -2.7580    0.9960 hc        1 M7R      0.050700
     46 H5          5.3290   -0.0030    1.7630 hc        1 M7R      0.043200
     47 H5A         5.9670    0.0840    0.0660 hc        1 M7R      0.043200
     48 H7          2.9710    1.2410    2.0420 ha        1 M7R      0.184000
     49 H10         4.9680    4.4980   -1.1680 ha        1 M7R      0.123000
     50 H11         5.9670    2.2220   -0.9130 ha        1 M7R      0.120000
     51 H12         2.9940    6.5880   -1.5190 h1        1 M7R      0.035700
     52 H12A        2.4610    4.8780   -1.8890 h1        1 M7R      0.035700
     53 H13         0.3000    5.3100   -0.6120 hc        1 M7R      0.070700
     54 H13A        0.8320    7.0080   -0.3170 hc        1 M7R      0.070700
     55 H14        -0.7200    6.8830   -2.2710 hc        1 M7R      0.026700
     56 H14A        0.9250    7.4210   -2.8100 hc        1 M7R      0.026700
     57 H14B        0.3860    5.7170   -3.1030 hc        1 M7R      0.026700
     58 H15         1.6700    3.5300    2.9210 h1        1 M7R      0.067700
     59 H15A        1.0700    4.4720    1.4700 h1        1 M7R      0.067700
     60 H17        -3.3350    2.9830    0.7190 ha        1 M7R      0.179000
     61 H19        -5.0310    1.2150    0.2920 ha        1 M7R      0.130500
     62 H22        -0.1960   -0.0160    0.5820 ha        1 M7R      0.179000
     63 H24        -3.3070   -2.8580   -1.0720 hc        1 M7R      0.047367
     64 H24A       -3.4780   -3.1260    0.7170 hc        1 M7R      0.047367
     65 H25        -5.8360   -0.0790   -1.2740 hc        1 M7R      0.047367
     66 H25A       -4.6700   -1.0950   -2.2170 hc        1 M7R      0.047367
     67 H26        -5.0800   -1.7340    2.0490 hc        1 M7R      0.047367
     68 H26A       -6.0770   -0.4560    1.2410 hc        1 M7R      0.047367
     69 H27        -4.6700   -4.8890   -0.5840 hc        1 M7R      0.042700
     70 H28        -7.0360   -1.8530   -2.5530 hc        1 M7R      0.042700
     71 H29        -7.4450   -2.4900    1.7040 hc        1 M7R      0.042700
     72 H30        -5.1640   -3.5210   -2.6240 hc        1 M7R      0.035867
     73 H30A       -6.6770   -4.2650   -1.9590 hc        1 M7R      0.035867
     74 H31        -6.9150   -4.6350    0.5140 hc        1 M7R      0.035867
     75 H31A       -5.5730   -4.1580    1.6350 hc        1 M7R      0.035867
     76 H32        -7.9300   -1.1090   -0.3320 hc        1 M7R      0.035867
     77 H32A       -8.2880   -2.8600   -0.6280 hc        1 M7R      0.035867
     78 H51         5.8010   -3.8310   -1.8070 ha        1 M7R      0.151500
     79 H52         4.6510   -5.2680   -3.4800 ha        1 M7R      0.115500
     80 H53         2.1600   -5.2770   -3.6200 ha        1 M7R      0.111000
     81 H54         0.8260   -3.8400   -2.0760 ha        1 M7R      0.115500
     82 H55         1.9750   -2.3920   -0.3920 ha        1 M7R      0.151500
     83 H99        -1.8590   -1.7410    0.1580 ha        1 M7R      0.130500
     84 HN99        0.7880    1.4980    1.6500 hn        1 M7R      0.359500
@<TRIPOS>BOND
     1    1    2 1   
     2    1    3 1   
     3    1    4 1   
     4    3    5 1   
     5    3    8 1   
     6    3   43 1   
     7    5    7 1   
     8    5   44 1   
     9    5   45 1   
    10    6   12 1   
    11    6   15 1   
    12    7   32 ar  
    13    7   36 ar  
    14    8    9 1   
    15    8   46 1   
    16    8   47 1   
    17    9   10 ar  
    18    9   14 ar  
    19   10   11 ar  
    20   10   48 1   
    21   11   12 ar  
    22   11   18 1   
    23   12   13 ar  
    24   13   14 ar  
    25   13   49 1   
    26   14   50 1   
    27   15   16 1   
    28   15   51 1   
    29   15   52 1   
    30   16   17 1   
    31   16   53 1   
    32   16   54 1   
    33   17   55 1   
    34   17   56 1   
    35   17   57 1   
    36   18   41 1   
    37   18   58 1   
    38   18   59 1   
    39   19   20 ar  
    40   19   37 ar  
    41   19   60 1   
    42   20   39 ar  
    43   20   61 1   
    44   21   37 ar  
    45   21   40 ar  
    46   21   62 1   
    47   22   23 1   
    48   22   24 1   
    49   22   25 1   
    50   22   39 1   
    51   23   26 1   
    52   23   63 1   
    53   23   64 1   
    54   24   27 1   
    55   24   65 1   
    56   24   66 1   
    57   25   28 1   
    58   25   67 1   
    59   25   68 1   
    60   26   29 1   
    61   26   30 1   
    62   26   69 1   
    63   27   29 1   
    64   27   31 1   
    65   27   70 1   
    66   28   30 1   
    67   28   31 1   
    68   28   71 1   
    69   29   72 1   
    70   29   73 1   
    71   30   74 1   
    72   30   75 1   
    73   31   76 1   
    74   31   77 1   
    75   32   33 ar  
    76   32   78 1   
    77   33   34 ar  
    78   33   79 1   
    79   34   35 ar  
    80   34   80 1   
    81   35   36 ar  
    82   35   81 1   
    83   36   82 1   
    84   37   38 1   
    85   38   41 1   
    86   38   42 2   
    87   39   40 ar  
    88   40   83 1   
    89   41   84 1   
@<TRIPOS>SUBSTRUCTURE
     1 M7R         1 TEMP              0 ****  ****    0 ROOT
