@<TRIPOS>MOLECULE
M7R
   84    83     1     0     0
SMALL
bcc


@<TRIPOS>ATOM
      1 C1          4.7400   -3.9490    3.6310 c1        1 M7R      0.330000
      2 O1          5.2820   -4.8740    4.3040 o         1 M7R     -0.573500
      3 C2          3.2540   -3.6950    3.7550 c2        1 M7R     -0.174000
      4 O2          5.4370   -3.2510    2.8410 o         1 M7R     -0.573500
      5 C3          2.9340   -3.2500    5.1630 c3        1 M7R     -0.117000
      6 O3          0.8610   -5.0080   -2.1070 os        1 M7R     -0.243000
      7 C4          2.5130   -1.7900    5.1490 c2        1 M7R     -0.040000
      8 C5          2.4910   -4.9780    3.4400 c3        1 M7R     -0.112000
      9 C6          2.0630   -4.9720    1.9570 c2        1 M7R     -0.067000
     10 C7          0.8470   -4.3990    1.5830 c1        1 M7R     -0.104000
     11 C8          0.4530   -4.4050    0.2370 c1        1 M7R     -0.151000
     12 C9          1.2750   -4.9820   -0.7230 c2        1 M7R      0.048000
     13 C10         2.4940   -5.5570   -0.3470 c2        1 M7R     -0.198000
     14 C11         2.8860   -5.5510    0.9950 c2        1 M7R     -0.084000
     15 C12         1.8700   -4.5980   -3.0160 c3        1 M7R     -0.018000
     16 C13         1.2230   -4.1580   -4.3360 c3        1 M7R     -0.167000
     17 C14         1.9670   -2.9450   -4.8860 c3        1 M7R     -0.210000
     18 C15        -0.9460   -3.9100   -0.1540 c3        1 M7R      0.025000
     19 C17        -3.0810    0.2970   -1.9140 c1        1 M7R     -0.083000
     20 C19        -3.1240    1.6890   -2.0140 c1        1 M7R     -0.143000
     21 C22        -1.0350    0.4510   -0.6380 c1        1 M7R     -0.100000
     22 C23        -2.1590    4.0060   -1.5440 c3        1 M7R     -0.010000
     23 C24        -1.2890    4.7180   -2.5520 c3        1 M7R     -0.142333
     24 C25        -2.7600    4.8240   -0.4220 c3        1 M7R     -0.142333
     25 C26        -3.7610    4.7500   -2.6850 c3        1 M7R     -0.142333
     26 C27        -1.2730    6.2700   -2.4970 c3        1 M7R     -0.101667
     27 C28        -2.6300    6.3820   -0.5300 c3        1 M7R     -0.101667
     28 C29        -3.6980    6.2650   -2.7280 c3        1 M7R     -0.101667
     29 C30        -1.5490    6.8810   -1.2390 c3        1 M7R     -0.148000
     30 C31        -2.3250    6.7080   -3.3690 c3        1 M7R     -0.148000
     31 C32        -3.7990    6.8290   -1.2530 c3        1 M7R     -0.148000
     32 C51         1.2020   -1.5100    4.7880 c1        1 M7R     -0.138000
     33 C52         0.7080   -0.2190    4.9140 c1        1 M7R     -0.145000
     34 C53         1.5250    0.7910    5.4000 c1        1 M7R     -0.145000
     35 C54         2.8360    0.5110    5.7610 c1        1 M7R     -0.136000
     36 C55         3.3290   -0.7790    5.6350 c2        1 M7R     -0.131000
     37 C87        -2.0370   -0.3220   -1.2260 c1        1 M7R     -0.114000
     38 C97        -1.9790   -1.8520   -1.1340 c2        1 M7R      0.336000
     39 C98        -2.1190    2.4630   -1.4240 c2        1 M7R     -0.047000
     40 C99        -1.0770    1.8450   -0.7370 c2        1 M7R     -0.140000
     41 N99        -0.8970   -2.4910   -0.4220 n         1 M7R     -0.353000
     42 O99        -2.8680   -2.5270   -1.6250 o         1 M7R     -0.382000
     43 H2          2.9890   -2.9940    3.1230 ha        1 M7R      0.084000
     44 H3          2.2000   -3.8010    5.5230 hc        1 M7R      0.098000
     45 H3A         3.7290   -3.3550    5.7270 hc        1 M7R      0.098000
     46 H5          3.0710   -5.7560    3.6120 hc        1 M7R      0.088500
     47 H5A         1.6940   -5.0320    4.0100 hc        1 M7R      0.088500
     48 H7          0.2660   -3.9900    2.2630 ha        1 M7R      0.132000
     49 H10         3.0700   -5.9620   -1.0210 ha        1 M7R      0.131000
     50 H11         3.7080   -6.0240    1.2700 ha        1 M7R      0.214000
     51 H12         2.4780   -5.3420   -3.1840 h1        1 M7R      0.079500
     52 H12A        2.3690   -3.8490   -2.6320 h1        1 M7R      0.079500
     53 H13         0.2820   -3.9220   -4.1780 hc        1 M7R      0.090000
     54 H13A        1.2720   -4.8970   -4.9880 hc        1 M7R      0.090000
     55 H14         1.5630   -2.6730   -5.7410 hc        1 M7R      0.072333
     56 H14A        1.9050   -2.2070   -4.2470 hc        1 M7R      0.072333
     57 H14B        2.9100   -3.1760   -5.0290 hc        1 M7R      0.072333
     58 H15        -1.2490   -4.3850   -0.9610 h1        1 M7R      0.101000
     59 H15A       -1.5740   -4.0830    0.5830 h1        1 M7R      0.101000
     60 H17        -3.7840   -0.2500   -2.3400 ha        1 M7R      0.150000
     61 H19        -3.8610    2.1250   -2.5000 ha        1 M7R      0.132000
     62 H22        -0.3000    0.0150   -0.1530 ha        1 M7R      0.146000
     63 H24        -0.3610    4.4010   -2.4290 hc        1 M7R      0.085000
     64 H24A       -1.5860    4.4500   -3.4500 hc        1 M7R      0.085000
     65 H25        -3.7190    4.6040   -0.3680 hc        1 M7R      0.085000
     66 H25A       -2.3330    4.5420    0.4210 hc        1 M7R      0.085000
     67 H26        -3.7030    4.3940   -3.6020 hc        1 M7R      0.085000
     68 H26A       -4.6130    4.4680   -2.2780 hc        1 M7R      0.085000
     69 H27        -0.4030    6.6010   -2.8390 hc        1 M7R      0.085667
     70 H28        -2.6360    6.7750    0.3800 hc        1 M7R      0.085667
     71 H29        -4.4460    6.6130   -3.2690 hc        1 M7R      0.085667
     72 H30        -1.7060    7.8420   -1.3950 hc        1 M7R      0.078167
     73 H30A       -0.7420    6.7900   -0.6700 hc        1 M7R      0.078167
     74 H31        -2.2980    7.6900   -3.4570 hc        1 M7R      0.078167
     75 H31A       -2.2190    6.2890   -4.2580 hc        1 M7R      0.078167
     76 H32        -4.6170    6.4820   -0.8160 hc        1 M7R      0.078167
     77 H32A       -3.8230    7.8130   -1.2730 hc        1 M7R      0.078167
     78 H51         0.6250   -2.2230    4.4450 ha        1 M7R      0.130000
     79 H52        -0.2120   -0.0180    4.6440 ha        1 M7R      0.115000
     80 H53         1.1780    1.6990    5.4890 ha        1 M7R      0.115000
     81 H54         3.4080    1.2200    6.1020 ha        1 M7R      0.116000
     82 H55         4.2520   -0.9760    5.8890 ha        1 M7R      0.138000
     83 H99        -0.3800    2.3910   -0.3040 ha        1 M7R      0.133000
     84 HN99       -0.1880   -1.9970   -0.1310 hn        1 M7R      0.233000
@<TRIPOS>BOND
     1    1    2 1   
     2    1    4 1   
     3    3    5 1   
     4    3    8 1   
     5    3   43 1   
     6    5    7 1   
     7    5   44 1   
     8    5   45 1   
     9    6   12 1   
    10    6   15 1   
    11    7   32 1   
    12    7   36 1   
    13    8    9 1   
    14    8   46 1   
    15    8   47 1   
    16    9   10 1   
    17    9   14 1   
    18   10   48 1   
    19   11   12 1   
    20   11   18 1   
    21   12   13 1   
    22   13   14 1   
    23   13   49 1   
    24   14   50 1   
    25   15   16 1   
    26   15   51 1   
    27   15   52 1   
    28   16   17 1   
    29   16   53 1   
    30   16   54 1   
    31   17   55 1   
    32   17   56 1   
    33   17   57 1   
    34   18   41 1   
    35   18   58 1   
    36   18   59 1   
    37   19   37 1   
    38   19   60 1   
    39   20   39 1   
    40   20   61 1   
    41   21   40 1   
    42   21   62 1   
    43   22   23 1   
    44   22   24 1   
    45   22   25 1   
    46   22   39 1   
    47   23   26 1   
    48   23   63 1   
    49   23   64 1   
    50   24   27 1   
    51   24   65 1   
    52   24   66 1   
    53   25   28 1   
    54   25   67 1   
    55   25   68 1   
    56   26   29 1   
    57   26   30 1   
    58   26   69 1   
    59   27   29 1   
    60   27   31 1   
    61   27   70 1   
    62   28   30 1   
    63   28   31 1   
    64   28   71 1   
    65   29   72 1   
    66   29   73 1   
    67   30   74 1   
    68   30   75 1   
    69   31   76 1   
    70   31   77 1   
    71   32   78 1   
    72   33   34 1   
    73   33   79 1   
    74   34   80 1   
    75   35   36 1   
    76   35   81 1   
    77   36   82 1   
    78   37   38 1   
    79   38   41 1   
    80   38   42 1   
    81   39   40 1   
    82   40   83 1   
    83   41   84 1   
@<TRIPOS>SUBSTRUCTURE
     1 M7R         1 TEMP              0 ****  ****    0 ROOT
