@<TRIPOS>MOLECULE
M7R
   85    90     1     0     0
SMALL
bcc


@<TRIPOS>ATOM
      1 C1         -0.6720   -0.2410   -2.0750 c         1 M7R      0.910600
      2 O1         -1.6180    0.5810   -1.8250 o         1 M7R     -0.868300
      3 C2          0.4800   -0.4620   -1.0970 c3        1 M7R     -0.137700
      4 O2         -0.6850   -0.8500   -3.1930 o         1 M7R     -0.868300
      5 C3         -0.0410   -0.7330    0.3080 c3        1 M7R     -0.032100
      6 O3          1.4890    2.1670   -6.5060 os        1 M7R     -0.342900
      7 C4         -0.4830   -2.1420    0.5010 ca        1 M7R     -0.064300
      8 C5          1.4280    0.7480   -1.0570 c3        1 M7R     -0.019100
      9 C6          1.6280    1.3180   -2.4170 ca        1 M7R     -0.096300
     10 C7          0.5430    1.9860   -2.9960 ca        1 M7R     -0.074000
     11 C8          0.4700    2.1640   -4.3780 ca        1 M7R     -0.182300
     12 C9          1.6190    1.9150   -5.1560 ca        1 M7R      0.156100
     13 C10         2.7840    1.4290   -4.5450 ca        1 M7R     -0.205000
     14 C11         2.7660    1.0850   -3.1930 ca        1 M7R     -0.062000
     15 C12         2.6150    1.8140   -7.3230 c3        1 M7R      0.129400
     16 C13         2.1940    2.1010   -8.7540 c3        1 M7R     -0.087400
     17 C14         3.3170    1.7820   -9.7050 c3        1 M7R     -0.094100
     18 C15        -0.8750    2.4040   -4.9760 c3        1 M7R      0.201100
     19 C17        -5.1830    0.0900   -5.7550 ca        1 M7R     -0.057500
     20 C19        -6.1070   -0.9160   -5.5170 ca        1 M7R     -0.151000
     21 C22        -3.7900   -0.7660   -3.9640 ca        1 M7R     -0.057500
     22 C23        -6.9220   -2.9420   -4.2790 c3        1 M7R     -0.014700
     23 C24        -6.5370   -3.8930   -3.1380 c3        1 M7R     -0.064067
     24 C25        -7.0810   -3.7730   -5.5640 c3        1 M7R     -0.064067
     25 C26        -8.2730   -2.2960   -3.9310 c3        1 M7R     -0.064067
     26 C27        -7.6070   -4.9630   -2.9520 c3        1 M7R     -0.061700
     27 C28        -8.1550   -4.8380   -5.3740 c3        1 M7R     -0.061700
     28 C29        -9.3400   -3.3690   -3.7500 c3        1 M7R     -0.061700
     29 C30        -7.7520   -5.7700   -4.2370 c3        1 M7R     -0.071067
     30 C31        -8.9380   -4.3020   -2.6130 c3        1 M7R     -0.071067
     31 C32        -9.4840   -4.1700   -5.0390 c3        1 M7R     -0.071067
     32 C51         0.4570   -3.1800    0.5310 ca        1 M7R     -0.124000
     33 C52         0.0470   -4.4960    0.7390 ca        1 M7R     -0.133000
     34 C53        -1.3050   -4.7880    0.9190 ca        1 M7R     -0.138000
     35 C54        -2.2460   -3.7590    0.8870 ca        1 M7R     -0.133000
     36 C55        -1.8380   -2.4420    0.6780 ca        1 M7R     -0.124000
     37 C87        -4.0110    0.1720   -4.9790 ca        1 M7R     -0.208600
     38 C97        -3.0830    1.2650   -5.2930 c         1 M7R      0.575700
     39 C98        -5.8950   -1.8670   -4.5020 ca        1 M7R     -0.003300
     40 C99        -4.7290   -1.7730   -3.7360 ca        1 M7R     -0.151000
     41 N99        -1.8000    1.3020   -4.5480 ny        1 M7R     -0.706800
     42 O99        -3.2810    2.1550   -6.1240 o         1 M7R     -0.503100
     43 H2          1.0600   -1.3540   -1.4630 hc        1 M7R      0.068700
     44 H3          0.7720   -0.5120    1.0530 hc        1 M7R      0.055200
     45 H3A        -0.8920   -0.0280    0.5130 hc        1 M7R      0.055200
     46 H5          2.4070    0.4260   -0.6160 hc        1 M7R      0.049200
     47 H5A         0.9890    1.5340   -0.3840 hc        1 M7R      0.049200
     48 H7         -0.3070    2.2820   -2.3530 ha        1 M7R      0.170000
     49 H10         3.7000    1.2680   -5.1310 ha        1 M7R      0.140000
     50 H11         3.6490    0.6040   -2.7440 ha        1 M7R      0.138000
     51 H12         2.8570    0.7280   -7.1810 h1        1 M7R      0.043700
     52 H12A        3.4970    2.4410   -7.0280 h1        1 M7R      0.043700
     53 H13         1.9010    3.1790   -8.8440 hc        1 M7R      0.055700
     54 H13A        1.2880    1.4890   -9.0030 hc        1 M7R      0.055700
     55 H14         3.0000    1.9940  -10.7550 hc        1 M7R      0.038700
     56 H14A        3.6040    0.7050   -9.6340 hc        1 M7R      0.038700
     57 H14B        4.2180    2.4020   -9.4780 hc        1 M7R      0.038700
     58 H15        -1.3180    3.3780   -4.6280 hx        1 M7R      0.098200
     59 H15A       -0.8230    2.4130   -6.1030 hx        1 M7R      0.098200
     60 H17        -5.3590    0.8320   -6.5520 ha        1 M7R      0.182000
     61 H19        -7.0180   -0.9660   -6.1350 ha        1 M7R      0.151000
     62 H22        -2.8820   -0.7410   -3.3200 ha        1 M7R      0.182000
     63 H24        -5.5570   -4.3850   -3.3720 hc        1 M7R      0.046533
     64 H24A       -6.4230   -3.3130   -2.1860 hc        1 M7R      0.046533
     65 H25        -6.1040   -4.2600   -5.8150 hc        1 M7R      0.046533
     66 H25A       -7.3650   -3.1040   -6.4160 hc        1 M7R      0.046533
     67 H26        -8.1680   -1.7020   -2.9870 hc        1 M7R      0.046533
     68 H26A       -8.5820   -1.5960   -4.7480 hc        1 M7R      0.046533
     69 H27        -7.3020   -5.6450   -2.1140 hc        1 M7R      0.052033
     70 H28        -8.2600   -5.4280   -6.3240 hc        1 M7R      0.052033
     71 H29       -10.3190   -2.8770   -3.5030 hc        1 M7R      0.052033
     72 H30        -6.7830   -6.2740   -4.4820 hc        1 M7R      0.042700
     73 H30A       -8.5300   -6.5640   -4.1020 hc        1 M7R      0.042700
     74 H31        -8.8430   -3.7210   -1.6600 hc        1 M7R      0.042700
     75 H31A       -9.7250   -5.0840   -2.4650 hc        1 M7R      0.042700
     76 H32       -10.2790   -4.9490   -4.9150 hc        1 M7R      0.042700
     77 H32A       -9.7910   -3.4930   -5.8760 hc        1 M7R      0.042700
     78 H51         1.5230   -2.9530    0.3860 ha        1 M7R      0.133000
     79 H52         0.7910   -5.3050    0.7590 ha        1 M7R      0.124500
     80 H53        -1.6270   -5.8250    1.0840 ha        1 M7R      0.124000
     81 H54        -3.3130   -3.9860    1.0270 ha        1 M7R      0.124500
     82 H55        -2.5830   -1.6330    0.6440 ha        1 M7R      0.133000
     83 H99        -4.5190   -2.4950   -2.9290 ha        1 M7R      0.151000
     84 HN99       -1.3130    0.3740   -4.6210 hn        1 M7R      0.511300
     85 H992       -1.9980    1.3740   -3.5100 hn        1 M7R      0.511300
@<TRIPOS>BOND
     1    1    2 1   
     2    1    3 1   
     3    1    4 1   
     4    3    5 1   
     5    3    8 1   
     6    3   43 1   
     7    5    7 1   
     8    5   44 1   
     9    5   45 1   
    10    6   12 1   
    11    6   15 1   
    12    7   32 ar  
    13    7   36 ar  
    14    8    9 1   
    15    8   46 1   
    16    8   47 1   
    17    9   10 ar  
    18    9   14 ar  
    19   10   11 ar  
    20   10   48 1   
    21   11   12 ar  
    22   11   18 1   
    23   12   13 ar  
    24   13   14 ar  
    25   13   49 1   
    26   14   50 1   
    27   15   16 1   
    28   15   51 1   
    29   15   52 1   
    30   16   17 1   
    31   16   53 1   
    32   16   54 1   
    33   17   55 1   
    34   17   56 1   
    35   17   57 1   
    36   18   41 1   
    37   18   58 1   
    38   18   59 1   
    39   19   20 ar  
    40   19   37 ar  
    41   19   60 1   
    42   20   39 ar  
    43   20   61 1   
    44   21   37 ar  
    45   21   40 ar  
    46   21   62 1   
    47   22   23 1   
    48   22   24 1   
    49   22   25 1   
    50   22   39 1   
    51   23   26 1   
    52   23   63 1   
    53   23   64 1   
    54   24   27 1   
    55   24   65 1   
    56   24   66 1   
    57   25   28 1   
    58   25   67 1   
    59   25   68 1   
    60   26   29 1   
    61   26   30 1   
    62   26   69 1   
    63   27   29 1   
    64   27   31 1   
    65   27   70 1   
    66   28   30 1   
    67   28   31 1   
    68   28   71 1   
    69   29   72 1   
    70   29   73 1   
    71   30   74 1   
    72   30   75 1   
    73   31   76 1   
    74   31   77 1   
    75   32   33 ar  
    76   32   78 1   
    77   33   34 ar  
    78   33   79 1   
    79   34   35 ar  
    80   34   80 1   
    81   35   36 ar  
    82   35   81 1   
    83   36   82 1   
    84   37   38 1   
    85   38   41 1   
    86   38   42 2   
    87   39   40 ar  
    88   40   83 1   
    89   41   84 1   
    90   41   85 1   
@<TRIPOS>SUBSTRUCTURE
     1 M7R         1 TEMP              0 ****  ****    0 ROOT
