@<TRIPOS>MOLECULE
M7R
   85    90     1     0     0
SMALL
bcc


@<TRIPOS>ATOM
      1 C1         -0.6430   -0.2850   -2.0870 c         1 M7R      0.910600
      2 O1         -1.5800    0.5410   -1.8130 o         1 M7R     -0.868300
      3 C2          0.5190   -0.5290   -1.1270 c3        1 M7R     -0.137700
      4 O2         -0.6750   -0.8770   -3.2140 o         1 M7R     -0.868300
      5 C3          0.0130   -0.8190    0.2810 c3        1 M7R     -0.032100
      6 O3          1.4840    2.1720   -6.5080 os        1 M7R     -0.342900
      7 C4         -0.4380   -2.2260    0.4570 ca        1 M7R     -0.064300
      8 C5          1.4760    0.6720   -1.0800 c3        1 M7R     -0.019100
      9 C6          1.6650    1.2620   -2.4340 ca        1 M7R     -0.096300
     10 C7          0.5790    1.9470   -2.9890 ca        1 M7R     -0.074000
     11 C8          0.4900    2.1460   -4.3680 ca        1 M7R     -0.182300
     12 C9          1.6280    1.8990   -5.1630 ca        1 M7R      0.156100
     13 C10         2.7960    1.3950   -4.5740 ca        1 M7R     -0.205000
     14 C11         2.7910    1.0300   -3.2270 ca        1 M7R     -0.062000
     15 C12         2.5960    1.8220   -7.3430 c3        1 M7R      0.129400
     16 C13         2.1600    2.1330   -8.7650 c3        1 M7R     -0.087400
     17 C14         3.2690    1.8190   -9.7350 c3        1 M7R     -0.094100
     18 C15        -0.8600    2.4050   -4.9460 c3        1 M7R      0.201100
     19 C17        -5.1980    0.1390   -5.7040 ca        1 M7R     -0.057500
     20 C19        -6.1280   -0.8620   -5.4680 ca        1 M7R     -0.151000
     21 C22        -3.7900   -0.7540   -3.9430 ca        1 M7R     -0.057500
     22 C23        -6.9460   -2.8970   -4.2470 c3        1 M7R     -0.014700
     23 C24        -6.5550   -3.8670   -3.1240 c3        1 M7R     -0.064067
     24 C25        -7.1290   -3.7080   -5.5400 c3        1 M7R     -0.064067
     25 C26        -8.2860   -2.2430   -3.8720 c3        1 M7R     -0.064067
     26 C27        -7.6330   -4.9290   -2.9380 c3        1 M7R     -0.061700
     27 C28        -8.2100   -4.7660   -5.3510 c3        1 M7R     -0.061700
     28 C29        -9.3610   -3.3090   -3.6920 c3        1 M7R     -0.061700
     29 C30        -7.8020   -5.7180   -4.2320 c3        1 M7R     -0.071067
     30 C31        -8.9530   -4.2600   -2.5730 c3        1 M7R     -0.071067
     31 C32        -9.5290   -4.0910   -4.9900 c3        1 M7R     -0.071067
     32 C51         0.4930   -3.2730    0.4580 ca        1 M7R     -0.124000
     33 C52         0.0750   -4.5880    0.6500 ca        1 M7R     -0.133000
     34 C53        -1.2770   -4.8720    0.8440 ca        1 M7R     -0.138000
     35 C54        -2.2090   -3.8350    0.8410 ca        1 M7R     -0.133000
     36 C55        -1.7940   -2.5180    0.6480 ca        1 M7R     -0.124000
     37 C87        -4.0150    0.2000   -4.9420 ca        1 M7R     -0.208600
     38 C97        -3.0800    1.2880   -5.2520 c         1 M7R      0.575700
     39 C98        -5.9120   -1.8290   -4.4680 ca        1 M7R     -0.003300
     40 C99        -4.7350   -1.7560   -3.7160 ca        1 M7R     -0.151000
     41 N99        -1.7890    1.3040   -4.5220 n4        1 M7R     -0.706800
     42 O99        -3.2810    2.1910   -6.0690 o         1 M7R     -0.503100
     43 H2          1.0870   -1.4200   -1.5140 hc        1 M7R      0.068700
     44 H3          0.8370   -0.6150    1.0180 hc        1 M7R      0.055200
     45 H3A        -0.8300   -0.1090    0.5070 hc        1 M7R      0.055200
     46 H5          2.4580    0.3370   -0.6550 hc        1 M7R      0.049200
     47 H5A         1.0520    1.4510   -0.3900 hc        1 M7R      0.049200
     48 H7         -0.2610    2.2390   -2.3320 ha        1 M7R      0.170000
     49 H10         3.7030    1.2360   -5.1730 ha        1 M7R      0.140000
     50 H11         3.6750    0.5360   -2.7960 ha        1 M7R      0.138000
     51 H12         3.4870    2.4380   -7.0510 h1        1 M7R      0.043700
     52 H12A        2.8310    0.7320   -7.2210 h1        1 M7R      0.043700
     53 H13         1.8750    3.2160   -8.8360 hc        1 M7R      0.055700
     54 H13A        1.2460    1.5320   -9.0110 hc        1 M7R      0.055700
     55 H14         4.1780    2.4280   -9.5090 hc        1 M7R      0.038700
     56 H14A        3.5470    0.7390   -9.6820 hc        1 M7R      0.038700
     57 H14B        2.9400    2.0490  -10.7770 hc        1 M7R      0.038700
     58 H15        -0.8220    2.4300   -6.0720 hx        1 M7R      0.098200
     59 H15A       -1.2910    3.3770   -4.5780 hx        1 M7R      0.098200
     60 H17        -5.3770    0.8930   -6.4880 ha        1 M7R      0.182000
     61 H19        -7.0470   -0.8950   -6.0740 ha        1 M7R      0.151000
     62 H22        -2.8730   -0.7470   -3.3100 ha        1 M7R      0.182000
     63 H24        -5.5830   -4.3650   -3.3770 hc        1 M7R      0.046533
     64 H24A       -6.4240   -3.3010   -2.1660 hc        1 M7R      0.046533
     65 H25        -6.1600   -4.2010   -5.8110 hc        1 M7R      0.046533
     66 H25A       -7.4170   -3.0250   -6.3800 hc        1 M7R      0.046533
     67 H26        -8.5990   -1.5290   -4.6760 hc        1 M7R      0.046533
     68 H26A       -8.1640   -1.6630   -2.9210 hc        1 M7R      0.046533
     69 H27        -7.3240   -5.6250   -2.1130 hc        1 M7R      0.052033
     70 H28        -8.3340   -5.3420   -6.3070 hc        1 M7R      0.052033
     71 H29       -10.3320   -2.8110   -3.4250 hc        1 M7R      0.052033
     72 H30        -6.8400   -6.2270   -4.4970 hc        1 M7R      0.042700
     73 H30A       -8.5860   -6.5060   -4.0980 hc        1 M7R      0.042700
     74 H31        -8.8410   -3.6940   -1.6130 hc        1 M7R      0.042700
     75 H31A       -9.7460   -5.0370   -2.4260 hc        1 M7R      0.042700
     76 H32       -10.3300   -4.8640   -4.8660 hc        1 M7R      0.042700
     77 H32A       -9.8410   -3.3990   -5.8130 hc        1 M7R      0.042700
     78 H51         1.5590   -3.0510    0.3020 ha        1 M7R      0.133000
     79 H52         0.8130   -5.4030    0.6480 ha        1 M7R      0.124500
     80 H53        -1.6050   -5.9090    0.9970 ha        1 M7R      0.124000
     81 H54        -3.2760   -4.0550    0.9920 ha        1 M7R      0.124500
     82 H55        -2.5330   -1.7020    0.6360 ha        1 M7R      0.133000
     83 H99        -4.5220   -2.4910   -2.9230 ha        1 M7R      0.151000
     84 HN99       -1.9740    1.3630   -3.4820 hn        1 M7R      0.511300
     85 H992       -1.3100    0.3740   -4.6150 hn        1 M7R      0.511300
@<TRIPOS>BOND
     1    1    2 1   
     2    1    3 1   
     3    1    4 1   
     4    3    5 1   
     5    3    8 1   
     6    3   43 1   
     7    5    7 1   
     8    5   44 1   
     9    5   45 1   
    10    6   12 1   
    11    6   15 1   
    12    7   32 ar  
    13    7   36 ar  
    14    8    9 1   
    15    8   46 1   
    16    8   47 1   
    17    9   10 ar  
    18    9   14 ar  
    19   10   11 ar  
    20   10   48 1   
    21   11   12 ar  
    22   11   18 1   
    23   12   13 ar  
    24   13   14 ar  
    25   13   49 1   
    26   14   50 1   
    27   15   16 1   
    28   15   51 1   
    29   15   52 1   
    30   16   17 1   
    31   16   53 1   
    32   16   54 1   
    33   17   55 1   
    34   17   56 1   
    35   17   57 1   
    36   18   41 1   
    37   18   58 1   
    38   18   59 1   
    39   19   20 ar  
    40   19   37 ar  
    41   19   60 1   
    42   20   39 ar  
    43   20   61 1   
    44   21   37 ar  
    45   21   40 ar  
    46   21   62 1   
    47   22   23 1   
    48   22   24 1   
    49   22   25 1   
    50   22   39 1   
    51   23   26 1   
    52   23   63 1   
    53   23   64 1   
    54   24   27 1   
    55   24   65 1   
    56   24   66 1   
    57   25   28 1   
    58   25   67 1   
    59   25   68 1   
    60   26   29 1   
    61   26   30 1   
    62   26   69 1   
    63   27   29 1   
    64   27   31 1   
    65   27   70 1   
    66   28   30 1   
    67   28   31 1   
    68   28   71 1   
    69   29   72 1   
    70   29   73 1   
    71   30   74 1   
    72   30   75 1   
    73   31   76 1   
    74   31   77 1   
    75   32   33 ar  
    76   32   78 1   
    77   33   34 ar  
    78   33   79 1   
    79   34   35 ar  
    80   34   80 1   
    81   35   36 ar  
    82   35   81 1   
    83   36   82 1   
    84   37   38 1   
    85   38   41 1   
    86   38   42 2   
    87   39   40 ar  
    88   40   83 1   
    89   41   84 1   
    90   41   85 1   
@<TRIPOS>SUBSTRUCTURE
     1 M7R         1 TEMP              0 ****  ****    0 ROOT
