@<TRIPOS>MOLECULE
M7S
   85    90     1     0     0
SMALL
bcc


@<TRIPOS>ATOM
      1 C1          0.9470   -0.2030    0.2160 c         1 M7S      0.641100
      2 O1          0.0090   -0.9180    0.5820 o         1 M7S     -0.560000
      3 C2          2.3260   -0.5950   -0.2480 c3        1 M7S     -0.102700
      4 O2          0.7270    1.1420    0.2370 oh        1 M7S     -0.606100
      5 C3          3.2010   -0.8950    0.9720 c3        1 M7S     -0.030100
      6 O3         -0.1400   -0.6550   -6.1720 os        1 M7S     -0.345900
      7 C4          4.2180    0.1600    1.2350 ca        1 M7S     -0.091300
      8 C5          2.2370   -1.8120   -1.1650 c3        1 M7S     -0.027100
      9 C6          1.5880   -1.5050   -2.4680 ca        1 M7S     -0.129300
     10 C7          2.3570   -1.0670   -3.5540 ca        1 M7S     -0.074000
     11 C8          1.7700   -0.8060   -4.7900 ca        1 M7S     -0.144300
     12 C9          0.3740   -0.9720   -4.9290 ca        1 M7S      0.133100
     13 C10        -0.4030   -1.4070   -3.8490 ca        1 M7S     -0.202000
     14 C11         0.2090   -1.6730   -2.6270 ca        1 M7S     -0.084000
     15 C12        -1.4920   -1.0670   -6.4140 c3        1 M7S      0.129400
     16 C13        -1.7500   -0.8050   -7.8880 c3        1 M7S     -0.087400
     17 C14        -3.1630   -1.1790   -8.2490 c3        1 M7S     -0.094100
     18 C15         2.6140   -0.3830   -5.9600 c3        1 M7S      0.141300
     19 C17         3.5800    4.2770   -7.0990 ca        1 M7S     -0.090500
     20 C19         3.1660    5.5510   -7.4730 ca        1 M7S     -0.139500
     21 C22         1.3300    3.7590   -6.3930 ca        1 M7S     -0.090500
     22 C23         1.4250    7.3400   -7.7310 c3        1 M7S     -0.006700
     23 C24        -0.0650    7.6150   -7.4900 c3        1 M7S     -0.063067
     24 C25         1.7110    7.5290   -9.2300 c3        1 M7S     -0.063067
     25 C26         2.2370    8.3740   -6.9340 c3        1 M7S     -0.063067
     26 C27        -0.4250    9.0300   -7.9290 c3        1 M7S     -0.062367
     27 C28         1.3550    8.9460   -9.6630 c3        1 M7S     -0.062367
     28 C29         1.8780    9.7860   -7.3780 c3        1 M7S     -0.062367
     29 C30        -0.1290    9.1960   -9.4150 c3        1 M7S     -0.070400
     30 C31         0.3950   10.0370   -7.1300 c3        1 M7S     -0.070400
     31 C32         2.1810    9.9480   -8.8640 c3        1 M7S     -0.070400
     32 C51         3.8550    1.5120    1.2780 ca        1 M7S     -0.126000
     33 C52         4.8110    2.4870    1.5540 ca        1 M7S     -0.127000
     34 C53         6.1370    2.1230    1.7920 ca        1 M7S     -0.128000
     35 C54         6.5040    0.7780    1.7510 ca        1 M7S     -0.127000
     36 C55         5.5500   -0.2000    1.4730 ca        1 M7S     -0.126000
     37 C87         2.6590    3.3690   -6.5640 ca        1 M7S     -0.142600
     38 C97         3.1470    2.0180   -6.1640 c         1 M7S      0.665700
     39 C98         1.8290    5.9530   -7.3140 ca        1 M7S     -0.042300
     40 C99         0.9210    5.0400   -6.7640 ca        1 M7S     -0.139500
     41 N99         2.3330    0.9370   -6.4540 n         1 M7S     -0.548900
     42 O99         4.2770    1.8600   -5.6560 o         1 M7S     -0.610100
     43 H2          2.7630    0.2690   -0.8270 hc        1 M7S      0.101700
     44 H3          2.5550   -1.0090    1.8860 hc        1 M7S      0.061700
     45 H3A         3.7160   -1.8830    0.8210 hc        1 M7S      0.061700
     46 H5          1.6670   -2.6240   -0.6370 hc        1 M7S      0.064200
     47 H5A         3.2800   -2.1890   -1.3500 hc        1 M7S      0.064200
     48 H7          3.4430   -0.9270   -3.4320 ha        1 M7S      0.146000
     49 H10        -1.4890   -1.5410   -3.9510 ha        1 M7S      0.140000
     50 H11        -0.4000   -2.0060   -1.7700 ha        1 M7S      0.151000
     51 H12        -2.1820   -0.4590   -5.7700 h1        1 M7S      0.041700
     52 H12A       -1.6090   -2.1550   -6.1700 h1        1 M7S      0.041700
     53 H13        -1.5650    0.2780   -8.1100 hc        1 M7S      0.056200
     54 H13A       -1.0220   -1.3970   -8.5020 hc        1 M7S      0.056200
     55 H14        -3.3450   -0.9850   -9.3340 hc        1 M7S      0.038367
     56 H14A       -3.8960   -0.5800   -7.6560 hc        1 M7S      0.038367
     57 H14B       -3.3510   -2.2620   -8.0490 hc        1 M7S      0.038367
     58 H15         2.4160   -1.1070   -6.8050 h1        1 M7S      0.071700
     59 H15A        3.7060   -0.4430   -5.6820 h1        1 M7S      0.071700
     60 H17         4.6330    3.9740   -7.2100 ha        1 M7S      0.144000
     61 H19         3.9020    6.2520   -7.8960 ha        1 M7S      0.137000
     62 H22         0.5940    3.0710   -5.9490 ha        1 M7S      0.144000
     63 H24        -0.6820    6.8800   -8.0690 hc        1 M7S      0.044533
     64 H24A       -0.2990    7.4950   -6.4010 hc        1 M7S      0.044533
     65 H25         2.7950    7.3360   -9.4360 hc        1 M7S      0.044533
     66 H25A        1.1100    6.7890   -9.8190 hc        1 M7S      0.044533
     67 H26         3.3320    8.1990   -7.0910 hc        1 M7S      0.044533
     68 H26A        2.0220    8.2530   -5.8410 hc        1 M7S      0.044533
     69 H27        -1.5190    9.2060   -7.7430 hc        1 M7S      0.049700
     70 H28         1.5770    9.0650  -10.7570 hc        1 M7S      0.049700
     71 H29         2.4860   10.5240   -6.7890 hc        1 M7S      0.049700
     72 H30        -0.7420    8.4720  -10.0090 hc        1 M7S      0.041367
     73 H30A       -0.4010   10.2320   -9.7440 hc        1 M7S      0.041367
     74 H31         0.1680    9.9330   -6.0390 hc        1 M7S      0.041367
     75 H31A        0.1270   11.0790   -7.4420 hc        1 M7S      0.041367
     76 H32         3.2710    9.7770   -9.0510 hc        1 M7S      0.041367
     77 H32A        1.9330   10.9900   -9.1910 hc        1 M7S      0.041367
     78 H51         2.8090    1.8020    1.0860 ha        1 M7S      0.138000
     79 H52         4.5180    3.5470    1.5830 ha        1 M7S      0.132000
     80 H53         6.8900    2.8940    2.0080 ha        1 M7S      0.132000
     81 H54         7.5480    0.4870    1.9350 ha        1 M7S      0.132000
     82 H55         5.8470   -1.2580    1.4410 ha        1 M7S      0.138000
     83 H99        -0.1330    5.3160   -6.6120 ha        1 M7S      0.137000
     84 HN99        1.3920    1.1080   -6.7280 hn        1 M7S      0.316500
     85 H992       -0.1760    1.3210    0.5450 ho        1 M7S      0.442000
@<TRIPOS>BOND
     1    1    2 2   
     2    1    3 1   
     3    1    4 1   
     4    3    5 1   
     5    3    8 1   
     6    3   43 1   
     7    4   85 1   
     8    5    7 1   
     9    5   44 1   
    10    5   45 1   
    11    6   12 1   
    12    6   15 1   
    13    7   32 ar  
    14    7   36 ar  
    15    8    9 1   
    16    8   46 1   
    17    8   47 1   
    18    9   10 ar  
    19    9   14 ar  
    20   10   11 ar  
    21   10   48 1   
    22   11   12 ar  
    23   11   18 1   
    24   12   13 ar  
    25   13   14 ar  
    26   13   49 1   
    27   14   50 1   
    28   15   16 1   
    29   15   51 1   
    30   15   52 1   
    31   16   17 1   
    32   16   53 1   
    33   16   54 1   
    34   17   55 1   
    35   17   56 1   
    36   17   57 1   
    37   18   41 1   
    38   18   58 1   
    39   18   59 1   
    40   19   20 ar  
    41   19   37 ar  
    42   19   60 1   
    43   20   39 ar  
    44   20   61 1   
    45   21   37 ar  
    46   21   40 ar  
    47   21   62 1   
    48   22   23 1   
    49   22   24 1   
    50   22   25 1   
    51   22   39 1   
    52   23   26 1   
    53   23   63 1   
    54   23   64 1   
    55   24   27 1   
    56   24   65 1   
    57   24   66 1   
    58   25   28 1   
    59   25   67 1   
    60   25   68 1   
    61   26   29 1   
    62   26   30 1   
    63   26   69 1   
    64   27   29 1   
    65   27   31 1   
    66   27   70 1   
    67   28   30 1   
    68   28   31 1   
    69   28   71 1   
    70   29   72 1   
    71   29   73 1   
    72   30   74 1   
    73   30   75 1   
    74   31   76 1   
    75   31   77 1   
    76   32   33 ar  
    77   32   78 1   
    78   33   34 ar  
    79   33   79 1   
    80   34   35 ar  
    81   34   80 1   
    82   35   36 ar  
    83   35   81 1   
    84   36   82 1   
    85   37   38 1   
    86   38   41 1   
    87   38   42 2   
    88   39   40 ar  
    89   40   83 1   
    90   41   84 1   
@<TRIPOS>SUBSTRUCTURE
     1 M7S         1 TEMP              0 ****  ****    0 ROOT
