@<TRIPOS>MOLECULE
M7S
   85    90     1     0     0
SMALL
bcc


@<TRIPOS>ATOM
      1 C1          0.9440   -0.2180    0.2060 c         1 M7S      0.641100
      2 O1          0.0040   -0.9340    0.5660 o         1 M7S     -0.560000
      3 C2          2.3220   -0.6090   -0.2580 c3        1 M7S     -0.102700
      4 O2          0.7270    1.1270    0.2380 oh        1 M7S     -0.606100
      5 C3          3.1980   -0.9120    0.9610 c3        1 M7S     -0.030100
      6 O3         -0.1350   -0.6510   -6.1860 os        1 M7S     -0.345900
      7 C4          4.2190    0.1400    1.2220 ca        1 M7S     -0.091300
      8 C5          2.2350   -1.8240   -1.1790 c3        1 M7S     -0.027100
      9 C6          1.5870   -1.5120   -2.4820 ca        1 M7S     -0.129300
     10 C7          2.3570   -1.0700   -3.5640 ca        1 M7S     -0.074000
     11 C8          1.7720   -0.8050   -4.8010 ca        1 M7S     -0.144300
     12 C9          0.3780   -0.9720   -4.9440 ca        1 M7S      0.132100
     13 C10        -0.4010   -1.4120   -3.8670 ca        1 M7S     -0.203000
     14 C11         0.2090   -1.6810   -2.6440 ca        1 M7S     -0.084000
     15 C12        -1.4860   -1.0640   -6.4320 c3        1 M7S      0.129400
     16 C13        -1.7400   -0.7980   -7.9060 c3        1 M7S     -0.087400
     17 C14        -3.1530   -1.1720   -8.2710 c3        1 M7S     -0.094100
     18 C15         2.6190   -0.3770   -5.9680 c3        1 M7S      0.141300
     19 C17         3.5800    4.2900   -7.0830 ca        1 M7S     -0.090500
     20 C19         3.1650    5.5650   -7.4530 ca        1 M7S     -0.139500
     21 C22         1.3280    3.7640   -6.3910 ca        1 M7S     -0.090500
     22 C23         1.4220    7.3510   -7.7110 c3        1 M7S     -0.006700
     23 C24        -0.0710    7.6210   -7.4780 c3        1 M7S     -0.063067
     24 C25         1.7160    7.5480   -9.2080 c3        1 M7S     -0.063067
     25 C26         2.2270    8.3830   -6.9040 c3        1 M7S     -0.063067
     26 C27        -0.4320    9.0380   -7.9120 c3        1 M7S     -0.062367
     27 C28         1.3590    8.9660   -9.6360 c3        1 M7S     -0.062367
     28 C29         1.8670    9.7970   -7.3440 c3        1 M7S     -0.062367
     29 C30        -0.1270    9.2120   -9.3960 c3        1 M7S     -0.070400
     30 C31         0.3810   10.0430   -7.1040 c3        1 M7S     -0.070400
     31 C32         2.1780    9.9660   -8.8270 c3        1 M7S     -0.070400
     32 C51         3.8610    1.4920    1.2680 ca        1 M7S     -0.126000
     33 C52         4.8210    2.4650    1.5420 ca        1 M7S     -0.127000
     34 C53         6.1460    2.0960    1.7740 ca        1 M7S     -0.128000
     35 C54         6.5090    0.7500    1.7290 ca        1 M7S     -0.127000
     36 C55         5.5510   -0.2240    1.4540 ca        1 M7S     -0.126000
     37 C87         2.6590    3.3770   -6.5560 ca        1 M7S     -0.142600
     38 C97         3.1480    2.0250   -6.1600 c         1 M7S      0.665700
     39 C98         1.8270    5.9630   -7.2980 ca        1 M7S     -0.042300
     40 C99         0.9180    5.0460   -6.7580 ca        1 M7S     -0.139500
     41 N99         2.3370    0.9440   -6.4580 n         1 M7S     -0.548900
     42 O99         4.2770    1.8680   -5.6490 o         1 M7S     -0.610100
     43 H2          2.7590    0.2570   -0.8350 hc        1 M7S      0.101700
     44 H3          3.7090   -1.9020    0.8100 hc        1 M7S      0.061700
     45 H3A         2.5530   -1.0220    1.8760 hc        1 M7S      0.061700
     46 H5          3.2770   -2.2010   -1.3630 hc        1 M7S      0.064200
     47 H5A         1.6630   -2.6370   -0.6540 hc        1 M7S      0.064200
     48 H7          3.4440   -0.9290   -3.4400 ha        1 M7S      0.146000
     49 H10        -1.4870   -1.5460   -3.9700 ha        1 M7S      0.140000
     50 H11        -0.4010   -2.0170   -1.7890 ha        1 M7S      0.151000
     51 H12        -2.1770   -0.4600   -5.7880 h1        1 M7S      0.041700
     52 H12A       -1.6010   -2.1530   -6.1920 h1        1 M7S      0.041700
     53 H13        -1.0100   -1.3870   -8.5200 hc        1 M7S      0.055700
     54 H13A       -1.5570    0.2860   -8.1240 hc        1 M7S      0.055700
     55 H14        -3.3390   -2.2560   -8.0750 hc        1 M7S      0.038367
     56 H14A       -3.3320   -0.9740   -9.3560 hc        1 M7S      0.038367
     57 H14B       -3.8880   -0.5760   -7.6780 hc        1 M7S      0.038367
     58 H15         3.7100   -0.4360   -5.6880 h1        1 M7S      0.071700
     59 H15A        2.4240   -1.0990   -6.8160 h1        1 M7S      0.071700
     60 H17         4.6350    3.9900   -7.1890 ha        1 M7S      0.144000
     61 H19         3.9020    6.2690   -7.8680 ha        1 M7S      0.137000
     62 H22         0.5910    3.0720   -5.9540 ha        1 M7S      0.144000
     63 H24        -0.3110    7.4950   -6.3910 hc        1 M7S      0.044533
     64 H24A       -0.6820    6.8870   -8.0640 hc        1 M7S      0.044533
     65 H25         1.1210    6.8100   -9.8040 hc        1 M7S      0.044533
     66 H25A        2.8020    7.3590   -9.4080 hc        1 M7S      0.044533
     67 H26         3.3230    8.2110   -7.0570 hc        1 M7S      0.044533
     68 H26A        2.0050    8.2560   -5.8140 hc        1 M7S      0.044533
     69 H27        -1.5260    9.2100   -7.7320 hc        1 M7S      0.049700
     70 H28         1.5870    9.0910  -10.7280 hc        1 M7S      0.049700
     71 H29         2.4700   10.5330   -6.7480 hc        1 M7S      0.049700
     72 H30        -0.7350    8.4890   -9.9970 hc        1 M7S      0.041367
     73 H30A       -0.3990   10.2480   -9.7220 hc        1 M7S      0.041367
     74 H31         0.1480    9.9330   -6.0140 hc        1 M7S      0.041367
     75 H31A        0.1130   11.0850   -7.4120 hc        1 M7S      0.041367
     76 H32         3.2700    9.7980   -9.0080 hc        1 M7S      0.041367
     77 H32A        1.9300   11.0090   -9.1510 hc        1 M7S      0.041367
     78 H51         2.8150    1.7860    1.0800 ha        1 M7S      0.138000
     79 H52         4.5310    3.5250    1.5730 ha        1 M7S      0.132000
     80 H53         6.9030    2.8640    1.9880 ha        1 M7S      0.132000
     81 H54         7.5530    0.4560    1.9100 ha        1 M7S      0.132000
     82 H55         5.8450   -1.2840    1.4200 ha        1 M7S      0.138000
     83 H99        -0.1380    5.3190   -6.6100 ha        1 M7S      0.137000
     84 HN99       -0.1770    1.3060    0.5460 ho        1 M7S      0.442000
     85 H992        1.3960    1.1150   -6.7340 hn        1 M7S      0.316500
@<TRIPOS>BOND
     1    1    2 2   
     2    1    3 1   
     3    1    4 1   
     4    3    5 1   
     5    3    8 1   
     6    3   43 1   
     7    4   84 1   
     8    5    7 1   
     9    5   44 1   
    10    5   45 1   
    11    6   12 1   
    12    6   15 1   
    13    7   32 ar  
    14    7   36 ar  
    15    8    9 1   
    16    8   46 1   
    17    8   47 1   
    18    9   10 ar  
    19    9   14 ar  
    20   10   11 ar  
    21   10   48 1   
    22   11   12 ar  
    23   11   18 1   
    24   12   13 ar  
    25   13   14 ar  
    26   13   49 1   
    27   14   50 1   
    28   15   16 1   
    29   15   51 1   
    30   15   52 1   
    31   16   17 1   
    32   16   53 1   
    33   16   54 1   
    34   17   55 1   
    35   17   56 1   
    36   17   57 1   
    37   18   41 1   
    38   18   58 1   
    39   18   59 1   
    40   19   20 ar  
    41   19   37 ar  
    42   19   60 1   
    43   20   39 ar  
    44   20   61 1   
    45   21   37 ar  
    46   21   40 ar  
    47   21   62 1   
    48   22   23 1   
    49   22   24 1   
    50   22   25 1   
    51   22   39 1   
    52   23   26 1   
    53   23   63 1   
    54   23   64 1   
    55   24   27 1   
    56   24   65 1   
    57   24   66 1   
    58   25   28 1   
    59   25   67 1   
    60   25   68 1   
    61   26   29 1   
    62   26   30 1   
    63   26   69 1   
    64   27   29 1   
    65   27   31 1   
    66   27   70 1   
    67   28   30 1   
    68   28   31 1   
    69   28   71 1   
    70   29   72 1   
    71   29   73 1   
    72   30   74 1   
    73   30   75 1   
    74   31   76 1   
    75   31   77 1   
    76   32   33 ar  
    77   32   78 1   
    78   33   34 ar  
    79   33   79 1   
    80   34   35 ar  
    81   34   80 1   
    82   35   36 ar  
    83   35   81 1   
    84   36   82 1   
    85   37   38 1   
    86   38   41 1   
    87   38   42 2   
    88   39   40 ar  
    89   40   83 1   
    90   41   85 1   
@<TRIPOS>SUBSTRUCTURE
     1 M7S         1 TEMP              0 ****  ****    0 ROOT
