@<TRIPOS>MOLECULE
M7S
   85    90     1     0     0
SMALL
bcc


@<TRIPOS>ATOM
      1 C1          0.9290   -0.2160    0.2050 c         1 M7S      0.641100
      2 O1         -0.0110   -0.9330    0.5640 o         1 M7S     -0.560000
      3 C2          2.3090   -0.6050   -0.2530 c3        1 M7S     -0.102700
      4 O2          0.7080    1.1290    0.2320 oh        1 M7S     -0.606100
      5 C3          3.1800   -0.9070    0.9700 c3        1 M7S     -0.030100
      6 O3         -0.1270   -0.6540   -6.1900 os        1 M7S     -0.345900
      7 C4          4.1960    0.1480    1.2380 ca        1 M7S     -0.091300
      8 C5          2.2270   -1.8210   -1.1730 c3        1 M7S     -0.027100
      9 C6          1.5840   -1.5100   -2.4790 ca        1 M7S     -0.129300
     10 C7          2.3570   -1.0680   -3.5590 ca        1 M7S     -0.074000
     11 C8          1.7760   -0.8050   -4.7980 ca        1 M7S     -0.144300
     12 C9          0.3820   -0.9740   -4.9450 ca        1 M7S      0.132100
     13 C10        -0.4000   -1.4130   -3.8700 ca        1 M7S     -0.202000
     14 C11         0.2060   -1.6800   -2.6450 ca        1 M7S     -0.084000
     15 C12        -1.4770   -1.0680   -6.4390 c3        1 M7S      0.129400
     16 C13        -1.7280   -0.8040   -7.9140 c3        1 M7S     -0.087400
     17 C14        -3.1390   -1.1790   -8.2830 c3        1 M7S     -0.094100
     18 C15         2.6250   -0.3770   -5.9620 c3        1 M7S      0.141300
     19 C17         3.5870    4.2890   -7.0810 ca        1 M7S     -0.090500
     20 C19         3.1720    5.5630   -7.4540 ca        1 M7S     -0.139500
     21 C22         1.3340    3.7630   -6.3920 ca        1 M7S     -0.090500
     22 C23         1.4290    7.3480   -7.7190 c3        1 M7S     -0.006700
     23 C24        -0.0630    7.6180   -7.4880 c3        1 M7S     -0.063067
     24 C25         1.7250    7.5410   -9.2150 c3        1 M7S     -0.063067
     25 C26         2.2330    8.3810   -6.9130 c3        1 M7S     -0.063067
     26 C27        -0.4240    9.0340   -7.9250 c3        1 M7S     -0.062367
     27 C28         1.3680    8.9590   -9.6470 c3        1 M7S     -0.062367
     28 C29         1.8740    9.7940   -7.3560 c3        1 M7S     -0.062367
     29 C30        -0.1180    9.2050   -9.4090 c3        1 M7S     -0.070400
     30 C31         0.3880   10.0410   -7.1180 c3        1 M7S     -0.070400
     31 C32         2.1860    9.9610   -8.8390 c3        1 M7S     -0.070400
     32 C51         3.8330    1.5000    1.2820 ca        1 M7S     -0.126000
     33 C52         4.7870    2.4750    1.5630 ca        1 M7S     -0.127000
     34 C53         6.1120    2.1110    1.8030 ca        1 M7S     -0.128000
     35 C54         6.4800    0.7660    1.7610 ca        1 M7S     -0.127000
     36 C55         5.5270   -0.2110    1.4790 ca        1 M7S     -0.126000
     37 C87         2.6650    3.3760   -6.5550 ca        1 M7S     -0.142600
     38 C97         3.1550    2.0250   -6.1560 c         1 M7S      0.665700
     39 C98         1.8340    5.9600   -7.3030 ca        1 M7S     -0.042300
     40 C99         0.9250    5.0440   -6.7620 ca        1 M7S     -0.139500
     41 N99         2.3440    0.9440   -6.4550 ns        1 M7S     -0.548900
     42 O99         4.2820    1.8690   -5.6410 o         1 M7S     -0.610100
     43 H2          2.7480    0.2610   -0.8280 hc        1 M7S      0.101700
     44 H3          2.5310   -1.0220    1.8810 hc        1 M7S      0.061700
     45 H3A         3.6960   -1.8940    0.8200 hc        1 M7S      0.061700
     46 H5          3.2710   -2.1960   -1.3540 hc        1 M7S      0.064200
     47 H5A         1.6550   -2.6340   -0.6500 hc        1 M7S      0.064200
     48 H7          3.4430   -0.9260   -3.4320 ha        1 M7S      0.146000
     49 H10        -1.4850   -1.5480   -3.9770 ha        1 M7S      0.140000
     50 H11        -0.4060   -2.0170   -1.7920 ha        1 M7S      0.151000
     51 H12        -2.1710   -0.4640   -5.7980 h1        1 M7S      0.041700
     52 H12A       -1.5930   -2.1570   -6.1990 h1        1 M7S      0.041700
     53 H13        -1.5440    0.2810   -8.1320 hc        1 M7S      0.056200
     54 H13A       -0.9950   -1.3930   -8.5250 hc        1 M7S      0.056200
     55 H14        -3.8760   -0.5820   -7.6930 hc        1 M7S      0.038367
     56 H14A       -3.3150   -0.9820   -9.3680 hc        1 M7S      0.038367
     57 H14B       -3.3250   -2.2620   -8.0860 hc        1 M7S      0.038367
     58 H15         2.4330   -1.1000   -6.8110 h1        1 M7S      0.071700
     59 H15A        3.7160   -0.4350   -5.6790 h1        1 M7S      0.071700
     60 H17         4.6430    3.9890   -7.1860 ha        1 M7S      0.144000
     61 H19         3.9100    6.2660   -7.8700 ha        1 M7S      0.137000
     62 H22         0.5970    3.0720   -5.9550 ha        1 M7S      0.144000
     63 H24        -0.6740    6.8830   -8.0720 hc        1 M7S      0.044533
     64 H24A       -0.3050    7.4950   -6.4000 hc        1 M7S      0.044533
     65 H25         1.1300    6.8020   -9.8100 hc        1 M7S      0.044533
     66 H25A        2.8110    7.3520   -9.4140 hc        1 M7S      0.044533
     67 H26         2.0110    8.2570   -5.8220 hc        1 M7S      0.044533
     68 H26A        3.3300    8.2100   -7.0640 hc        1 M7S      0.044533
     69 H27        -1.5190    9.2060   -7.7460 hc        1 M7S      0.049700
     70 H28         1.5980    9.0810  -10.7390 hc        1 M7S      0.049700
     71 H29         2.4760   10.5320   -6.7610 hc        1 M7S      0.049700
     72 H30        -0.7250    8.4800  -10.0090 hc        1 M7S      0.041367
     73 H30A       -0.3900   10.2400   -9.7370 hc        1 M7S      0.041367
     74 H31         0.1200   11.0820   -7.4280 hc        1 M7S      0.041367
     75 H31A        0.1540    9.9330   -6.0280 hc        1 M7S      0.041367
     76 H32         3.2780    9.7930   -9.0190 hc        1 M7S      0.041367
     77 H32A        1.9380   11.0030   -9.1650 hc        1 M7S      0.041367
     78 H51         2.7870    1.7900    1.0880 ha        1 M7S      0.138000
     79 H52         4.4940    3.5350    1.5930 ha        1 M7S      0.132000
     80 H53         6.8650    2.8820    2.0230 ha        1 M7S      0.132000
     81 H54         7.5240    0.4750    1.9480 ha        1 M7S      0.132000
     82 H55         5.8250   -1.2700    1.4460 ha        1 M7S      0.138000
     83 H99        -0.1310    5.3170   -6.6160 ha        1 M7S      0.137000
     84 HN99       -0.1970    1.3060    0.5360 ho        1 M7S      0.442000
     85 H992        1.4040    1.1130   -6.7340 hn        1 M7S      0.316500
@<TRIPOS>BOND
     1    1    2 2   
     2    1    3 1   
     3    1    4 1   
     4    3    5 1   
     5    3    8 1   
     6    3   43 1   
     7    4   84 1   
     8    5    7 1   
     9    5   44 1   
    10    5   45 1   
    11    6   12 1   
    12    6   15 1   
    13    7   32 ar  
    14    7   36 ar  
    15    8    9 1   
    16    8   46 1   
    17    8   47 1   
    18    9   10 ar  
    19    9   14 ar  
    20   10   11 ar  
    21   10   48 1   
    22   11   12 ar  
    23   11   18 1   
    24   12   13 ar  
    25   13   14 ar  
    26   13   49 1   
    27   14   50 1   
    28   15   16 1   
    29   15   51 1   
    30   15   52 1   
    31   16   17 1   
    32   16   53 1   
    33   16   54 1   
    34   17   55 1   
    35   17   56 1   
    36   17   57 1   
    37   18   41 1   
    38   18   58 1   
    39   18   59 1   
    40   19   20 ar  
    41   19   37 ar  
    42   19   60 1   
    43   20   39 ar  
    44   20   61 1   
    45   21   37 ar  
    46   21   40 ar  
    47   21   62 1   
    48   22   23 1   
    49   22   24 1   
    50   22   25 1   
    51   22   39 1   
    52   23   26 1   
    53   23   63 1   
    54   23   64 1   
    55   24   27 1   
    56   24   65 1   
    57   24   66 1   
    58   25   28 1   
    59   25   67 1   
    60   25   68 1   
    61   26   29 1   
    62   26   30 1   
    63   26   69 1   
    64   27   29 1   
    65   27   31 1   
    66   27   70 1   
    67   28   30 1   
    68   28   31 1   
    69   28   71 1   
    70   29   72 1   
    71   29   73 1   
    72   30   74 1   
    73   30   75 1   
    74   31   76 1   
    75   31   77 1   
    76   32   33 ar  
    77   32   78 1   
    78   33   34 ar  
    79   33   79 1   
    80   34   35 ar  
    81   34   80 1   
    82   35   36 ar  
    83   35   81 1   
    84   36   82 1   
    85   37   38 1   
    86   38   41 1   
    87   38   42 2   
    88   39   40 ar  
    89   40   83 1   
    90   41   85 1   
@<TRIPOS>SUBSTRUCTURE
     1 M7S         1 TEMP              0 ****  ****    0 ROOT
