@<TRIPOS>MOLECULE
M7S
   84    83     1     0     0
SMALL
bcc


@<TRIPOS>ATOM
      1 C1         -5.2180    0.9630    1.4940 c1        1 M7S      0.326000
      2 O1         -5.8210   -0.0630    1.9190 o         1 M7S     -0.573500
      3 C2         -3.7310    1.0940    1.6840 c2        1 M7S     -0.181000
      4 O2         -5.8710    1.8990    0.9500 o         1 M7S     -0.573500
      5 C3         -3.3970    1.0070    3.1680 c3        1 M7S     -0.112000
      6 O3         -3.9080    0.0040   -4.7490 os        1 M7S     -0.243000
      7 C4         -4.1510    2.1090    3.9300 c2        1 M7S     -0.045000
      8 C5         -3.0220   -0.0300    0.9360 c3        1 M7S     -0.110000
      9 C6         -3.3020    0.1010   -0.5770 c2        1 M7S     -0.069000
     10 C7         -2.2800    0.5000   -1.4400 c1        1 M7S     -0.105000
     11 C8         -2.4820    0.4710   -2.8190 c1        1 M7S     -0.152000
     12 C9         -3.7050    0.0430   -3.3360 c2        1 M7S      0.049000
     13 C10        -4.7250   -0.3540   -2.4750 c2        1 M7S     -0.197000
     14 C11        -4.5240   -0.3260   -1.0960 c2        1 M7S     -0.081000
     15 C12        -5.1950    0.4610   -5.1620 c3        1 M7S     -0.018000
     16 C13        -5.1540    0.8240   -6.6540 c3        1 M7S     -0.167000
     17 C14        -6.5590    1.2160   -7.1230 c3        1 M7S     -0.210000
     18 C15        -1.3220    0.8190   -3.7740 c3        1 M7S      0.023000
     19 C17         3.4570    0.8120   -2.2870 c1        1 M7S     -0.083000
     20 C19         4.4240    0.3400   -1.4040 c1        1 M7S     -0.145000
     21 C22         1.9630   -0.9500   -1.5950 c1        1 M7S     -0.101000
     22 C23         5.1970   -1.2410    0.4360 c3        1 M7S     -0.010000
     23 C24         5.0940   -0.5900    1.7870 c3        1 M7S     -0.142333
     24 C25         6.5070   -1.8860    0.0590 c3        1 M7S     -0.142333
     25 C26         4.8400   -3.0310    1.4900 c3        1 M7S     -0.142333
     26 C27         6.2660   -0.8360    2.7810 c3        1 M7S     -0.101667
     27 C28         7.5820   -2.0360    1.1960 c3        1 M7S     -0.101667
     28 C29         5.9220   -3.2310    2.5380 c3        1 M7S     -0.101667
     29 C30         7.5460   -1.1200    2.2230 c3        1 M7S     -0.148000
     30 C31         5.9120   -2.0060    3.5290 c3        1 M7S     -0.148000
     31 C32         7.3260   -3.3170    1.8200 c3        1 M7S     -0.148000
     32 C51        -4.5880    1.4090    5.0520 c1        1 M7S     -0.117000
     33 C52        -4.9190    2.0950    6.2150 c1        1 M7S     -0.147500
     34 C53        -4.8150    3.4830    6.2580 c1        1 M7S     -0.147500
     35 C54        -4.3790    4.1830    5.1370 c1        1 M7S     -0.148000
     36 C55        -4.0480    3.4960    3.9730 c2        1 M7S     -0.149000
     37 C87         2.2260    0.1670   -2.3830 c1        1 M7S     -0.115000
     38 C97         1.1290    0.7390   -3.2960 c2        1 M7S      0.335000
     39 C98         4.1620   -0.7780   -0.6160 c2        1 M7S     -0.047000
     40 C99         2.9310   -1.4230   -0.7110 c2        1 M7S     -0.138000
     41 N99        -0.1440    0.0720   -3.3940 n         1 M7S     -0.351000
     42 O99         1.3590    1.7170   -3.9850 o         1 M7S     -0.381000
     43 H2         -3.4310    1.9610    1.3320 ha        1 M7S      0.088000
     44 H3         -2.4290    1.1250    3.2950 hc        1 M7S      0.087500
     45 H3A        -3.6680    0.1270    3.5130 hc        1 M7S      0.087500
     46 H5         -3.3540   -0.8980    1.2570 hc        1 M7S      0.089000
     47 H5A        -2.0540    0.0300    1.0960 hc        1 M7S      0.089000
     48 H7         -1.4380    0.8440   -1.0760 ha        1 M7S      0.131000
     49 H10        -5.5850   -0.6550   -2.8400 ha        1 M7S      0.132000
     50 H11        -5.2420   -0.6060   -0.4900 ha        1 M7S      0.209000
     51 H12        -5.8580   -0.2510   -5.0160 h1        1 M7S      0.080000
     52 H12A       -5.4440    1.2530   -4.6390 h1        1 M7S      0.080000
     53 H13        -4.8400    0.0490   -7.1710 hc        1 M7S      0.090000
     54 H13A       -4.5400    1.5790   -6.7910 hc        1 M7S      0.090000
     55 H14        -6.5310    1.4580   -8.0760 hc        1 M7S      0.072667
     56 H14A       -6.8770    1.9850   -6.5990 hc        1 M7S      0.072667
     57 H14B       -7.1710    0.4570   -6.9960 hc        1 M7S      0.072667
     58 H15        -1.1320    1.7810   -3.7210 h1        1 M7S      0.102000
     59 H15A       -1.5750    0.5850   -4.6960 h1        1 M7S      0.102000
     60 H17         3.6420    1.6010   -2.8440 ha        1 M7S      0.150000
     61 H19         5.2960    0.7890   -1.3440 ha        1 M7S      0.130000
     62 H22         1.1160   -1.4330   -1.6970 ha        1 M7S      0.146000
     63 H24         5.0140    0.3810    1.6490 hc        1 M7S      0.085167
     64 H24A        4.2660   -0.9060    2.2130 hc        1 M7S      0.085167
     65 H25         6.9070   -1.3550   -0.6670 hc        1 M7S      0.085167
     66 H25A        6.3110   -2.7840   -0.2920 hc        1 M7S      0.085167
     67 H26         3.9630   -2.9810    1.9310 hc        1 M7S      0.085167
     68 H26A        4.8490   -3.7880    0.8620 hc        1 M7S      0.085167
     69 H27         6.3400   -0.0680    3.3940 hc        1 M7S      0.085667
     70 H28         8.4820   -2.0420    0.7950 hc        1 M7S      0.085667
     71 H29         5.7520   -4.0630    3.0360 hc        1 M7S      0.085667
     72 H30         7.9250   -0.2740    1.8880 hc        1 M7S      0.078000
     73 H30A        8.1270   -1.4510    2.9470 hc        1 M7S      0.078000
     74 H31         6.5680   -2.1530    4.2480 hc        1 M7S      0.078000
     75 H31A        5.0130   -1.8960    3.9140 hc        1 M7S      0.078000
     76 H32         8.0280   -3.5120    2.4820 hc        1 M7S      0.078000
     77 H32A        7.3070   -4.0240    1.1350 hc        1 M7S      0.078000
     78 H51        -4.6310    0.4290    5.0320 ha        1 M7S      0.197000
     79 H52        -5.2110    1.6000    7.0110 ha        1 M7S      0.114500
     80 H53        -5.0720    3.9690    7.0720 ha        1 M7S      0.114500
     81 H54        -4.2900    5.1600    5.1730 ha        1 M7S      0.108000
     82 H55        -3.6810    4.2430    3.4510 ha        1 M7S      0.116000
     83 H99         2.7610   -2.2340   -0.1860 ha        1 M7S      0.136000
     84 HN99       -0.1950   -0.8370   -3.2820 hn        1 M7S      0.232000
@<TRIPOS>BOND
     1    1    2 1   
     2    1    4 1   
     3    3    5 1   
     4    3    8 1   
     5    3   43 1   
     6    5    7 1   
     7    5   44 1   
     8    5   45 1   
     9    6   12 1   
    10    6   15 1   
    11    7   32 1   
    12    7   36 1   
    13    8    9 1   
    14    8   46 1   
    15    8   47 1   
    16    9   10 1   
    17    9   14 1   
    18   10   48 1   
    19   11   12 1   
    20   11   18 1   
    21   12   13 1   
    22   13   14 1   
    23   13   49 1   
    24   14   50 1   
    25   15   16 1   
    26   15   51 1   
    27   15   52 1   
    28   16   17 1   
    29   16   53 1   
    30   16   54 1   
    31   17   55 1   
    32   17   56 1   
    33   17   57 1   
    34   18   41 1   
    35   18   58 1   
    36   18   59 1   
    37   19   37 1   
    38   19   60 1   
    39   20   39 1   
    40   20   61 1   
    41   21   40 1   
    42   21   62 1   
    43   22   23 1   
    44   22   24 1   
    45   22   25 1   
    46   22   39 1   
    47   23   26 1   
    48   23   63 1   
    49   23   64 1   
    50   24   27 1   
    51   24   65 1   
    52   24   66 1   
    53   25   28 1   
    54   25   67 1   
    55   25   68 1   
    56   26   29 1   
    57   26   30 1   
    58   26   69 1   
    59   27   29 1   
    60   27   31 1   
    61   27   70 1   
    62   28   30 1   
    63   28   31 1   
    64   28   71 1   
    65   29   72 1   
    66   29   73 1   
    67   30   74 1   
    68   30   75 1   
    69   31   76 1   
    70   31   77 1   
    71   32   78 1   
    72   33   34 1   
    73   33   79 1   
    74   34   80 1   
    75   35   36 1   
    76   35   81 1   
    77   36   82 1   
    78   37   38 1   
    79   38   41 1   
    80   38   42 1   
    81   39   40 1   
    82   40   83 1   
    83   41   84 1   
@<TRIPOS>SUBSTRUCTURE
     1 M7S         1 TEMP              0 ****  ****    0 ROOT
