@<TRIPOS>MOLECULE
M7S
   84    89     1     0     0
SMALL
bcc


@<TRIPOS>ATOM
      1 C1         -6.2520    0.2680   -2.6810 c         1 M7S      0.910600
      2 O1         -6.8250   -0.8590   -2.6360 o         1 M7S     -0.841300
      3 C2         -5.6200    0.8520   -1.3870 c3        1 M7S     -0.178700
      4 O2         -6.1490    0.9630   -3.7300 o         1 M7S     -0.841300
      5 C3         -6.3370    2.1560   -1.0610 c3        1 M7S     -0.036100
      6 O3         -1.3130   -3.7160   -0.0040 os        1 M7S     -0.356900
      7 C4         -5.5720    3.0270   -0.1290 ca        1 M7S     -0.047300
      8 C5         -5.6870   -0.1100   -0.2110 c3        1 M7S     -0.029100
      9 C6         -4.5380   -1.0560   -0.1650 ca        1 M7S     -0.071300
     10 C7         -3.6100   -1.0170    0.8790 ca        1 M7S     -0.101000
     11 C8         -2.5520   -1.9280    0.9400 ca        1 M7S     -0.159300
     12 C9         -2.4190   -2.8780   -0.0900 ca        1 M7S      0.095100
     13 C10        -3.3400   -2.9250   -1.1440 ca        1 M7S     -0.203000
     14 C11        -4.3940   -2.0190   -1.1750 ca        1 M7S     -0.079000
     15 C12        -1.4120   -4.9310   -0.7540 c3        1 M7S      0.132400
     16 C13        -0.2990   -5.8330   -0.2470 c3        1 M7S     -0.088400
     17 C14        -0.2860   -7.1340   -1.0060 c3        1 M7S     -0.092100
     18 C15        -1.5920   -1.9020    2.0920 c3        1 M7S      0.151300
     19 C17         2.8980    0.0230    2.4940 ca        1 M7S     -0.091500
     20 C19         4.1180    0.3860    1.9330 ca        1 M7S     -0.141500
     21 C22         1.9180   -0.0690    0.2890 ca        1 M7S     -0.091500
     22 C23         5.5970    0.9250   -0.0200 c3        1 M7S     -0.002700
     23 C24         5.5800    1.0360   -1.5500 c3        1 M7S     -0.063733
     24 C25         6.6510   -0.1230    0.3720 c3        1 M7S     -0.063733
     25 C26         6.0130    2.2900    0.5540 c3        1 M7S     -0.063733
     26 C27         6.9540    1.4390   -2.0730 c3        1 M7S     -0.062367
     27 C28         8.0240    0.2850   -0.1480 c3        1 M7S     -0.062367
     28 C29         7.3890    2.6870    0.0330 c3        1 M7S     -0.062367
     29 C30         7.9830    0.3890   -1.6690 c3        1 M7S     -0.069400
     30 C31         7.3490    2.7900   -1.4880 c3        1 M7S     -0.069400
     31 C32         8.4150    1.6360    0.4440 c3        1 M7S     -0.069400
     32 C51        -4.4300    3.7060   -0.5790 ca        1 M7S     -0.135500
     33 C52        -3.7150    4.5330    0.2830 ca        1 M7S     -0.136000
     34 C53        -4.1290    4.6950    1.6060 ca        1 M7S     -0.153000
     35 C54        -5.2610    4.0230    2.0620 ca        1 M7S     -0.136000
     36 C55        -5.9790    3.1940    1.2010 ca        1 M7S     -0.135500
     37 C87         1.7910   -0.2150    1.6710 ca        1 M7S     -0.134600
     38 C97         0.4910   -0.5870    2.3090 c         1 M7S      0.663700
     39 C98         4.2600    0.5290    0.5430 ca        1 M7S     -0.055300
     40 C99         3.1430    0.3020   -0.2680 ca        1 M7S     -0.141500
     41 N99        -0.2390   -1.5850    1.7060 n         1 M7S     -0.545900
     42 O99         0.1260   -0.0520    3.3790 o         1 M7S     -0.623100
     43 H2         -4.5470    1.0820   -1.6270 hc        1 M7S      0.045700
     44 H3         -6.4990    2.7050   -2.0310 hc        1 M7S      0.059700
     45 H3A        -7.3470    1.9230   -0.6310 hc        1 M7S      0.059700
     46 H5         -5.7320    0.4720    0.7500 hc        1 M7S      0.049200
     47 H5A        -6.6380   -0.7080   -0.3040 hc        1 M7S      0.049200
     48 H7         -3.7100   -0.2580    1.6700 ha        1 M7S      0.134000
     49 H10        -3.2360   -3.6630   -1.9510 ha        1 M7S      0.129000
     50 H11        -5.1390   -2.0290   -2.0000 ha        1 M7S      0.208000
     51 H12        -2.4170   -5.4040   -0.5990 h1        1 M7S      0.039200
     52 H12A       -1.2740   -4.6990   -1.8440 h1        1 M7S      0.039200
     53 H13         0.6840   -5.3060   -0.3620 hc        1 M7S      0.051200
     54 H13A       -0.4470   -6.0220    0.8480 hc        1 M7S      0.051200
     55 H14         0.5340   -7.7920   -0.6270 hc        1 M7S      0.032700
     56 H14A       -1.2560   -7.6730   -0.8830 hc        1 M7S      0.032700
     57 H14B       -0.1200   -6.9550   -2.0960 hc        1 M7S      0.032700
     58 H15        -1.9370   -1.1620    2.8710 h1        1 M7S      0.059700
     59 H15A       -1.5780   -2.9310    2.5620 h1        1 M7S      0.059700
     60 H17         2.7860   -0.0680    3.5860 ha        1 M7S      0.148500
     61 H19         4.9790    0.5670    2.5940 ha        1 M7S      0.132500
     62 H22         1.0520   -0.2250   -0.3740 ha        1 M7S      0.148500
     63 H24         5.2880    0.0510   -1.9960 hc        1 M7S      0.046200
     64 H24A        4.8260    1.8040   -1.8630 hc        1 M7S      0.046200
     65 H25         6.6880   -0.2250    1.4860 hc        1 M7S      0.046200
     66 H25A        6.3630   -1.1170   -0.0570 hc        1 M7S      0.046200
     67 H26         5.2580    3.0620    0.2590 hc        1 M7S      0.046200
     68 H26A        6.0370    2.2390    1.6720 hc        1 M7S      0.046200
     69 H27         6.9150    1.5130   -3.1930 hc        1 M7S      0.046367
     70 H28         8.7800   -0.4880    0.1540 hc        1 M7S      0.046367
     71 H29         7.6770    3.6810    0.4690 hc        1 M7S      0.046367
     72 H30         7.7090   -0.6020   -2.1100 hc        1 M7S      0.038533
     73 H30A        8.9930    0.6750   -2.0590 hc        1 M7S      0.038533
     74 H31         8.3530    3.0960   -1.8770 hc        1 M7S      0.038533
     75 H31A        6.6060    3.5700   -1.7960 hc        1 M7S      0.038533
     76 H32         8.4580    1.5630    1.5600 hc        1 M7S      0.038533
     77 H32A        9.4310    1.9320    0.0770 hc        1 M7S      0.038533
     78 H51        -4.1040    3.5700   -1.6220 ha        1 M7S      0.135000
     79 H52        -2.8190    5.0580   -0.0790 ha        1 M7S      0.115500
     80 H53        -3.5620    5.3450    2.2850 ha        1 M7S      0.115000
     81 H54        -5.5880    4.1430    3.1040 ha        1 M7S      0.115500
     82 H55        -6.8680    2.6600    1.5660 ha        1 M7S      0.135000
     83 H99         3.2050    0.4130   -1.3600 ha        1 M7S      0.132500
     84 HN99        0.0610   -1.9440    0.8280 hn        1 M7S      0.320500
@<TRIPOS>BOND
     1    1    2 1   
     2    1    3 1   
     3    1    4 1   
     4    3    5 1   
     5    3    8 1   
     6    3   43 1   
     7    5    7 1   
     8    5   44 1   
     9    5   45 1   
    10    6   12 1   
    11    6   15 1   
    12    7   32 ar  
    13    7   36 ar  
    14    8    9 1   
    15    8   46 1   
    16    8   47 1   
    17    9   10 ar  
    18    9   14 ar  
    19   10   11 ar  
    20   10   48 1   
    21   11   12 ar  
    22   11   18 1   
    23   12   13 ar  
    24   13   14 ar  
    25   13   49 1   
    26   14   50 1   
    27   15   16 1   
    28   15   51 1   
    29   15   52 1   
    30   16   17 1   
    31   16   53 1   
    32   16   54 1   
    33   17   55 1   
    34   17   56 1   
    35   17   57 1   
    36   18   41 1   
    37   18   58 1   
    38   18   59 1   
    39   19   20 ar  
    40   19   37 ar  
    41   19   60 1   
    42   20   39 ar  
    43   20   61 1   
    44   21   37 ar  
    45   21   40 ar  
    46   21   62 1   
    47   22   23 1   
    48   22   24 1   
    49   22   25 1   
    50   22   39 1   
    51   23   26 1   
    52   23   63 1   
    53   23   64 1   
    54   24   27 1   
    55   24   65 1   
    56   24   66 1   
    57   25   28 1   
    58   25   67 1   
    59   25   68 1   
    60   26   29 1   
    61   26   30 1   
    62   26   69 1   
    63   27   29 1   
    64   27   31 1   
    65   27   70 1   
    66   28   30 1   
    67   28   31 1   
    68   28   71 1   
    69   29   72 1   
    70   29   73 1   
    71   30   74 1   
    72   30   75 1   
    73   31   76 1   
    74   31   77 1   
    75   32   33 ar  
    76   32   78 1   
    77   33   34 ar  
    78   33   79 1   
    79   34   35 ar  
    80   34   80 1   
    81   35   36 ar  
    82   35   81 1   
    83   36   82 1   
    84   37   38 1   
    85   38   41 1   
    86   38   42 2   
    87   39   40 ar  
    88   40   83 1   
    89   41   84 1   
@<TRIPOS>SUBSTRUCTURE
     1 M7S         1 TEMP              0 ****  ****    0 ROOT
