@<TRIPOS>MOLECULE
M7U
  120   118     1     0     0
SMALL
bcc


@<TRIPOS>ATOM
      1 C         -13.9520    3.0390  -17.5750 c3        1 M7U     -0.209000
      2 O          -2.8790    0.1890   -2.4870 o         1 M7U     -0.396000
      3 P           0.5120    4.6240   -1.5100 p3        1 M7U      2.529000
      4 C1        -13.1260    3.5740  -16.4600 c3        1 M7U     -0.159000
      5 O1         -3.1040    1.8650   -0.9180 os        1 M7U     -0.252000
      6 C2        -12.7670    2.4280  -15.4920 c3        1 M7U     -0.158000
      7 O2         -0.5680    0.5710    1.3720 os        1 M7U     -0.288000
      8 C3        -12.0650    2.9920  -14.2830 c3        1 M7U     -0.158000
      9 O3         -1.4230   -0.9510    2.8620 o         1 M7U     -0.416000
     10 C4        -11.5360    1.8460  -13.4170 c3        1 M7U     -0.157000
     11 O4         -0.3840    3.2720   -1.4720 o         1 M7U     -0.717000
     12 C5        -10.9950    2.4200  -12.0840 c3        1 M7U     -0.158000
     13 O5          0.7040    5.0640   -2.9470 o         1 M7U     -1.248333
     14 C6        -10.1300    1.3660  -11.3790 c3        1 M7U     -0.157000
     15 O6          1.8670    4.3510   -0.8810 o         1 M7U     -1.248333
     16 C7         -9.8370    1.8310   -9.9010 c3        1 M7U     -0.158000
     17 O7         -0.1930    5.7180   -0.7370 o         1 M7U     -1.248333
     18 C8         -8.6290    1.0070   -9.3210 c3        1 M7U     -0.157000
     19 C9         -8.4590    1.3260   -7.8210 c3        1 M7U     -0.158000
     20 C10        -6.9670    1.0450   -7.3860 c3        1 M7U     -0.156000
     21 C11        -6.8750    1.0270   -5.8200 c3        1 M7U     -0.159000
     22 C12        -5.4940    1.5460   -5.3760 c3        1 M7U     -0.155000
     23 C13        -5.2020    1.0690   -3.9140 c3        1 M7U     -0.158000
     24 C14        -4.2140    2.0340   -3.2520 c3        1 M7U     -0.161000
     25 C15        -3.3630    1.2710   -2.2060 c2        1 M7U      0.302000
     26 C16        -1.7910    1.6100   -0.4150 c3        1 M7U     -0.025000
     27 C17        -1.8900    0.9110    0.9080 c3        1 M7U     -0.026000
     28 C18        -0.5530   -0.1240    2.6120 c2        1 M7U      0.342000
     29 C19         0.6230    0.1070    3.6260 c3        1 M7U     -0.225000
     30 C20         0.8880   -1.1920    4.4140 c3        1 M7U     -0.117000
     31 C21         1.9080   -0.9140    5.5460 c3        1 M7U     -0.200000
     32 C22         2.5210   -2.2730    6.0400 c3        1 M7U     -0.141000
     33 C23         3.4780   -2.0140    7.1800 c3        1 M7U     -0.164000
     34 C24         4.5440   -3.1450    7.2280 c3        1 M7U     -0.153000
     35 C25         5.4760   -2.9300    8.4510 c3        1 M7U     -0.161000
     36 C26         6.9040   -3.4990    8.1270 c3        1 M7U     -0.153000
     37 C27         7.7470   -3.5440    9.4130 c3        1 M7U     -0.107000
     38 C28         7.7480   -4.9180    9.9490 c3        1 M7U     -0.205000
     39 C29         9.1860   -3.1180    9.0980 c3        1 M7U     -0.154000
     40 C30         9.9930   -2.9740   10.4290 c3        1 M7U     -0.159000
     41 C31        11.2470   -2.1000   10.1790 c3        1 M7U     -0.157000
     42 C32        12.4020   -2.5670   11.1180 c3        1 M7U     -0.158000
     43 C33        13.5520   -1.5880   11.0300 c3        1 M7U     -0.157000
     44 C34        14.8600   -2.2710   11.5480 c3        1 M7U     -0.158000
     45 C35        16.0160   -1.2320   11.5630 c3        1 M7U     -0.159000
     46 C36        17.3740   -1.9680   11.7400 c3        1 M7U     -0.209000
     47 C37        -1.0520    2.9250   -0.2390 c3        1 M7U      0.096000
     48 H         -13.4890    2.2940  -17.9900 hc        1 M7U      0.069333
     49 HA        -14.8200    2.7320  -17.2230 hc        1 M7U      0.069333
     50 HB        -14.0980    3.7370  -18.2340 hc        1 M7U      0.069333
     51 H1        -13.6350    4.2660  -15.9760 hc        1 M7U      0.077500
     52 H1A       -12.3170    3.9610  -16.8160 hc        1 M7U      0.077500
     53 H2        -13.5990    1.9630  -15.2060 hc        1 M7U      0.078000
     54 H2A       -12.1760    1.7920  -15.9450 hc        1 M7U      0.078000
     55 H3        -12.6940    3.5300  -13.7630 hc        1 M7U      0.079000
     56 H3A       -11.3210    3.5500  -14.5710 hc        1 M7U      0.079000
     57 H4        -12.2600    1.2150  -13.2310 hc        1 M7U      0.077500
     58 H4A       -10.8140    1.3840  -13.8910 hc        1 M7U      0.077500
     59 H5        -11.7470    2.6660  -11.5060 hc        1 M7U      0.079000
     60 H5A       -10.4480    3.2220  -12.2700 hc        1 M7U      0.079000
     61 H6         -9.2890    1.2640  -11.8590 hc        1 M7U      0.077000
     62 H6A       -10.5970    0.5220  -11.3650 hc        1 M7U      0.077000
     63 H7        -10.6370    1.6780   -9.3440 hc        1 M7U      0.079500
     64 H7A        -9.6110    2.8000   -9.8980 hc        1 M7U      0.079500
     65 H8         -8.8030    0.0550   -9.4320 hc        1 M7U      0.076000
     66 H8A        -7.8150    1.2450   -9.7980 hc        1 M7U      0.076000
     67 H9         -8.6720    2.2630   -7.6620 hc        1 M7U      0.080500
     68 H9A        -9.0650    0.7600   -7.2960 hc        1 M7U      0.080500
     69 H10        -6.6790    0.1670   -7.7440 hc        1 M7U      0.074500
     70 H10A       -6.3850    1.7500   -7.7410 hc        1 M7U      0.074500
     71 H11        -7.5690    1.5970   -5.4490 hc        1 M7U      0.083500
     72 H11A       -6.9980    0.1110   -5.4970 hc        1 M7U      0.083500
     73 H12        -5.4880    2.5270   -5.4070 hc        1 M7U      0.072500
     74 H12A       -4.8050    1.1960   -5.9770 hc        1 M7U      0.072500
     75 H13        -4.8200    0.1770   -3.9350 hc        1 M7U      0.101000
     76 H13A       -6.0350    1.0540   -3.4030 hc        1 M7U      0.101000
     77 H14        -4.7090    2.7530   -2.8080 hc        1 M7U      0.101000
     78 H14A       -3.6260    2.4170   -3.9340 hc        1 M7U      0.101000
     79 H16        -1.3030    1.0430   -1.0490 h1        1 M7U      0.135000
     80 H17        -2.3210    1.4990    1.5540 h1        1 M7U      0.084000
     81 H17A       -2.4220    0.0920    0.8050 h1        1 M7U      0.084000
     82 H19         1.4310    0.3610    3.1350 hc        1 M7U      0.176500
     83 H19A        0.3790    0.8300    4.2550 hc        1 M7U      0.176500
     84 H20         1.2460   -1.8620    3.8180 hc        1 M7U      0.060000
     85 H20A        0.0530   -1.5140    4.8000 hc        1 M7U      0.060000
     86 H21         2.6270   -0.3340    5.2060 hc        1 M7U      0.133500
     87 H21A        1.4490   -0.4640    6.3010 hc        1 M7U      0.133500
     88 H22         3.0010   -2.6990    5.3040 hc        1 M7U      0.055000
     89 H22A        1.8030   -2.8620    6.3450 hc        1 M7U      0.055000
     90 H23         2.9840   -1.9950    8.0230 hc        1 M7U      0.094000
     91 H23A        3.9180   -1.1610    7.0440 hc        1 M7U      0.094000
     92 H24         4.0930   -4.0200    7.3080 hc        1 M7U      0.066500
     93 H24A        5.0760   -3.1270    6.4060 hc        1 M7U      0.066500
     94 H25         5.5420   -1.9800    8.6450 hc        1 M7U      0.084500
     95 H25A        5.1090   -3.3940    9.2260 hc        1 M7U      0.084500
     96 H26         7.3430   -2.9230    7.4700 hc        1 M7U      0.072500
     97 H26A        6.8180   -4.4080    7.7600 hc        1 M7U      0.072500
     98 H27         7.3630   -2.9340   10.0770 hc        1 M7U      0.097000
     99 H28         6.8600   -5.3210    9.8210 hc        1 M7U      0.068333
    100 H28A        7.9640   -4.8950   10.9130 hc        1 M7U      0.068333
    101 H28B        8.4190   -5.4510    9.4770 hc        1 M7U      0.068333
    102 H29         9.6070   -3.7910    8.5370 hc        1 M7U      0.075500
    103 H29A        9.1770   -2.2570    8.6260 hc        1 M7U      0.075500
    104 H30        10.2660   -3.8490   10.7350 hc        1 M7U      0.080000
    105 H30A        9.4290   -2.5500   11.1120 hc        1 M7U      0.080000
    106 H31        11.0310   -1.1500   10.3660 hc        1 M7U      0.076000
    107 H31A       11.5280   -2.1930    9.2450 hc        1 M7U      0.076000
    108 H32        12.7050   -3.4450   10.8460 hc        1 M7U      0.079000
    109 H32A       12.0770   -2.6050   12.0390 hc        1 M7U      0.079000
    110 H33        13.3550   -0.8070   11.5770 hc        1 M7U      0.076500
    111 H33A       13.6740   -1.3120   10.1010 hc        1 M7U      0.076500
    112 H34        14.7140   -2.6100   12.4570 hc        1 M7U      0.078500
    113 H34A       15.0990   -3.0210   10.9510 hc        1 M7U      0.078500
    114 H35        15.8860   -0.6160   12.2980 hc        1 M7U      0.076500
    115 H35A       16.0210   -0.7330   10.7120 hc        1 M7U      0.076500
    116 H36        18.0870   -1.3040   11.9410 hc        1 M7U      0.068667
    117 H36A       17.6010   -2.4540   10.9020 hc        1 M7U      0.068667
    118 H36B       17.3060   -2.6000   12.4730 hc        1 M7U      0.068667
    119 H37        -1.6900    3.6290   -0.0050 h1        1 M7U      0.046500
    120 H37A       -0.3870    2.8330    0.4790 h1        1 M7U      0.046500
@<TRIPOS>BOND
     1    1    4 1   
     2    1   48 1   
     3    1   49 1   
     4    1   50 1   
     5    2   25 1   
     6    3   13 1   
     7    3   15 1   
     8    3   17 1   
     9    4    6 1   
    10    4   51 1   
    11    4   52 1   
    12    5   25 1   
    13    5   26 1   
    14    6    8 1   
    15    6   53 1   
    16    6   54 1   
    17    7   27 1   
    18    7   28 1   
    19    8   10 1   
    20    8   55 1   
    21    8   56 1   
    22    9   28 1   
    23   10   12 1   
    24   10   57 1   
    25   10   58 1   
    26   11   47 1   
    27   12   14 1   
    28   12   59 1   
    29   12   60 1   
    30   14   16 1   
    31   14   61 1   
    32   14   62 1   
    33   16   18 1   
    34   16   63 1   
    35   16   64 1   
    36   18   19 1   
    37   18   65 1   
    38   18   66 1   
    39   19   20 1   
    40   19   67 1   
    41   19   68 1   
    42   20   21 1   
    43   20   69 1   
    44   20   70 1   
    45   21   22 1   
    46   21   71 1   
    47   21   72 1   
    48   22   23 1   
    49   22   73 1   
    50   22   74 1   
    51   23   24 1   
    52   23   75 1   
    53   23   76 1   
    54   24   25 1   
    55   24   77 1   
    56   24   78 1   
    57   26   27 1   
    58   26   47 1   
    59   26   79 1   
    60   27   80 1   
    61   27   81 1   
    62   28   29 1   
    63   29   30 1   
    64   29   82 1   
    65   29   83 1   
    66   30   31 1   
    67   30   84 1   
    68   30   85 1   
    69   31   32 1   
    70   31   86 1   
    71   31   87 1   
    72   32   33 1   
    73   32   88 1   
    74   32   89 1   
    75   33   34 1   
    76   33   90 1   
    77   33   91 1   
    78   34   35 1   
    79   34   92 1   
    80   34   93 1   
    81   35   36 1   
    82   35   94 1   
    83   35   95 1   
    84   36   37 1   
    85   36   96 1   
    86   36   97 1   
    87   37   38 1   
    88   37   39 1   
    89   37   98 1   
    90   38   99 1   
    91   38  100 1   
    92   38  101 1   
    93   39   40 1   
    94   39  102 1   
    95   39  103 1   
    96   40   41 1   
    97   40  104 1   
    98   40  105 1   
    99   41   42 1   
   100   41  106 1   
   101   41  107 1   
   102   42   43 1   
   103   42  108 1   
   104   42  109 1   
   105   43   44 1   
   106   43  110 1   
   107   43  111 1   
   108   44   45 1   
   109   44  112 1   
   110   44  113 1   
   111   45   46 1   
   112   45  114 1   
   113   45  115 1   
   114   46  116 1   
   115   46  117 1   
   116   46  118 1   
   117   47  119 1   
   118   47  120 1   
@<TRIPOS>SUBSTRUCTURE
     1 M7U         1 TEMP              0 ****  ****    0 ROOT
