@<TRIPOS>MOLECULE
M7U
  120   119     1     0     0
SMALL
bcc


@<TRIPOS>ATOM
      1 C          18.4240    5.5900   -0.1140 c3        1 M7U     -0.092100
      2 O           1.7840   -3.2830    1.4910 o         1 M7U     -0.595000
      3 P          -4.2920   -2.2360   -0.1150 p5        1 M7U      1.330900
      4 C1         17.5190    4.5660    0.5220 c3        1 M7U     -0.080400
      5 O1          0.1270   -2.0610    0.5580 os        1 M7U     -0.408900
      6 C2         16.1210    4.6250   -0.0550 c3        1 M7U     -0.079400
      7 C3         15.2160    3.5950    0.5860 c3        1 M7U     -0.079400
      8 O3          1.0930   -2.1470   -2.9820 o         1 M7U     -0.619000
      9 C4         13.8180    3.6550    0.0080 c3        1 M7U     -0.079400
     10 C5         12.9130    2.6250    0.6500 c3        1 M7U     -0.078400
     11 O5         -3.7920   -2.4460   -1.5280 o         1 M7U     -0.920167
     12 C6         11.5150    2.6850    0.0720 c3        1 M7U     -0.079400
     13 O6         -4.6100   -3.4780    0.6650 o         1 M7U     -0.920167
     14 C7         10.6100    1.6550    0.7140 c3        1 M7U     -0.078400
     15 O7         -5.2010   -1.0520    0.0650 o         1 M7U     -0.920167
     16 C8          9.2120    1.7150    0.1350 c3        1 M7U     -0.079400
     17 C9          8.3060    0.6850    0.7760 c3        1 M7U     -0.078400
     18 C10         6.9090    0.7450    0.1980 c3        1 M7U     -0.079400
     19 C11         6.0030   -0.2850    0.8380 c3        1 M7U     -0.077400
     20 C12         4.6060   -0.2260    0.2580 c3        1 M7U     -0.080400
     21 C13         3.7030   -1.2600    0.8960 c3        1 M7U     -0.071400
     22 C14         2.3100   -1.1920    0.3150 c3        1 M7U     -0.147400
     23 C15         1.4290   -2.2860    0.8490 c         1 M7U      0.643100
     24 C16        -0.8150   -3.1530    0.6610 c3        1 M7U      0.080100
     25 C17        -1.0890   -3.6840   -0.7480 c3        1 M7U      0.064400
     26 C18         0.0300   -2.2570   -2.3430 c         1 M7U      0.659100
     27 C19        -1.1010   -1.2920   -2.2940 c3        1 M7U     -0.221400
     28 C20        -0.8540   -0.0850   -3.1700 c3        1 M7U     -0.050400
     29 C21        -1.8110    1.0450   -2.8580 c3        1 M7U     -0.066400
     30 C22        -3.2430    0.7160   -3.2220 c3        1 M7U     -0.101400
     31 C23        -4.1490    1.8990   -2.9480 c3        1 M7U     -0.062400
     32 C24        -5.6170    1.5550   -3.1160 c3        1 M7U     -0.060400
     33 C25        -6.3210    1.4140   -1.7830 c3        1 M7U     -0.119400
     34 C26        -7.8010    1.1670   -1.9780 c3        1 M7U     -0.055400
     35 C27        -8.5520    1.1270   -0.6510 c3        1 M7U     -0.054700
     36 C28        -8.3150   -0.1900    0.0560 c3        1 M7U     -0.127100
     37 C29       -10.0370    1.3730   -0.8950 c3        1 M7U     -0.075400
     38 C30       -10.8010    1.5970    0.3930 c3        1 M7U     -0.079400
     39 C31       -12.2570    1.9140    0.1220 c3        1 M7U     -0.077400
     40 C32       -13.0240    2.1240    1.4100 c3        1 M7U     -0.079400
     41 C33       -14.4790    2.4420    1.1420 c3        1 M7U     -0.078400
     42 C34       -15.2450    2.6510    2.4300 c3        1 M7U     -0.079400
     43 C35       -16.7010    2.9690    2.1630 c3        1 M7U     -0.080400
     44 C36       -17.4670    3.1780    3.4440 c3        1 M7U     -0.091100
     45 C37        -2.1010   -2.6060    1.3350 c3        1 M7U      0.208400
     46 H          18.5010    5.4180   -1.2150 hc        1 M7U      0.030367
     47 HA         18.0290    6.6220    0.0510 hc        1 M7U      0.030367
     48 HB         19.4490    5.5300    0.3250 hc        1 M7U      0.030367
     49 H1         17.9440    3.5400    0.3660 hc        1 M7U      0.037700
     50 H1A        17.4730    4.7400    1.6290 hc        1 M7U      0.037700
     51 H2         15.6930    5.6510    0.1000 hc        1 M7U      0.039200
     52 H2A        16.1640    4.4500   -1.1630 hc        1 M7U      0.039200
     53 H3         15.6430    2.5700    0.4310 hc        1 M7U      0.038700
     54 H3A        15.1720    3.7710    1.6940 hc        1 M7U      0.038700
     55 H4         13.3900    4.6810    0.1640 hc        1 M7U      0.039200
     56 H4A        13.8610    3.4800   -1.0990 hc        1 M7U      0.039200
     57 H5         13.3400    1.6000    0.4950 hc        1 M7U      0.038200
     58 H5A        12.8690    2.8000    1.7570 hc        1 M7U      0.038200
     59 H6         11.0870    3.7100    0.2270 hc        1 M7U      0.039200
     60 H6A        11.5580    2.5100   -1.0350 hc        1 M7U      0.039200
     61 H7         11.0370    0.6300    0.5580 hc        1 M7U      0.037700
     62 H7A        10.5660    1.8310    1.8210 hc        1 M7U      0.037700
     63 H8          8.7840    2.7400    0.2900 hc        1 M7U      0.039200
     64 H8A         9.2550    1.5390   -0.9720 hc        1 M7U      0.039200
     65 H9          8.7340   -0.3400    0.6210 hc        1 M7U      0.036700
     66 H9A         8.2620    0.8600    1.8840 hc        1 M7U      0.036700
     67 H10         6.4810    1.7700    0.3530 hc        1 M7U      0.039200
     68 H10A        6.9520    0.5690   -0.9100 hc        1 M7U      0.039200
     69 H11         6.4300   -1.3110    0.6830 hc        1 M7U      0.036700
     70 H11A        5.9580   -0.1110    1.9450 hc        1 M7U      0.036700
     71 H12         4.1760    0.7980    0.4150 hc        1 M7U      0.041700
     72 H12A        4.6500   -0.4000   -0.8500 hc        1 M7U      0.041700
     73 H13         4.1220   -2.2890    0.7360 hc        1 M7U      0.047200
     74 H13A        3.6570   -1.0950    2.0050 hc        1 M7U      0.047200
     75 H14         1.8340   -0.2000    0.5350 hc        1 M7U      0.086200
     76 H14A        2.3340   -1.3150   -0.8050 hc        1 M7U      0.086200
     77 H16        -0.3780   -3.9590    1.3090 h1        1 M7U      0.041700
     78 H17        -2.0760   -3.2600   -1.1380 h1        1 M7U      0.114700
     79 H17A       -1.1380   -4.8050   -0.7270 h1        1 M7U      0.114700
     80 H19        -2.0720   -1.8070   -2.5870 hc        1 M7U      0.159200
     81 H19A       -1.2620   -0.9940   -1.2140 hc        1 M7U      0.159200
     82 H20         0.2000    0.2760   -3.0260 hc        1 M7U      0.019200
     83 H20A       -0.9520   -0.3800   -4.2480 hc        1 M7U      0.019200
     84 H21        -1.7590    1.2810   -1.7610 hc        1 M7U      0.020700
     85 H21A       -1.4820    1.9630   -3.4160 hc        1 M7U      0.020700
     86 H22        -3.3040    0.4380   -4.3060 hc        1 M7U      0.076700
     87 H22A       -3.5880   -0.1790   -2.6260 hc        1 M7U      0.076700
     88 H23        -3.9620    2.2650   -1.9040 hc        1 M7U      0.016700
     89 H23A       -3.8800    2.7400   -3.6430 hc        1 M7U      0.016700
     90 H24        -6.1180    2.3590   -3.7220 hc        1 M7U      0.015200
     91 H24A       -5.7230    0.5970   -3.6900 hc        1 M7U      0.015200
     92 H25        -5.8580    0.5590   -1.1920 hc        1 M7U      0.093200
     93 H25A       -6.1760    2.3500   -1.1820 hc        1 M7U      0.093200
     94 H26        -8.2340    1.9760   -2.6270 hc        1 M7U      0.014700
     95 H26A       -7.9490    0.1940   -2.5160 hc        1 M7U      0.014700
     96 H27        -8.1620    1.9580    0.0020 hc        1 M7U      0.035700
     97 H28        -8.8020   -1.0260   -0.4990 hc        1 M7U      0.061367
     98 H28A       -7.2070   -0.4130    0.1260 hc        1 M7U      0.061367
     99 H28B       -8.7360   -0.1580    1.0890 hc        1 M7U      0.061367
    100 H29       -10.1650    2.2730   -1.5540 hc        1 M7U      0.022700
    101 H29A      -10.4720    0.4960   -1.4420 hc        1 M7U      0.022700
    102 H30       -10.7290    0.6790    1.0350 hc        1 M7U      0.043200
    103 H30A      -10.3330    2.4390    0.9670 hc        1 M7U      0.043200
    104 H31       -12.3310    2.8350   -0.5130 hc        1 M7U      0.031200
    105 H31A      -12.7210    1.0740   -0.4590 hc        1 M7U      0.031200
    106 H32       -12.9510    1.2010    2.0440 hc        1 M7U      0.039700
    107 H32A      -12.5570    2.9620    1.9920 hc        1 M7U      0.039700
    108 H33       -14.5520    3.3640    0.5070 hc        1 M7U      0.035200
    109 H33A      -14.9450    1.6040    0.5590 hc        1 M7U      0.035200
    110 H34       -15.1720    1.7290    3.0640 hc        1 M7U      0.039200
    111 H34A      -14.7790    3.4890    3.0130 hc        1 M7U      0.039200
    112 H35       -16.7710    3.8910    1.5270 hc        1 M7U      0.035700
    113 H35A      -17.1650    2.1310    1.5790 hc        1 M7U      0.035700
    114 H36       -17.4280    2.2610    4.0800 hc        1 M7U      0.028033
    115 H36A      -17.0340    4.0260    4.0280 hc        1 M7U      0.028033
    116 H36B      -18.5370    3.4110    3.2250 hc        1 M7U      0.028033
    117 H37        -1.7620   -2.1090    2.2920 h1        1 M7U      0.020700
    118 H37A       -2.7390   -3.5080    1.5790 h1        1 M7U      0.020700
    119 O2          0.0120   -3.4240   -1.6260 os        1 M7U     -0.440900
    120 O4         -2.7880   -1.7060    0.5730 os        1 M7U     -0.565200
@<TRIPOS>BOND
     1    1    4 1   
     2    1   46 1   
     3    1   47 1   
     4    1   48 1   
     5    2   23 2   
     6    3   11 1   
     7    3   13 1   
     8    3   15 1   
     9    3  120 1   
    10    4    6 1   
    11    4   49 1   
    12    4   50 1   
    13    5   23 1   
    14    5   24 1   
    15    6    7 1   
    16    6   51 1   
    17    6   52 1   
    18    7    9 1   
    19    7   53 1   
    20    7   54 1   
    21    8   26 2   
    22    9   10 1   
    23    9   55 1   
    24    9   56 1   
    25   10   12 1   
    26   10   57 1   
    27   10   58 1   
    28   12   14 1   
    29   12   59 1   
    30   12   60 1   
    31   14   16 1   
    32   14   61 1   
    33   14   62 1   
    34   16   17 1   
    35   16   63 1   
    36   16   64 1   
    37   17   18 1   
    38   17   65 1   
    39   17   66 1   
    40   18   19 1   
    41   18   67 1   
    42   18   68 1   
    43   19   20 1   
    44   19   69 1   
    45   19   70 1   
    46   20   21 1   
    47   20   71 1   
    48   20   72 1   
    49   21   22 1   
    50   21   73 1   
    51   21   74 1   
    52   22   23 1   
    53   22   75 1   
    54   22   76 1   
    55   24   25 1   
    56   24   45 1   
    57   24   77 1   
    58   25   78 1   
    59   25   79 1   
    60   25  119 1   
    61   26   27 1   
    62   26  119 1   
    63   27   28 1   
    64   27   80 1   
    65   27   81 1   
    66   28   29 1   
    67   28   82 1   
    68   28   83 1   
    69   29   30 1   
    70   29   84 1   
    71   29   85 1   
    72   30   31 1   
    73   30   86 1   
    74   30   87 1   
    75   31   32 1   
    76   31   88 1   
    77   31   89 1   
    78   32   33 1   
    79   32   90 1   
    80   32   91 1   
    81   33   34 1   
    82   33   92 1   
    83   33   93 1   
    84   34   35 1   
    85   34   94 1   
    86   34   95 1   
    87   35   36 1   
    88   35   37 1   
    89   35   96 1   
    90   36   97 1   
    91   36   98 1   
    92   36   99 1   
    93   37   38 1   
    94   37  100 1   
    95   37  101 1   
    96   38   39 1   
    97   38  102 1   
    98   38  103 1   
    99   39   40 1   
   100   39  104 1   
   101   39  105 1   
   102   40   41 1   
   103   40  106 1   
   104   40  107 1   
   105   41   42 1   
   106   41  108 1   
   107   41  109 1   
   108   42   43 1   
   109   42  110 1   
   110   42  111 1   
   111   43   44 1   
   112   43  112 1   
   113   43  113 1   
   114   44  114 1   
   115   44  115 1   
   116   44  116 1   
   117   45  117 1   
   118   45  118 1   
   119   45  120 1   
@<TRIPOS>SUBSTRUCTURE
     1 M7U         1 TEMP              0 ****  ****    0 ROOT
