@<TRIPOS>MOLECULE
M80
   58    60     1     0     0
SMALL
bcc


@<TRIPOS>ATOM
      1 C1B        -0.0840   -0.6590    0.2040 c         1 M80      0.908600
      2 O1B         1.1770   -0.7530    0.2020 o         1 M80     -0.847800
      3 C2B        -0.8260   -0.7810    1.5490 c3        1 M80     -0.193400
      4 C3B        -0.0910   -0.0260    2.6340 c3        1 M80     -0.036100
      5 CB1        -0.7410   -0.1490    3.9670 ca        1 M80     -0.050300
      6 CB6        -0.0860   -0.7650    5.0370 ca        1 M80     -0.117000
      7 CB5        -0.6830   -0.8690    6.2920 ca        1 M80     -0.160000
      8 CB2        -2.0280    0.3650    4.1790 ca        1 M80     -0.117000
      9 CB3        -2.6410    0.2740    5.4210 ca        1 M80     -0.160000
     10 CB4        -1.9720   -0.3460    6.5040 ca        1 M80      0.015600
     11 NB4        -2.6420   -0.4150    7.7460 n         1 M80     -0.447100
     12 C4B        -2.1150   -0.7790    8.9600 c         1 M80      0.628100
     13 O4B        -0.9430   -1.1620    9.1460 o         1 M80     -0.605100
     14 CW         -3.0760   -0.6620   10.1830 c3        1 M80      0.026700
     15 CW1        -2.7770    0.7100   10.8190 c3        1 M80     -0.040100
     16 CW2        -3.7280    1.0510   11.9100 ca        1 M80     -0.073300
     17 CW3        -3.2990    1.0760   13.2420 ca        1 M80     -0.118500
     18 CW4        -4.1890    1.4170   14.2600 ca        1 M80     -0.129000
     19 CW5        -5.5120    1.7350   13.9570 ca        1 M80     -0.132000
     20 CW6        -5.9450    1.7120   12.6320 ca        1 M80     -0.129000
     21 CW7        -5.0580    1.3730   11.6120 ca        1 M80     -0.118500
     22 NW         -2.8800   -1.7530   11.1110 n         1 M80     -0.498900
     23 CY         -3.7880   -2.8000   11.1120 c         1 M80      0.732100
     24 OY1        -4.9490   -2.8170   10.6690 o         1 M80     -0.588000
     25 OY2        -3.3110   -3.9170   11.7700 os        1 M80     -0.437900
     26 CZ         -4.2660   -4.9880   11.9000 c3        1 M80      0.195700
     27 CZ1        -3.6160   -6.0870   12.6700 ca        1 M80     -0.091300
     28 CZ2        -2.6390   -5.8260   13.6360 ca        1 M80     -0.112000
     29 CZ3        -2.0760   -6.8750   14.3610 ca        1 M80     -0.132500
     30 CZ4        -2.4890   -8.1870   14.1310 ca        1 M80     -0.129000
     31 CZ5        -3.4630   -8.4510   13.1670 ca        1 M80     -0.132500
     32 CZ6        -4.0240   -7.4060   12.4350 ca        1 M80     -0.112000
     33 OXT        -0.7840   -0.4830   -0.8340 o         1 M80     -0.847800
     34 H2B1       -0.8890   -1.8670    1.8100 hc        1 M80      0.024200
     35 H2B2       -1.8670   -0.3910    1.4350 hc        1 M80      0.024200
     36 H3B1       -0.0460    1.0610    2.3530 hc        1 M80      0.060200
     37 H3B2        0.9680   -0.4000    2.6690 hc        1 M80      0.060200
     38 HB6         0.9220   -1.1830    4.8870 ha        1 M80      0.142000
     39 HB2        -2.5580    0.8420    3.3400 ha        1 M80      0.142000
     40 HB5        -0.1350   -1.3610    7.1110 ha        1 M80      0.136000
     41 HB3        -3.6530    0.6850    5.5500 ha        1 M80      0.136000
     42 HB4        -3.6000   -0.1470    7.7230 hn        1 M80      0.313500
     43 HW         -4.1600   -0.6780    9.8540 h1        1 M80      0.097700
     44 HW11       -1.7200    0.7240   11.1970 hc        1 M80      0.068200
     45 HW12       -2.8540    1.4800   10.0030 hc        1 M80      0.068200
     46 HA         -1.9280   -1.9840   11.3110 hn        1 M80      0.333500
     47 HW3        -2.2570    0.8220   13.4860 ha        1 M80      0.131500
     48 HW7        -5.4040    1.3530   10.5680 ha        1 M80      0.131500
     49 HW4        -3.8440    1.4320   15.3040 ha        1 M80      0.129000
     50 HW5        -6.2130    2.0020   14.7610 ha        1 M80      0.127000
     51 HW6        -6.9890    1.9590   12.3890 ha        1 M80      0.129000
     52 HZ1C       -5.1710   -4.5990   12.4420 h1        1 M80      0.065200
     53 HZ2C       -4.5680   -5.3220   10.8710 h1        1 M80      0.065200
     54 HZ2        -2.3110   -4.7900   13.8090 ha        1 M80      0.140500
     55 HZ6        -4.7850   -7.6170   11.6690 ha        1 M80      0.140500
     56 HZ3        -1.3040   -6.6660   15.1160 ha        1 M80      0.130000
     57 HZ4        -2.0450   -9.0140   14.7040 ha        1 M80      0.128000
     58 HZ5        -3.7860   -9.4850   12.9800 ha        1 M80      0.130000
@<TRIPOS>BOND
     1    1    2 1   
     2    1    3 1   
     3    1   33 1   
     4    3    4 1   
     5    3   34 1   
     6    3   35 1   
     7    4    5 1   
     8    4   36 1   
     9    4   37 1   
    10    5    6 ar  
    11    5    8 ar  
    12    6    7 ar  
    13    6   38 1   
    14    7   10 ar  
    15    7   40 1   
    16    8    9 ar  
    17    8   39 1   
    18    9   10 ar  
    19    9   41 1   
    20   10   11 1   
    21   11   12 1   
    22   11   42 1   
    23   12   13 2   
    24   12   14 1   
    25   14   15 1   
    26   14   22 1   
    27   14   43 1   
    28   15   16 1   
    29   15   44 1   
    30   15   45 1   
    31   16   17 ar  
    32   16   21 ar  
    33   17   18 ar  
    34   17   47 1   
    35   18   19 ar  
    36   18   49 1   
    37   19   20 ar  
    38   19   50 1   
    39   20   21 ar  
    40   20   51 1   
    41   21   48 1   
    42   22   23 1   
    43   22   46 1   
    44   23   24 2   
    45   23   25 1   
    46   25   26 1   
    47   26   27 1   
    48   26   52 1   
    49   26   53 1   
    50   27   28 ar  
    51   27   32 ar  
    52   28   29 ar  
    53   28   54 1   
    54   29   30 ar  
    55   29   56 1   
    56   30   31 ar  
    57   30   57 1   
    58   31   32 ar  
    59   31   58 1   
    60   32   55 1   
@<TRIPOS>SUBSTRUCTURE
     1 M80         1 TEMP              0 ****  ****    0 ROOT
