@<TRIPOS>MOLECULE
M80
   58    60     1     0     0
SMALL
bcc


@<TRIPOS>ATOM
      1 C1B        -8.8330   -1.8120    0.6040 c         1 M80      0.908600
      2 O1B        -9.1290   -2.4110   -0.4700 o         1 M80     -0.847800
      3 C2B        -7.3770   -1.3480    0.8060 c3        1 M80     -0.193400
      4 C3B        -6.8230   -0.7560   -0.4700 c3        1 M80     -0.036100
      5 CB1        -5.4030   -0.3330   -0.3440 ca        1 M80     -0.050300
      6 CB6        -4.3970   -0.9330   -1.1070 ca        1 M80     -0.117000
      7 CB5        -3.0670   -0.5300   -1.0050 ca        1 M80     -0.160000
      8 CB2        -5.0440    0.6930    0.5420 ca        1 M80     -0.117000
      9 CB3        -3.7260    1.1120    0.6590 ca        1 M80     -0.160000
     10 CB4        -2.7120    0.5040   -0.1200 ca        1 M80      0.015600
     11 NB4        -1.3860    0.9660    0.0400 n         1 M80     -0.447100
     12 C4B        -0.2990    0.6710   -0.7450 c         1 M80      0.628100
     13 O4B        -0.3080   -0.1110   -1.7150 o         1 M80     -0.605100
     14 CW          1.0250    1.4140   -0.3820 c3        1 M80      0.026700
     15 CW1         1.0830    2.6420   -1.3120 c3        1 M80     -0.040100
     16 CW2         2.2100    3.5530   -0.9830 ca        1 M80     -0.073300
     17 CW3         3.3040    3.6680   -1.8470 ca        1 M80     -0.118500
     18 CW4         4.3500    4.5390   -1.5450 ca        1 M80     -0.129000
     19 CW5         4.3120    5.3010   -0.3790 ca        1 M80     -0.132000
     20 CW6         3.2240    5.1910    0.4870 ca        1 M80     -0.129000
     21 CW7         2.1770    4.3220    0.1870 ca        1 M80     -0.118500
     22 NW          2.1720    0.5480   -0.5400 n         1 M80     -0.498900
     23 CY          2.7450   -0.0130    0.5890 c         1 M80      0.732100
     24 OY1         2.6470    0.3560    1.7720 o         1 M80     -0.588000
     25 OY2         3.5830   -1.0700    0.2910 os        1 M80     -0.437900
     26 CZ          4.2950   -1.6080    1.4230 c3        1 M80      0.195700
     27 CZ1         5.1840   -2.6970    0.9270 ca        1 M80     -0.091300
     28 CZ2         5.7270   -2.6690   -0.3620 ca        1 M80     -0.112000
     29 CZ3         6.5820   -3.6880   -0.7810 ca        1 M80     -0.132500
     30 CZ4         6.9030   -4.7340    0.0830 ca        1 M80     -0.129000
     31 CZ5         6.3620   -4.7640    1.3690 ca        1 M80     -0.132500
     32 CZ6         5.5020   -3.7530    1.7900 ca        1 M80     -0.112000
     33 OXT        -9.6540   -1.5780    1.5360 o         1 M80     -0.847800
     34 H2B1       -7.3380   -0.5980    1.6350 hc        1 M80      0.024200
     35 H2B2       -6.7720   -2.2370    1.1140 hc        1 M80      0.024200
     36 H3B1       -6.9430   -1.5150   -1.2910 hc        1 M80      0.060200
     37 H3B2       -7.4430    0.1370   -0.7560 hc        1 M80      0.060200
     38 HB6        -4.6580   -1.7470   -1.8030 ha        1 M80      0.142000
     39 HB2        -5.8260    1.1650    1.1570 ha        1 M80      0.142000
     40 HB5        -2.3040   -1.0270   -1.6240 ha        1 M80      0.136000
     41 HB3        -3.4810    1.9170    1.3680 ha        1 M80      0.136000
     42 HB4        -1.2470    1.5910    0.8020 hn        1 M80      0.313500
     43 HW          1.0090    1.7750    0.6910 h1        1 M80      0.097700
     44 HW11        1.1500    2.2990   -2.3790 hc        1 M80      0.068200
     45 HW12        0.1100    3.1940   -1.1960 hc        1 M80      0.068200
     46 HA          2.1830   -0.0060   -1.3730 hn        1 M80      0.333500
     47 HW3         3.3400    3.0650   -2.7670 ha        1 M80      0.131500
     48 HW7         1.3220    4.2350    0.8740 ha        1 M80      0.131500
     49 HW4         5.2070    4.6220   -2.2300 ha        1 M80      0.129000
     50 HW5         5.1380    5.9870   -0.1410 ha        1 M80      0.127000
     51 HW6         3.1920    5.7880    1.4100 ha        1 M80      0.129000
     52 HZ1C        4.8960   -0.7830    1.8950 h1        1 M80      0.065200
     53 HZ2C        3.5440   -1.9880    2.1660 h1        1 M80      0.065200
     54 HZ2         5.4650   -1.8450   -1.0430 ha        1 M80      0.140500
     55 HZ6         5.0690   -3.7840    2.8010 ha        1 M80      0.140500
     56 HZ3         7.0020   -3.6640   -1.7980 ha        1 M80      0.130000
     57 HZ4         7.5770   -5.5360   -0.2490 ha        1 M80      0.128000
     58 HZ5         6.6090   -5.5910    2.0500 ha        1 M80      0.130000
@<TRIPOS>BOND
     1    1    2 1   
     2    1    3 1   
     3    1   33 1   
     4    3    4 1   
     5    3   34 1   
     6    3   35 1   
     7    4    5 1   
     8    4   36 1   
     9    4   37 1   
    10    5    6 ar  
    11    5    8 ar  
    12    6    7 ar  
    13    6   38 1   
    14    7   10 ar  
    15    7   40 1   
    16    8    9 ar  
    17    8   39 1   
    18    9   10 ar  
    19    9   41 1   
    20   10   11 1   
    21   11   12 1   
    22   11   42 1   
    23   12   13 2   
    24   12   14 1   
    25   14   15 1   
    26   14   22 1   
    27   14   43 1   
    28   15   16 1   
    29   15   44 1   
    30   15   45 1   
    31   16   17 ar  
    32   16   21 ar  
    33   17   18 ar  
    34   17   47 1   
    35   18   19 ar  
    36   18   49 1   
    37   19   20 ar  
    38   19   50 1   
    39   20   21 ar  
    40   20   51 1   
    41   21   48 1   
    42   22   23 1   
    43   22   46 1   
    44   23   24 2   
    45   23   25 1   
    46   25   26 1   
    47   26   27 1   
    48   26   52 1   
    49   26   53 1   
    50   27   28 ar  
    51   27   32 ar  
    52   28   29 ar  
    53   28   54 1   
    54   29   30 ar  
    55   29   56 1   
    56   30   31 ar  
    57   30   57 1   
    58   31   32 ar  
    59   31   58 1   
    60   32   55 1   
@<TRIPOS>SUBSTRUCTURE
     1 M80         1 TEMP              0 ****  ****    0 ROOT
