@<TRIPOS>MOLECULE
M80
   59    61     1     0     0
SMALL
bcc


@<TRIPOS>ATOM
      1 C1B        -2.1560   -3.8420    5.4940 c         1 M80      0.907600
      2 O1B        -1.3560   -4.4710    6.2490 o         1 M80     -0.861300
      3 C2B        -1.7720   -3.5300    4.0500 c3        1 M80     -0.174400
      4 C3B        -0.6250   -2.5370    3.9480 c3        1 M80     -0.022100
      5 CB1        -0.8040   -1.4090    4.9020 ca        1 M80     -0.039300
      6 CB6         0.1050   -1.2120    5.9470 ca        1 M80     -0.091000
      7 CB5        -2.2780    0.2420    5.8900 ca        1 M80     -0.137500
      8 CB2        -1.9510   -0.6050    4.8400 ca        1 M80     -0.091000
      9 CB3        -0.1980   -0.3580    7.0040 ca        1 M80     -0.137500
     10 CB4        -1.4400    0.3010    7.0250 ca        1 M80     -0.023400
     11 NB4        -1.9240    0.9550    8.1990 ns        1 M80     -0.395100
     12 C4B        -1.6690    0.3920    9.4340 c         1 M80      0.649100
     13 O4B        -0.5620   -0.0050    9.8390 o         1 M80     -0.559100
     14 CW         -2.8560    0.3180   10.4490 c3        1 M80      0.033500
     15 CW1        -2.7510    1.5220   11.3920 c3        1 M80     -0.055100
     16 CW2        -3.7620    1.4710   12.4800 ca        1 M80     -0.141300
     17 CW3        -3.3880    1.0670   13.7680 ca        1 M80     -0.127500
     18 CW4        -4.3320    1.0300   14.7930 ca        1 M80     -0.116000
     19 CW5        -5.6540    1.3960   14.5390 ca        1 M80     -0.106000
     20 CW6        -6.0300    1.8060   13.2590 ca        1 M80     -0.116000
     21 CW7        -5.0880    1.8450   12.2330 ca        1 M80     -0.127500
     22 NW         -2.7770   -0.9900   11.1870 ny        1 M80     -0.649800
     23 CY         -3.6120   -2.0720   10.5380 c         1 M80      0.616100
     24 OY1        -4.7190   -2.3260   10.9980 o         1 M80     -0.467000
     25 OY2        -2.9900   -2.5980    9.4890 os        1 M80     -0.359900
     26 CZ         -3.5700   -3.8050    8.8720 c3        1 M80      0.163700
     27 CZ1        -3.1160   -5.0150    9.5970 ca        1 M80     -0.159300
     28 CZ2        -2.0820   -5.7820    9.0460 ca        1 M80     -0.098000
     29 CZ3        -1.6680   -6.9470    9.6950 ca        1 M80     -0.148500
     30 CZ4        -2.2770   -7.3450   10.8830 ca        1 M80     -0.111000
     31 CZ5        -3.3140   -6.5830   11.4280 ca        1 M80     -0.148500
     32 CZ6        -3.7360   -5.4240   10.7850 ca        1 M80     -0.098000
     33 OXT        -3.2930   -3.4590    5.9190 o         1 M80     -0.861300
     34 H2B1       -2.6710   -3.1200    3.5240 hc        1 M80      0.041700
     35 H2B2       -1.4720   -4.4830    3.5470 hc        1 M80      0.041700
     36 H3B1        0.3390   -3.0690    4.1690 hc        1 M80      0.043200
     37 H3B2       -0.5640   -2.1420    2.8990 hc        1 M80      0.043200
     38 HB6         1.0430   -1.7880    5.9730 ha        1 M80      0.146500
     39 HB2        -2.6390   -0.7070    3.9870 ha        1 M80      0.146500
     40 HB5        -3.2140    0.8180    5.8470 ha        1 M80      0.138000
     41 HB3         0.5090   -0.2580    7.8430 ha        1 M80      0.138000
     42 HB4        -2.8410    1.3370    8.0820 hn        1 M80      0.300500
     43 HW         -3.8560    0.3350    9.9240 hx        1 M80      0.115700
     44 HW11       -1.7110    1.5770   11.8160 hc        1 M80      0.092200
     45 HW12       -2.9030    2.4430   10.7630 hc        1 M80      0.092200
     46 HA         -3.1220   -0.8530   12.1480 hn        1 M80      0.475800
     47 HW3        -2.3400    0.8060   13.9830 ha        1 M80      0.136000
     48 HW7        -5.3860    2.1780   11.2260 ha        1 M80      0.136000
     49 HW4        -4.0320    0.7170   15.8050 ha        1 M80      0.147000
     50 HW5        -6.4000    1.3670   15.3490 ha        1 M80      0.148000
     51 HW6        -7.0720    2.1010   13.0580 ha        1 M80      0.147000
     52 HZ1C       -4.6820   -3.6990    8.8560 h1        1 M80      0.153700
     53 HZ2C       -3.1220   -3.7220    7.8100 h1        1 M80      0.153700
     54 HZ2        -1.6170   -5.4650    8.0850 ha        1 M80      0.175500
     55 HZ6        -4.5650   -4.8300   11.2000 ha        1 M80      0.175500
     56 HZ3        -0.8600   -7.5520    9.2580 ha        1 M80      0.134000
     57 HZ4        -1.9490   -8.2640   11.3910 ha        1 M80      0.128000
     58 HZ5        -3.8030   -6.9060   12.3580 ha        1 M80      0.134000
     59 HW2        -1.7900   -1.2980   11.2060 hn        1 M80      0.475800
@<TRIPOS>BOND
     1    1    2 1   
     2    1    3 1   
     3    1   33 1   
     4    3    4 1   
     5    3   34 1   
     6    3   35 1   
     7    4    5 1   
     8    4   36 1   
     9    4   37 1   
    10    5    6 ar  
    11    5    8 ar  
    12    6    9 ar  
    13    6   38 1   
    14    7    8 ar  
    15    7   10 ar  
    16    7   40 1   
    17    8   39 1   
    18    9   10 ar  
    19    9   41 1   
    20   10   11 1   
    21   11   12 1   
    22   11   42 1   
    23   12   13 2   
    24   12   14 1   
    25   14   15 1   
    26   14   22 1   
    27   14   43 1   
    28   15   16 1   
    29   15   44 1   
    30   15   45 1   
    31   16   17 ar  
    32   16   21 ar  
    33   17   18 ar  
    34   17   47 1   
    35   18   19 ar  
    36   18   49 1   
    37   19   20 ar  
    38   19   50 1   
    39   20   21 ar  
    40   20   51 1   
    41   21   48 1   
    42   22   23 1   
    43   22   46 1   
    44   22   59 1   
    45   23   24 2   
    46   23   25 1   
    47   25   26 1   
    48   26   27 1   
    49   26   52 1   
    50   26   53 1   
    51   27   28 ar  
    52   27   32 ar  
    53   28   29 ar  
    54   28   54 1   
    55   29   30 ar  
    56   29   56 1   
    57   30   31 ar  
    58   30   57 1   
    59   31   32 ar  
    60   31   58 1   
    61   32   55 1   
@<TRIPOS>SUBSTRUCTURE
     1 M80         1 TEMP              0 ****  ****    0 ROOT
