@<TRIPOS>MOLECULE
M81
   26    27     1     0     0
SMALL
bcc


@<TRIPOS>ATOM
      1 Cl          0.2760   -1.2040    0.3580 cl        1 M81     -0.133400
      2 C3          1.8300   -0.5070    0.1920 ca        1 M81      0.030400
      3 C2          2.6540   -0.5090    1.3260 ca        1 M81     -0.157000
      4 C1          3.9330    0.0300    1.2510 ca        1 M81     -0.149000
      5 C4          2.2740    0.0340   -1.0190 ca        1 M81     -0.055300
      6 C5          3.5760    0.5600   -1.0790 ca        1 M81     -0.083000
      7 C           4.3950    0.5620    0.0450 ca        1 M81     -0.149000
      8 C6          1.4540    0.0480   -2.2850 c3        1 M81      0.096600
      9 N           1.1430    1.3620   -2.7910 na        1 M81      0.056400
     10 N1          0.1680    2.1410   -2.2600 nc        1 M81     -0.551800
     11 C9          0.1970    3.3200   -2.9250 cd        1 M81      0.292800
     12 C10        -0.7470    4.4810   -2.6830 c         1 M81      0.837100
     13 O1         -0.3340    5.4550   -1.9900 o         1 M81     -0.847300
     14 O          -1.8990    4.4390   -3.2030 o         1 M81     -0.847300
     15 C8          1.2620    3.2970   -3.9160 cd        1 M81     -0.282300
     16 C7          1.8650    2.0390   -3.8030 cc        1 M81     -0.152900
     17 C11         3.0240    1.4850   -4.5860 c         1 M81      0.931200
     18 O2          3.3410    2.0510   -5.6690 o         1 M81     -0.851300
     19 O3          3.6630    0.4800   -4.1360 o         1 M81     -0.851300
     20 H2          2.2860   -0.9260    2.2730 ha        1 M81      0.116000
     21 H1          4.5760    0.0380    2.1410 ha        1 M81      0.104000
     22 H           5.4070    0.9860   -0.0180 ha        1 M81      0.118000
     23 H5          3.9300    0.9520   -2.0580 ha        1 M81      0.214000
     24 H61C        0.4910   -0.5130   -2.1180 h1        1 M81      0.080200
     25 H62C        2.0640   -0.4780   -3.0840 h1        1 M81      0.080200
     26 H8          1.5230    4.0880   -4.6060 ha        1 M81      0.153000
@<TRIPOS>BOND
     1    1    2 1   
     2    2    3 ar  
     3    2    5 ar  
     4    3    4 ar  
     5    3   20 1   
     6    4    7 ar  
     7    4   21 1   
     8    5    6 ar  
     9    5    8 1   
    10    6    7 ar  
    11    6   23 1   
    12    7   22 1   
    13    8    9 1   
    14    8   24 1   
    15    8   25 1   
    16    9   10 1   
    17    9   16 1   
    18   10   11 2   
    19   11   12 1   
    20   11   15 1   
    21   12   13 1   
    22   12   14 1   
    23   15   16 2   
    24   15   26 1   
    25   16   17 1   
    26   17   18 1   
    27   17   19 1   
@<TRIPOS>SUBSTRUCTURE
     1 M81         1 TEMP              0 ****  ****    0 ROOT
