@<TRIPOS>MOLECULE
M84
   35    36     1     0     0
SMALL
bcc


@<TRIPOS>ATOM
      1 O4B         2.9310    2.5000   -0.3440 o         1 M84     -0.451100
      2 C4B         2.7530    1.2910   -0.4540 c         1 M84      0.575700
      3 CW2         2.2640    0.3670    0.5730 ca        1 M84     -0.182600
      4 CW3         1.3960    0.8990    1.5430 ca        1 M84     -0.067000
      5 CW4         0.8930    0.0760    2.5480 ca        1 M84     -0.127000
      6 CW5         1.2560   -1.2700    2.5990 ca        1 M84     -0.064000
      7 CW6         2.1310   -1.7950    1.6440 ca        1 M84     -0.127000
      8 CW7         2.6360   -0.9840    0.6310 ca        1 M84     -0.067000
      9 NB4         3.0730    0.7270   -1.8180 n4        1 M84     -0.524200
     10 CB4         1.8690    0.4730   -2.6150 ca        1 M84     -0.103400
     11 CB3         1.4900    1.3850   -3.6150 ca        1 M84     -0.101000
     12 CB2         0.4330    1.0600   -4.4580 ca        1 M84     -0.106500
     13 CB5         1.1490   -0.7220   -2.4200 ca        1 M84     -0.101000
     14 CB6         0.0910   -1.0210   -3.2630 ca        1 M84     -0.106500
     15 CB1        -0.2490   -0.1570   -4.3210 ca        1 M84      0.029700
     16 C3B        -1.2690   -0.5950   -5.3110 c3        1 M84     -0.039100
     17 C2B        -0.6750   -1.6150   -6.2700 c3        1 M84     -0.199400
     18 C1B        -0.0290   -2.7840   -5.5030 c         1 M84      0.898600
     19 O1B         1.2020   -3.0020   -5.6790 o         1 M84     -0.841300
     20 OXT        -0.7530   -3.4390   -4.6950 o         1 M84     -0.841300
     21 HB4         3.6640    1.3990   -2.3260 hn        1 M84      0.456300
     22 HW3         1.1160    1.9650    1.5000 ha        1 M84      0.149000
     23 HW7         3.3320   -1.4270   -0.0970 ha        1 M84      0.149000
     24 HW4         0.2060    0.4930    3.3010 ha        1 M84      0.160500
     25 HW5         0.8530   -1.9210    3.3910 ha        1 M84      0.158000
     26 HW6         2.4200   -2.8580    1.6870 ha        1 M84      0.160500
     27 HB3         2.0280    2.3350   -3.7570 ha        1 M84      0.138000
     28 HB5         1.4330   -1.4370   -1.6310 ha        1 M84      0.138000
     29 HB2         0.1530    1.7550   -5.2650 ha        1 M84      0.193500
     30 HB6        -0.4440   -1.9950   -3.1710 ha        1 M84      0.193500
     31 H3B1       -2.1250   -1.0820   -4.7680 hc        1 M84      0.052700
     32 H3B2       -1.6650    0.2870   -5.8790 hc        1 M84      0.052700
     33 H2B1       -1.4920   -2.0200   -6.9160 hc        1 M84      0.043700
     34 H2B2        0.0910   -1.1310   -6.9250 hc        1 M84      0.043700
     35 HB42        3.5820   -0.1590   -1.7200 hn        1 M84      0.456300
@<TRIPOS>BOND
     1    1    2 2   
     2    2    3 1   
     3    2    9 1   
     4    3    4 ar  
     5    3    8 ar  
     6    4    5 ar  
     7    4   22 1   
     8    5    6 ar  
     9    5   24 1   
    10    6    7 ar  
    11    6   25 1   
    12    7    8 ar  
    13    7   26 1   
    14    8   23 1   
    15    9   10 1   
    16    9   21 1   
    17    9   35 1   
    18   10   11 ar  
    19   10   13 ar  
    20   11   12 ar  
    21   11   27 1   
    22   12   15 ar  
    23   12   29 1   
    24   13   14 ar  
    25   13   28 1   
    26   14   15 ar  
    27   14   30 1   
    28   15   16 1   
    29   16   17 1   
    30   16   31 1   
    31   16   32 1   
    32   17   18 1   
    33   17   33 1   
    34   17   34 1   
    35   18   19 1   
    36   18   20 1   
@<TRIPOS>SUBSTRUCTURE
     1 M84         1 TEMP              0 ****  ****    0 ROOT
