@<TRIPOS>MOLECULE
M84
   34    35     1     0     0
SMALL
bcc


@<TRIPOS>ATOM
      1 O4B        -0.0180   -1.0060    0.3470 o         1 M84     -0.592100
      2 C4B         1.0960   -0.4680    0.2000 c         1 M84      0.670700
      3 CW2         1.9730   -0.2060    1.3870 ca        1 M84     -0.138600
      4 CW3         1.3770    0.2940    2.5510 ca        1 M84     -0.094500
      5 CW4         2.1560    0.5370    3.6810 ca        1 M84     -0.140500
      6 CW5         3.5260    0.2730    3.6560 ca        1 M84     -0.118000
      7 CW6         4.1170   -0.2390    2.5010 ca        1 M84     -0.140500
      8 CW7         3.3440   -0.4780    1.3650 ca        1 M84     -0.094500
      9 NB4         1.6090   -0.0720   -1.0190 ns        1 M84     -0.459100
     10 CB4         0.9810   -0.1620   -2.2800 ca        1 M84      0.022600
     11 CB3         1.5060    0.6050   -3.3460 ca        1 M84     -0.162000
     12 CB2         0.9410    0.5250   -4.6120 ca        1 M84     -0.117500
     13 CB5        -0.1240   -0.9990   -2.5300 ca        1 M84     -0.162000
     14 CB6        -0.6750   -1.0620   -3.8060 ca        1 M84     -0.117500
     15 CB1        -0.1570   -0.3070   -4.8640 ca        1 M84     -0.053300
     16 C3B        -0.7590   -0.3890   -6.2220 c3        1 M84     -0.037100
     17 C2B        -0.3700   -1.6540   -6.9550 c3        1 M84     -0.192400
     18 C1B        -1.1810   -1.8030   -8.2560 c         1 M84      0.908600
     19 O1B        -2.4140   -1.5240   -8.2320 o         1 M84     -0.848300
     20 OXT        -0.5690   -2.2150   -9.2820 o         1 M84     -0.848300
     21 HB4         2.4730    0.4210   -1.0100 hn        1 M84      0.310500
     22 HW3         0.2910    0.4790    2.5640 ha        1 M84      0.147500
     23 HW7         3.8160   -0.8970    0.4630 ha        1 M84      0.147500
     24 HW4         1.6880    0.9320    4.5930 ha        1 M84      0.132000
     25 HW5         4.1390    0.4630    4.5480 ha        1 M84      0.128000
     26 HW6         5.1940   -0.4570    2.4840 ha        1 M84      0.132000
     27 HB3         2.3690    1.2690   -3.1860 ha        1 M84      0.134500
     28 HB5        -0.5620   -1.6040   -1.7200 ha        1 M84      0.134500
     29 HB2         1.3660    1.1230   -5.4330 ha        1 M84      0.139000
     30 HB6        -1.5360   -1.7240   -3.9940 ha        1 M84      0.139000
     31 H3B1       -1.8810   -0.3600   -6.1470 hc        1 M84      0.058700
     32 H3B2       -0.4460    0.4990   -6.8330 hc        1 M84      0.058700
     33 H2B1       -0.5820   -2.5470   -6.3130 hc        1 M84      0.024700
     34 H2B2        0.7210   -1.6500   -7.1950 hc        1 M84      0.024700
@<TRIPOS>BOND
     1    1    2 2   
     2    2    3 1   
     3    2    9 1   
     4    3    4 ar  
     5    3    8 ar  
     6    4    5 ar  
     7    4   22 1   
     8    5    6 ar  
     9    5   24 1   
    10    6    7 ar  
    11    6   25 1   
    12    7    8 ar  
    13    7   26 1   
    14    8   23 1   
    15    9   10 1   
    16    9   21 1   
    17   10   11 ar  
    18   10   13 ar  
    19   11   12 ar  
    20   11   27 1   
    21   12   15 ar  
    22   12   29 1   
    23   13   14 ar  
    24   13   28 1   
    25   14   15 ar  
    26   14   30 1   
    27   15   16 1   
    28   16   17 1   
    29   16   31 1   
    30   16   32 1   
    31   17   18 1   
    32   17   33 1   
    33   17   34 1   
    34   18   19 1   
    35   18   20 1   
@<TRIPOS>SUBSTRUCTURE
     1 M84         1 TEMP              0 ****  ****    0 ROOT
