@<TRIPOS>MOLECULE
M84
   34    35     1     0     0
SMALL
bcc


@<TRIPOS>ATOM
      1 O4B        -0.0290   -0.9900    0.3490 o         1 M84     -0.592100
      2 C4B         1.0920   -0.4660    0.2020 c         1 M84      0.670700
      3 CW2         1.9710   -0.2110    1.3890 ca        1 M84     -0.138600
      4 CW3         1.3800    0.2990    2.5500 ca        1 M84     -0.094500
      5 CW4         2.1620    0.5360    3.6800 ca        1 M84     -0.140500
      6 CW5         3.5280    0.2560    3.6560 ca        1 M84     -0.118000
      7 CW6         4.1140   -0.2660    2.5030 ca        1 M84     -0.140500
      8 CW7         3.3380   -0.4990    1.3670 ca        1 M84     -0.094500
      9 NB4         1.6090   -0.0780   -1.0190 n         1 M84     -0.459100
     10 CB4         0.9800   -0.1630   -2.2790 ca        1 M84      0.022600
     11 CB3         1.5140    0.5960   -3.3460 ca        1 M84     -0.162000
     12 CB2         0.9490    0.5200   -4.6130 ca        1 M84     -0.117500
     13 CB5        -0.1330   -0.9900   -2.5280 ca        1 M84     -0.162000
     14 CB6        -0.6850   -1.0490   -3.8040 ca        1 M84     -0.117500
     15 CB1        -0.1580   -0.3010   -4.8640 ca        1 M84     -0.053300
     16 C3B        -0.7600   -0.3800   -6.2210 c3        1 M84     -0.037100
     17 C2B        -0.3690   -1.6420   -6.9580 c3        1 M84     -0.192400
     18 C1B        -1.1780   -1.7880   -8.2610 c         1 M84      0.908600
     19 O1B        -2.4130   -1.5130   -8.2360 o         1 M84     -0.848800
     20 OXT        -0.5640   -2.1920   -9.2890 o         1 M84     -0.848800
     21 HB4         2.4790    0.4050   -1.0100 hn        1 M84      0.310500
     22 HW3         0.2970    0.4980    2.5620 ha        1 M84      0.147500
     23 HW7         3.8060   -0.9260    0.4670 ha        1 M84      0.147500
     24 HW4         1.6980    0.9400    4.5910 ha        1 M84      0.132000
     25 HW5         4.1430    0.4410    4.5490 ha        1 M84      0.128000
     26 HW6         5.1890   -0.4970    2.4870 ha        1 M84      0.132000
     27 HB3         2.3840    1.2510   -3.1870 ha        1 M84      0.134500
     28 HB5        -0.5770   -1.5890   -1.7170 ha        1 M84      0.134500
     29 HB2         1.3800    1.1120   -5.4350 ha        1 M84      0.139000
     30 HB6        -1.5520   -1.7030   -3.9910 ha        1 M84      0.139000
     31 H3B1       -0.4490    0.5110   -6.8300 hc        1 M84      0.058700
     32 H3B2       -1.8830   -0.3530   -6.1470 hc        1 M84      0.058700
     33 H2B1       -0.5800   -2.5370   -6.3200 hc        1 M84      0.024700
     34 H2B2        0.7230   -1.6360   -7.1970 hc        1 M84      0.024700
@<TRIPOS>BOND
     1    1    2 2   
     2    2    3 1   
     3    2    9 1   
     4    3    4 ar  
     5    3    8 ar  
     6    4    5 ar  
     7    4   22 1   
     8    5    6 ar  
     9    5   24 1   
    10    6    7 ar  
    11    6   25 1   
    12    7    8 ar  
    13    7   26 1   
    14    8   23 1   
    15    9   10 1   
    16    9   21 1   
    17   10   11 ar  
    18   10   13 ar  
    19   11   12 ar  
    20   11   27 1   
    21   12   15 ar  
    22   12   29 1   
    23   13   14 ar  
    24   13   28 1   
    25   14   15 ar  
    26   14   30 1   
    27   15   16 1   
    28   16   17 1   
    29   16   31 1   
    30   16   32 1   
    31   17   18 1   
    32   17   33 1   
    33   17   34 1   
    34   18   19 1   
    35   18   20 1   
@<TRIPOS>SUBSTRUCTURE
     1 M84         1 TEMP              0 ****  ****    0 ROOT
