@<TRIPOS>MOLECULE
M84
   34    35     1     0     0
SMALL
bcc


@<TRIPOS>ATOM
      1 O4B         2.2910   -1.7620   -0.6610 o         1 M84     -0.592100
      2 C4B         2.5970   -0.6140   -0.2850 c         1 M84      0.670700
      3 CW2         4.0300   -0.1760   -0.2760 ca        1 M84     -0.138600
      4 CW3         4.9930   -1.0780    0.1910 ca        1 M84     -0.094500
      5 CW4         6.3380   -0.7130    0.2010 ca        1 M84     -0.140500
      6 CW5         6.7260    0.5440   -0.2620 ca        1 M84     -0.118000
      7 CW6         5.7670    1.4380   -0.7400 ca        1 M84     -0.140500
      8 CW7         4.4190    1.0810   -0.7470 ca        1 M84     -0.094500
      9 NB4         1.6830    0.3260    0.1490 n         1 M84     -0.459100
     10 CB4         0.2870    0.1650    0.2800 ca        1 M84      0.022600
     11 CB3        -0.4260    1.1030    1.0610 ca        1 M84     -0.162000
     12 CB2        -1.8050    1.0030    1.1920 ca        1 M84     -0.117500
     13 CB5        -0.4290   -0.8700   -0.3550 ca        1 M84     -0.162000
     14 CB6        -1.8110   -0.9520   -0.2080 ca        1 M84     -0.117500
     15 CB1        -2.5200   -0.0230    0.5630 ca        1 M84     -0.053300
     16 C3B        -3.9970   -0.1260    0.7070 c3        1 M84     -0.037100
     17 C2B        -4.7350    0.3630   -0.5200 c3        1 M84     -0.192400
     18 C1B        -6.2390    0.0410   -0.4180 c         1 M84      0.908600
     19 O1B        -6.5820   -1.0910    0.0290 o         1 M84     -0.848800
     20 OXT        -7.0540    0.9270   -0.8040 o         1 M84     -0.848800
     21 HB4         2.0450    1.1830    0.5030 hn        1 M84      0.310500
     22 HW3         4.6760   -2.0750    0.5350 ha        1 M84      0.147500
     23 HW7         3.6710    1.7860   -1.1410 ha        1 M84      0.147500
     24 HW4         7.0940   -1.4210    0.5710 ha        1 M84      0.132000
     25 HW5         7.7880    0.8300   -0.2540 ha        1 M84      0.128000
     26 HW6         6.0730    2.4250   -1.1150 ha        1 M84      0.132000
     27 HB3         0.1020    1.9240    1.5690 ha        1 M84      0.134500
     28 HB5         0.0970   -1.6210   -0.9650 ha        1 M84      0.134500
     29 HB2        -2.3470    1.7460    1.7990 ha        1 M84      0.139000
     30 HB6        -2.3630   -1.7600   -0.7120 ha        1 M84      0.139000
     31 H3B1       -4.2920   -1.1980    0.8860 hc        1 M84      0.058700
     32 H3B2       -4.3360    0.4640    1.5990 hc        1 M84      0.058700
     33 H2B1       -4.5990    1.4660   -0.6460 hc        1 M84      0.024700
     34 H2B2       -4.3360   -0.1430   -1.4340 hc        1 M84      0.024700
@<TRIPOS>BOND
     1    1    2 2   
     2    2    3 1   
     3    2    9 1   
     4    3    4 ar  
     5    3    8 ar  
     6    4    5 ar  
     7    4   22 1   
     8    5    6 ar  
     9    5   24 1   
    10    6    7 ar  
    11    6   25 1   
    12    7    8 ar  
    13    7   26 1   
    14    8   23 1   
    15    9   10 1   
    16    9   21 1   
    17   10   11 ar  
    18   10   13 ar  
    19   11   12 ar  
    20   11   27 1   
    21   12   15 ar  
    22   12   29 1   
    23   13   14 ar  
    24   13   28 1   
    25   14   15 ar  
    26   14   30 1   
    27   15   16 1   
    28   16   17 1   
    29   16   31 1   
    30   16   32 1   
    31   17   18 1   
    32   17   33 1   
    33   17   34 1   
    34   18   19 1   
    35   18   20 1   
@<TRIPOS>SUBSTRUCTURE
     1 M84         1 TEMP              0 ****  ****    0 ROOT
