@<TRIPOS>MOLECULE
M85
   42    44     1     0     0
SMALL
bcc


@<TRIPOS>ATOM
      1 N01        -0.3610    1.1020    0.3920 nb        1 M85     -0.746000
      2 C02         0.9840    1.1140    0.2750 ca        1 M85      0.660200
      3 N02         1.5840    1.9200   -0.6940 nh        1 M85     -0.935500
      4 C03         1.8490    0.3670    1.1760 ca        1 M85     -0.270300
      5 C04         1.2860   -0.3520    2.1910 ca        1 M85     -0.052000
      6 C05        -0.1300   -0.3660    2.3540 ca        1 M85     -0.181300
      7 C06        -0.7640   -1.0900    3.3930 ca        1 M85     -0.081000
      8 C07        -2.1310   -1.0790    3.5200 ca        1 M85     -0.145000
      9 C08        -2.9220   -0.3460    2.5990 ca        1 M85     -0.094300
     10 C09        -2.3390    0.3650    1.5750 ca        1 M85     -0.151300
     11 C10        -0.9130    0.3810    1.4230 ca        1 M85      0.442600
     12 C11        -4.4060   -0.3920    2.7530 c3        1 M85      0.176700
     13 O12        -4.8970    0.9350    2.4660 os        1 M85     -0.316900
     14 C21        -8.0520    2.7050    2.2660 ca        1 M85     -0.155300
     15 C22        -8.9810    1.7310    2.6430 ca        1 M85     -0.136000
     16 C23        -8.5390    0.4440    2.9550 ca        1 M85     -0.077000
     17 C24        -7.1840    0.1250    2.9100 ca        1 M85     -0.163000
     18 C25        -6.2550    1.1100    2.5380 ca        1 M85      0.156100
     19 C26        -6.6900    2.4080    2.2060 ca        1 M85     -0.161000
     20 N28        -8.1210    5.0680    2.9520 n4        1 M85     -0.763000
     21 C29        -8.4820    6.4520    2.5820 c3        1 M85      0.076100
     22 HN02        0.9990    2.2840   -1.4110 hn        1 M85      0.416800
     23 HN0A        2.4840    1.6210   -0.9910 hn        1 M85      0.416800
     24 H03         2.9390    0.3980    1.0350 ha        1 M85      0.150000
     25 H04         1.9090   -0.9270    2.8940 ha        1 M85      0.145000
     26 H06        -0.1390   -1.6590    4.0980 ha        1 M85      0.141000
     27 H07        -2.6220   -1.6370    4.3310 ha        1 M85      0.135000
     28 H09        -2.9620    0.9340    0.8670 ha        1 M85      0.152000
     29 H11        -4.8590   -1.1130    2.0200 h1        1 M85      0.056200
     30 H11A       -4.7010   -0.6700    3.8000 h1        1 M85      0.056200
     31 H22       -10.0560    1.9630    2.6780 ha        1 M85      0.144000
     32 H23        -9.2710   -0.3290    3.2400 ha        1 M85      0.160000
     33 H24        -6.8540   -0.8960    3.1590 ha        1 M85      0.164000
     34 H26        -5.9460    3.1500    1.8820 ha        1 M85      0.150000
     35 H27        -9.6310    4.1150    1.7740 hx        1 M85      0.109700
     36 H27A       -8.0300    4.4030    0.9240 hx        1 M85      0.109700
     37 HN28       -8.5840    4.8100    3.8320 hn        1 M85      0.455300
     38 H29        -7.9500    6.7400    1.6350 hx        1 M85      0.108367
     39 H29A       -8.1780    7.1500    3.4090 hx        1 M85      0.108367
     40 H29B       -9.5910    6.5220    2.4210 hx        1 M85      0.108367
     41 H282       -7.1050    4.9980    3.1040 hn        1 M85      0.455300
     42 C27        -8.5100    4.0730    1.8910 c3        1 M85      0.172100
@<TRIPOS>BOND
     1    1    2 ar  
     2    1   11 ar  
     3    2    3 1   
     4    2    4 ar  
     5    3   22 1   
     6    3   23 1   
     7    4    5 ar  
     8    4   24 1   
     9    5    6 ar  
    10    5   25 1   
    11    6    7 ar  
    12    6   11 ar  
    13    7    8 ar  
    14    7   26 1   
    15    8    9 ar  
    16    8   27 1   
    17    9   10 ar  
    18    9   12 1   
    19   10   11 ar  
    20   10   28 1   
    21   12   13 1   
    22   12   29 1   
    23   12   30 1   
    24   13   18 1   
    25   14   15 ar  
    26   14   19 ar  
    27   14   42 1   
    28   15   16 ar  
    29   15   31 1   
    30   16   17 ar  
    31   16   32 1   
    32   17   18 ar  
    33   17   33 1   
    34   18   19 ar  
    35   19   34 1   
    36   20   21 1   
    37   20   37 1   
    38   20   41 1   
    39   20   42 1   
    40   21   38 1   
    41   21   39 1   
    42   21   40 1   
    43   35   42 1   
    44   36   42 1   
@<TRIPOS>SUBSTRUCTURE
     1 M85         1 TEMP              0 ****  ****    0 ROOT
