@<TRIPOS>MOLECULE
M85
   42    44     1     0     0
SMALL
bcc


@<TRIPOS>ATOM
      1 N01        -2.2360   -0.0860   -0.0980 n2        1 M85     -0.105000
      2 C02        -0.8990    0.1760   -0.1530 c2        1 M85      0.129000
      3 N02        -0.4050    1.3760   -0.5660 n8        1 M85     -0.332000
      4 C03         0.0930   -0.9880   -0.1260 c3        1 M85     -0.181000
      5 C04         0.8470   -1.2320    1.0790 c1        1 M85     -0.048000
      6 C05         0.4940   -1.0410    2.4670 c3        1 M85     -0.099000
      7 C06        -0.8790   -0.7860    2.7830 c1        1 M85     -0.163000
      8 C07        -2.0500   -0.6230    2.9730 c1        1 M85     -0.167000
      9 C08        -3.4760   -0.4250    2.9550 c3        1 M85      0.008000
     10 C09        -3.7930    0.4940    1.8010 c2        1 M85      0.072000
     11 C10        -3.2500    0.1100    0.5680 c1        1 M85     -0.157000
     12 C11        -4.0600    0.0290    4.2910 c3        1 M85     -0.009000
     13 O12        -4.4890    1.3890    4.3890 os        1 M85     -0.206000
     14 C21        -6.6040    3.5640    2.3400 c2        1 M85     -0.135000
     15 C22        -6.1630    3.3260    1.0850 c2        1 M85     -0.103000
     16 C23        -5.0490    2.3920    0.7990 c3        1 M85     -0.068000
     17 C24        -4.6320    1.5600    1.9590 c2        1 M85     -0.227000
     18 C25        -5.0870    1.9360    3.2750 c2        1 M85      0.188000
     19 C26        -6.0350    2.8980    3.4850 c2        1 M85     -0.308000
     20 N28        -8.8890    3.8160    3.1960 ny        1 M85     -0.036000
     21 C29        -9.9660    4.7390    3.6010 c3        1 M85     -0.199000
     22 HN02       -0.9700    2.1920   -0.5630 hn        1 M85      0.236500
     23 HN0A        0.4530    1.4170   -1.0650 hn        1 M85      0.236500
     24 H03         0.8290   -0.8680   -0.9770 hc        1 M85      0.163000
     25 H04        -0.4410   -1.9710   -0.3280 hc        1 M85      0.163000
     26 H06         1.1640   -0.2050    2.8470 hc        1 M85      0.173000
     27 H07         0.8420   -1.9730    3.0190 hc        1 M85      0.173000
     28 H09        -3.9500   -1.4330    2.7210 hc        1 M85      0.142000
     29 H11        -4.9510   -0.6120    4.5380 h1        1 M85      0.112500
     30 H11A       -3.2950   -0.0500    5.1130 h1        1 M85      0.112500
     31 H22        -5.3390    1.7070   -0.0510 hc        1 M85      0.109000
     32 H23        -6.5960    3.8350    0.2090 ha        1 M85      0.130000
     33 H24        -4.1730    3.0010    0.4290 hc        1 M85      0.109000
     34 H26        -6.3010    3.2160    4.4990 ha        1 M85      0.135000
     35 H27        -7.3660    5.3040    3.3680 hx        1 M85      0.141500
     36 H27A       -9.2410    3.1480    2.5000 hn        1 M85      0.252500
     37 HN28       -8.5620    3.2720    4.0080 hn        1 M85      0.252500
     38 H29        -8.0420    5.0620    1.6770 hx        1 M85      0.141500
     39 H29A      -10.3110    5.3300    2.7100 hx        1 M85      0.144333
     40 H29B      -10.8270    4.1500    4.0180 hx        1 M85      0.144333
     41 H282       -9.5810    5.4450    4.3860 hx        1 M85      0.144333
     42 C27        -7.7010    4.5360    2.6130 c3        1 M85     -0.069000
@<TRIPOS>BOND
     1    1    2 1   
     2    1   11 1   
     3    2    3 1   
     4    2    4 1   
     5    3   22 1   
     6    3   23 1   
     7    4    5 1   
     8    4   24 1   
     9    4   25 1   
    10    5    6 1   
    11    6    7 1   
    12    6   26 1   
    13    6   27 1   
    14    7    8 1   
    15    8    9 1   
    16    9   10 1   
    17    9   12 1   
    18    9   28 1   
    19   10   11 1   
    20   10   17 1   
    21   12   13 1   
    22   12   29 1   
    23   12   30 1   
    24   13   18 1   
    25   14   15 1   
    26   14   19 1   
    27   14   42 1   
    28   15   16 1   
    29   15   32 1   
    30   16   17 1   
    31   16   31 1   
    32   16   33 1   
    33   17   18 1   
    34   18   19 1   
    35   19   34 1   
    36   20   21 1   
    37   20   36 1   
    38   20   37 1   
    39   20   42 1   
    40   21   39 1   
    41   21   40 1   
    42   21   41 1   
    43   35   42 1   
    44   38   42 1   
@<TRIPOS>SUBSTRUCTURE
     1 M85         1 TEMP              0 ****  ****    0 ROOT
