@<TRIPOS>MOLECULE
M86
   80    82     1     0     0
SMALL
bcc


@<TRIPOS>ATOM
      1 O10        -4.8450    0.8350    1.4350 o         1 M86     -0.656300
      2 S8         -3.4380    0.7090    1.3690 sy        1 M86      1.510200
      3 O9         -2.7140    1.2700    2.4460 o         1 M86     -0.656300
      4 C5         -3.0570   -0.9180    1.2220 ca        1 M86     -0.434500
      5 C6         -1.7370   -1.3700    1.3760 ca        1 M86      0.018500
      6 C7         -1.4170   -2.7160    1.2840 ca        1 M86     -0.208500
      7 C4         -4.0600   -1.8650    0.9770 ca        1 M86      0.018500
      8 C3         -3.7720   -3.2210    0.8840 ca        1 M86     -0.208500
      9 C2         -2.4440   -3.6480    1.0360 ca        1 M86      0.185100
     10 O1         -2.0350   -4.9580    0.9580 os        1 M86     -0.321900
     11 C1         -3.0520   -5.9310    0.7340 c3        1 M86      0.110700
     12 N11        -2.8830    1.3550   -0.0320 n3        1 M86     -0.799500
     13 C12        -3.5890    1.1580   -1.2720 c3        1 M86      0.219800
     14 C13        -4.7630    2.1220   -1.5280 c3        1 M86     -0.093700
     15 C14        -4.2840    3.5510   -1.6510 c3        1 M86     -0.085100
     16 C15        -5.4800    1.6750   -2.7960 c3        1 M86     -0.074400
     17 C18        -6.8750    2.2380   -2.8910 c3        1 M86     -0.093100
     18 C16        -1.6500    2.0870   -0.0940 c3        1 M86      0.192800
     19 C17        -0.4890    1.3390   -0.7880 c3        1 M86      0.076100
     20 O18        -0.4920    1.5480   -2.1860 oh        1 M86     -0.590800
     21 C19         0.8710    1.7400   -0.1500 c3        1 M86      0.073700
     22 C32         1.1810    3.2200   -0.4370 c3        1 M86     -0.042100
     23 C38         2.2940    3.7360    0.4040 ca        1 M86     -0.083300
     24 C37         2.0950    3.9530    1.7730 ca        1 M86     -0.120000
     25 C36         3.1290    4.4530    2.5620 ca        1 M86     -0.126500
     26 C35         4.3690    4.7410    1.9910 ca        1 M86     -0.128000
     27 C34         4.5720    4.5260    0.6280 ca        1 M86     -0.126500
     28 C33         3.5390    4.0250   -0.1640 ca        1 M86     -0.120000
     29 N20         1.9600    0.8840   -0.5740 n         1 M86     -0.504900
     30 C21         2.0060   -0.4130   -0.1030 c         1 M86      0.734100
     31 O22         1.3880   -0.9110    0.8570 o         1 M86     -0.610000
     32 O23         2.9090   -1.2020   -0.7880 os        1 M86     -0.431900
     33 C22         3.1190   -2.5080   -0.2320 c3        1 M86      0.114400
     34 C23         4.1380   -3.2050   -1.1420 c3        1 M86      0.083000
     35 N24         5.4900   -2.7290   -1.1390 n         1 M86     -0.438800
     36 C25         6.2310   -2.6060    0.1130 c3        1 M86      0.046000
     37 C28         5.8710   -1.6510   -2.0050 c         1 M86      0.759500
     38 O29         5.4160   -1.4610   -3.1460 o         1 M86     -0.617500
     39 N27         6.8710   -0.8380   -1.3900 n         1 M86     -0.518900
     40 C26         7.2290   -1.4240   -0.1060 c3        1 M86      0.042000
     41 H1         -0.9240   -0.6470    1.5800 ha        1 M86      0.161500
     42 H2         -0.3760   -3.0540    1.3980 ha        1 M86      0.155000
     43 H3         -5.1060   -1.5220    0.8670 ha        1 M86      0.161500
     44 H4         -4.5810   -3.9400    0.6970 ha        1 M86      0.155000
     45 H5         -2.4870   -6.8970    0.7230 h1        1 M86      0.049367
     46 H6         -3.7980   -5.9180    1.5650 h1        1 M86      0.049367
     47 H7         -3.5530   -5.7550   -0.2490 h1        1 M86      0.049367
     48 H8         -2.8640    1.2340   -2.1330 h1        1 M86      0.054700
     49 H9         -4.0000    0.1040   -1.2650 h1        1 M86      0.054700
     50 H10        -5.4820    2.0520   -0.6620 hc        1 M86      0.080700
     51 H11        -5.1250    4.2150   -1.9680 hc        1 M86      0.032700
     52 H12        -3.9000    3.9240   -0.6710 hc        1 M86      0.032700
     53 H13        -3.4670    3.6310   -2.4090 hc        1 M86      0.032700
     54 H14        -4.8820    1.9890   -3.6920 hc        1 M86      0.038200
     55 H15        -5.5400    0.5540   -2.8140 hc        1 M86      0.038200
     56 H16        -7.3760    1.8640   -3.8170 hc        1 M86      0.035033
     57 H17        -7.4860    1.9290   -2.0090 hc        1 M86      0.035033
     58 H18        -6.8550    3.3530   -2.9290 hc        1 M86      0.035033
     59 H19        -1.8270    3.0540   -0.6510 h1        1 M86      0.068200
     60 H20        -1.3360    2.3470    0.9610 h1        1 M86      0.068200
     61 H21        -0.6180    0.2190   -0.6840 h1        1 M86      0.098700
     62 H22        -0.4760    2.5010   -2.3420 ho        1 M86      0.398000
     63 H23         0.7650    1.6020    0.9710 h1        1 M86      0.095700
     64 H24         1.4200    3.3580   -1.5260 hc        1 M86      0.055700
     65 H25         0.2500    3.8100   -0.2180 hc        1 M86      0.055700
     66 H26         1.1180    3.7240    2.2270 ha        1 M86      0.133000
     67 H27         2.9650    4.6200    3.6370 ha        1 M86      0.133000
     68 H28         5.1840    5.1360    2.6140 ha        1 M86      0.132000
     69 H29         5.5490    4.7500    0.1750 ha        1 M86      0.133000
     70 H30         3.7080    3.8530   -1.2370 ha        1 M86      0.133000
     71 H31         2.3490    1.0520   -1.4760 hn        1 M86      0.329500
     72 H32         3.4670   -2.4060    0.8280 h1        1 M86      0.059700
     73 H33         2.1490   -3.0720   -0.2460 h1        1 M86      0.059700
     74 H34         4.1670   -4.2860   -0.8210 h1        1 M86      0.080700
     75 H35         3.7660   -3.1430   -2.2070 h1        1 M86      0.080700
     76 H36         5.5650   -2.3950    0.9910 h1        1 M86      0.056700
     77 H37         6.7820   -3.5650    0.2980 h1        1 M86      0.056700
     78 H38         7.6130   -0.5370   -1.9790 hn        1 M86      0.307500
     79 H39         7.1030   -0.6460    0.6920 h1        1 M86      0.056200
     80 H40         8.2870   -1.7980   -0.0830 h1        1 M86      0.056200
@<TRIPOS>BOND
     1    1    2 2   
     2    2    3 2   
     3    2    4 1   
     4    2   12 1   
     5    4    5 ar  
     6    4    7 ar  
     7    5    6 ar  
     8    5   41 1   
     9    6    9 ar  
    10    6   42 1   
    11    7    8 ar  
    12    7   43 1   
    13    8    9 ar  
    14    8   44 1   
    15    9   10 1   
    16   10   11 1   
    17   11   45 1   
    18   11   46 1   
    19   11   47 1   
    20   12   13 1   
    21   12   18 1   
    22   13   14 1   
    23   13   48 1   
    24   13   49 1   
    25   14   15 1   
    26   14   16 1   
    27   14   50 1   
    28   15   51 1   
    29   15   52 1   
    30   15   53 1   
    31   16   17 1   
    32   16   54 1   
    33   16   55 1   
    34   17   56 1   
    35   17   57 1   
    36   17   58 1   
    37   18   19 1   
    38   18   59 1   
    39   18   60 1   
    40   19   20 1   
    41   19   21 1   
    42   19   61 1   
    43   20   62 1   
    44   21   22 1   
    45   21   29 1   
    46   21   63 1   
    47   22   23 1   
    48   22   64 1   
    49   22   65 1   
    50   23   24 ar  
    51   23   28 ar  
    52   24   25 ar  
    53   24   66 1   
    54   25   26 ar  
    55   25   67 1   
    56   26   27 ar  
    57   26   68 1   
    58   27   28 ar  
    59   27   69 1   
    60   28   70 1   
    61   29   30 1   
    62   29   71 1   
    63   30   31 2   
    64   30   32 1   
    65   32   33 1   
    66   33   34 1   
    67   33   72 1   
    68   33   73 1   
    69   34   35 1   
    70   34   74 1   
    71   34   75 1   
    72   35   36 1   
    73   35   37 1   
    74   36   40 1   
    75   36   76 1   
    76   36   77 1   
    77   37   38 2   
    78   37   39 1   
    79   39   40 1   
    80   39   78 1   
    81   40   79 1   
    82   40   80 1   
@<TRIPOS>SUBSTRUCTURE
     1 M86         1 TEMP              0 ****  ****    0 ROOT
