@<TRIPOS>MOLECULE
M86
   82    83     1     0     0
SMALL
bcc


@<TRIPOS>ATOM
      1 O10         2.7210    0.1820    0.6850 o         1 M86     -0.443400
      2 S8          2.9640   -0.9990    0.0570 s4        1 M86      1.688300
      3 O9          4.1830   -1.6020    0.1260 o         1 M86     -0.443400
      4 C5          1.7780   -1.8230   -0.4570 ca        1 M86     -0.687500
      5 C6          1.9600   -3.1390   -0.9930 ca        1 M86      0.067000
      6 C7          0.9100   -3.9210   -1.3870 ca        1 M86     -0.215500
      7 C4          0.4310   -1.3530   -0.3690 ca        1 M86      0.067000
      8 C3         -0.6410   -2.1200   -0.7510 ca        1 M86     -0.215500
      9 C2         -0.4230   -3.4250   -1.2650 ca        1 M86      0.304100
     10 O1         -1.3890   -4.2680   -1.6640 os        1 M86     -0.264900
     11 C1         -2.7590   -3.8460   -1.5460 c3        1 M86      0.097700
     12 N11         3.9570    0.2390   -1.9090 n3        1 M86     -0.893200
     13 C12         3.1450    0.6090   -3.0720 c3        1 M86      0.122800
     14 C13         1.6850    0.9810   -2.7720 c3        1 M86     -0.068700
     15 C14         1.5680    2.2020   -1.8880 c3        1 M86     -0.111100
     16 C15         0.9800    1.2100   -4.1070 c3        1 M86     -0.080400
     17 C18        -0.5200    1.1250   -3.9860 c3        1 M86     -0.096100
     18 C16         4.6970    1.3470   -1.3170 c3        1 M86      0.122800
     19 C17         6.0100    1.7360   -2.0270 c3        1 M86      0.110100
     20 O18         5.6870    2.4320   -3.2150 oh        1 M86     -0.609800
     21 C19         6.8300    2.6820   -1.1040 c3        1 M86      0.123500
     22 C32         6.0230    3.9250   -0.7020 c3        1 M86     -0.053100
     23 C38         6.8520    4.9370    0.0060 ca        1 M86     -0.169300
     24 C37         7.1390    4.7880    1.3680 ca        1 M86     -0.132500
     25 C36         7.8820    5.7590    2.0380 ca        1 M86     -0.113000
     26 C35         8.3390    6.8870    1.3540 ca        1 M86     -0.094000
     27 C34         8.0510    7.0430   -0.0030 ca        1 M86     -0.113000
     28 C33         7.3100    6.0730   -0.6760 ca        1 M86     -0.132500
     29 N20         8.1050    3.0930   -1.7990 n4        1 M86     -0.631800
     30 C21         9.1650    2.0510   -1.7330 c         1 M86      0.643100
     31 O22         9.0410    0.9790   -1.1550 o         1 M86     -0.448000
     32 O23        10.2800    2.4740   -2.3720 os        1 M86     -0.398900
     33 C22        11.3100    1.4840   -2.6160 c3        1 M86      0.113400
     34 C23        10.8440    0.4060   -3.5990 c3        1 M86      0.071000
     35 N24        10.3710    0.8500   -4.8710 n         1 M86     -0.462800
     36 C25        11.2530    1.0530   -6.0180 c3        1 M86      0.062000
     37 C28         9.1770    1.5750   -5.0500 c         1 M86      0.811500
     38 O29         8.2570    1.6570   -4.1860 o         1 M86     -0.798500
     39 N27         9.1770    2.2280   -6.2930 n         1 M86     -0.517900
     40 C26        10.3950    1.8870   -7.0260 c3        1 M86      0.049000
     41 H1          2.9930   -3.5340   -1.0730 ha        1 M86      0.173500
     42 H2          1.0620   -4.9380   -1.7900 ha        1 M86      0.191000
     43 H3          0.2560   -0.3350    0.0340 ha        1 M86      0.173500
     44 H4         -1.6670   -1.7280   -0.6550 ha        1 M86      0.191000
     45 H5         -2.9400   -2.9500   -2.1880 h1        1 M86      0.082700
     46 H6         -3.3190   -4.7390   -1.9310 h1        1 M86      0.082700
     47 H7         -3.0080   -3.6450   -0.4770 h1        1 M86      0.082700
     48 H8          3.1350   -0.2760   -3.7730 h1        1 M86      0.072200
     49 H9          3.6170    1.4740   -3.6240 h1        1 M86      0.072200
     50 H10         1.1880    0.1110   -2.2550 hc        1 M86      0.025700
     51 H11         0.5010    2.5320   -1.8260 hc        1 M86      0.050033
     52 H12         1.9200    1.9810   -0.8500 hc        1 M86      0.050033
     53 H13         2.1660    3.0500   -2.3030 hc        1 M86      0.050033
     54 H14         1.3270    0.4440   -4.8510 hc        1 M86      0.053200
     55 H15         1.2700    2.2170   -4.5070 hc        1 M86      0.053200
     56 H16        -0.8320    0.1250   -3.6000 hc        1 M86      0.042700
     57 H17        -0.9890    1.2760   -4.9890 hc        1 M86      0.042700
     58 H18        -0.9160    1.9100   -3.2970 hc        1 M86      0.042700
     59 H19         4.0280    2.2550   -1.2870 h1        1 M86      0.088700
     60 H20         4.9520    1.0470   -0.2590 h1        1 M86      0.088700
     61 H21         6.6360    0.8220   -2.2440 h1        1 M86      0.083700
     62 H22         6.1730    2.0250   -3.9490 ho        1 M86      0.450000
     63 H23         7.1300    2.1080   -0.1750 hx        1 M86      0.119700
     64 H24         5.5440    4.3690   -1.6170 hc        1 M86      0.093200
     65 H25         5.1990    3.5750   -0.0220 hc        1 M86      0.093200
     66 H26         6.7630    3.9120    1.9170 ha        1 M86      0.136500
     67 H27         8.0970    5.6420    3.1120 ha        1 M86      0.158500
     68 H28         8.9170    7.6590    1.8870 ha        1 M86      0.163000
     69 H29         8.3960    7.9410   -0.5400 ha        1 M86      0.158500
     70 H30         7.0500    6.2230   -1.7360 ha        1 M86      0.136500
     71 H31         7.9010    3.2610   -2.8040 hn        1 M86      0.493800
     72 H32        12.1350    2.1310   -3.0250 h1        1 M86      0.107700
     73 H33        11.6060    1.0100   -1.6440 h1        1 M86      0.107700
     74 H34        10.0080   -0.1770   -3.1080 h1        1 M86      0.097200
     75 H35        11.7160   -0.2900   -3.7710 h1        1 M86      0.097200
     76 H36        11.5360    0.0580   -6.4520 h1        1 M86      0.077700
     77 H37        12.1830    1.6100   -5.7300 h1        1 M86      0.077700
     78 H38         8.3220    2.3370   -6.7870 hn        1 M86      0.338500
     79 H39        10.9210    2.8360   -7.3150 h1        1 M86      0.083700
     80 H40        10.1780    1.2900   -7.9500 h1        1 M86      0.083700
     81 H111        4.6210   -0.4660   -2.2000 hn        1 M86      0.381800
     82 H202        8.4620    3.9690   -1.3800 hn        1 M86      0.493800
@<TRIPOS>BOND
     1    1    2 1   
     2    2    3 1   
     3    2    4 1   
     4    4    5 ar  
     5    4    7 ar  
     6    5    6 ar  
     7    5   41 1   
     8    6    9 ar  
     9    6   42 1   
    10    7    8 ar  
    11    7   43 1   
    12    8    9 ar  
    13    8   44 1   
    14    9   10 1   
    15   10   11 1   
    16   11   45 1   
    17   11   46 1   
    18   11   47 1   
    19   12   13 1   
    20   12   18 1   
    21   12   81 1   
    22   13   14 1   
    23   13   48 1   
    24   13   49 1   
    25   14   15 1   
    26   14   16 1   
    27   14   50 1   
    28   15   51 1   
    29   15   52 1   
    30   15   53 1   
    31   16   17 1   
    32   16   54 1   
    33   16   55 1   
    34   17   56 1   
    35   17   57 1   
    36   17   58 1   
    37   18   19 1   
    38   18   59 1   
    39   18   60 1   
    40   19   20 1   
    41   19   21 1   
    42   19   61 1   
    43   20   62 1   
    44   21   22 1   
    45   21   29 1   
    46   21   63 1   
    47   22   23 1   
    48   22   64 1   
    49   22   65 1   
    50   23   24 ar  
    51   23   28 ar  
    52   24   25 ar  
    53   24   66 1   
    54   25   26 ar  
    55   25   67 1   
    56   26   27 ar  
    57   26   68 1   
    58   27   28 ar  
    59   27   69 1   
    60   28   70 1   
    61   29   30 1   
    62   29   71 1   
    63   29   82 1   
    64   30   31 2   
    65   30   32 1   
    66   32   33 1   
    67   33   34 1   
    68   33   72 1   
    69   33   73 1   
    70   34   35 1   
    71   34   74 1   
    72   34   75 1   
    73   35   36 1   
    74   35   37 1   
    75   36   40 1   
    76   36   76 1   
    77   36   77 1   
    78   37   38 2   
    79   37   39 1   
    80   39   40 1   
    81   39   78 1   
    82   40   79 1   
    83   40   80 1   
@<TRIPOS>SUBSTRUCTURE
     1 M86         1 TEMP              0 ****  ****    0 ROOT
