@<TRIPOS>MOLECULE
M86
   82    83     1     0     0
SMALL
bcc


@<TRIPOS>ATOM
      1 O10         2.7030    0.1340    0.6530 o         1 M86     -0.443400
      2 S8          2.9530   -1.0350    0.0060 s4        1 M86      1.688300
      3 O9          4.1730   -1.6360    0.0720 o         1 M86     -0.443400
      4 C5          1.7720   -1.8530   -0.5300 ca        1 M86     -0.687500
      5 C6          1.9620   -3.1590   -1.0880 ca        1 M86      0.067000
      6 C7          0.9170   -3.9370   -1.5020 ca        1 M86     -0.215500
      7 C4          0.4240   -1.3890   -0.4410 ca        1 M86      0.067000
      8 C3         -0.6430   -2.1520   -0.8440 ca        1 M86     -0.215500
      9 C2         -0.4180   -3.4470   -1.3800 ca        1 M86      0.304100
     10 O1         -1.3790   -4.2850   -1.8000 os        1 M86     -0.264900
     11 C1         -2.7520   -3.8700   -1.6830 c3        1 M86      0.097700
     12 N11         3.9540    0.2380   -1.9320 n3        1 M86     -0.893200
     13 C12         3.1470    0.6300   -3.0910 c3        1 M86      0.122800
     14 C13         1.6860    0.9980   -2.7900 c3        1 M86     -0.068700
     15 C14         1.5670    2.2030   -1.8840 c3        1 M86     -0.111100
     16 C15         0.9860    1.2510   -4.1220 c3        1 M86     -0.080400
     17 C18        -0.5140    1.1650   -4.0080 c3        1 M86     -0.096100
     18 C16         4.6930    1.3330   -1.3160 c3        1 M86      0.122800
     19 C17         6.0090    1.7360   -2.0140 c3        1 M86      0.110100
     20 O18         5.6900    2.4560   -3.1890 oh        1 M86     -0.609800
     21 C19         6.8270    2.6620   -1.0690 c3        1 M86      0.123500
     22 C32         6.0200    3.8980   -0.6450 c3        1 M86     -0.053100
     23 C38         6.8480    4.8940    0.0860 ca        1 M86     -0.169300
     24 C37         7.1290    4.7160    1.4460 ca        1 M86     -0.133000
     25 C36         7.8700    5.6720    2.1390 ca        1 M86     -0.113000
     26 C35         8.3330    6.8120    1.4800 ca        1 M86     -0.094000
     27 C34         8.0500    6.9960    0.1260 ca        1 M86     -0.113000
     28 C33         7.3110    6.0420   -0.5700 ca        1 M86     -0.133000
     29 N20         8.1050    3.0850   -1.7510 n4        1 M86     -0.631800
     30 C21         9.1630    2.0400   -1.7040 c         1 M86      0.643100
     31 O22         9.0360    0.9570   -1.1480 o         1 M86     -0.448000
     32 O23        10.2800    2.4750   -2.3290 os        1 M86     -0.398900
     33 C22        11.3100    1.4880   -2.5900 c3        1 M86      0.113400
     34 C23        10.8450    0.4310   -3.5970 c3        1 M86      0.071000
     35 N24        10.3780    0.9020   -4.8610 n         1 M86     -0.461800
     36 C25        11.2640    1.1280   -6.0010 c3        1 M86      0.062000
     37 C28         9.1860    1.6320   -5.0290 c         1 M86      0.811500
     38 O29         8.2630    1.6980   -4.1670 o         1 M86     -0.798500
     39 N27         9.1900    2.3120   -6.2590 n         1 M86     -0.517900
     40 C26        10.4110    1.9840   -6.9940 c3        1 M86      0.049000
     41 H1          2.9960   -3.5500   -1.1690 ha        1 M86      0.173500
     42 H2          1.0740   -4.9460   -1.9230 ha        1 M86      0.191000
     43 H3          0.2430   -0.3790   -0.0220 ha        1 M86      0.173500
     44 H4         -1.6710   -1.7650   -0.7470 ha        1 M86      0.191000
     45 H5         -3.3060   -4.7580   -2.0870 h1        1 M86      0.082700
     46 H6         -2.9310   -2.9630   -2.3090 h1        1 M86      0.082700
     47 H7         -3.0080   -3.6890   -0.6120 h1        1 M86      0.082700
     48 H8          3.6220    1.5060   -3.6250 h1        1 M86      0.072200
     49 H9          3.1390   -0.2410   -3.8090 h1        1 M86      0.072200
     50 H10         1.1870    0.1190   -2.2900 hc        1 M86      0.025700
     51 H11         1.9150    1.9630   -0.8490 hc        1 M86      0.050033
     52 H12         0.5010    2.5330   -1.8210 hc        1 M86      0.050033
     53 H13         2.1670    3.0570   -2.2810 hc        1 M86      0.050033
     54 H14         1.3350    0.4980   -4.8790 hc        1 M86      0.053200
     55 H15         1.2780    2.2660   -4.5040 hc        1 M86      0.053200
     56 H16        -0.9120    1.9370   -3.3070 hc        1 M86      0.043033
     57 H17        -0.9800    1.3340   -5.0110 hc        1 M86      0.043033
     58 H18        -0.8290    0.1580   -3.6420 hc        1 M86      0.043033
     59 H19         4.9440    1.0130   -0.2630 h1        1 M86      0.089200
     60 H20         4.0240    2.2410   -1.2710 h1        1 M86      0.089200
     61 H21         6.6340    0.8260   -2.2480 h1        1 M86      0.083700
     62 H22         6.1780    2.0640   -3.9290 ho        1 M86      0.450000
     63 H23         7.1230    2.0690   -0.1510 hx        1 M86      0.119700
     64 H24         5.5450    4.3610   -1.5530 hc        1 M86      0.093200
     65 H25         5.1920    3.5350    0.0240 hc        1 M86      0.093200
     66 H26         6.7480    3.8300    1.9770 ha        1 M86      0.136500
     67 H27         8.0810    5.5330    3.2120 ha        1 M86      0.158500
     68 H28         8.9090    7.5730    2.0320 ha        1 M86      0.163000
     69 H29         8.4000    7.9050   -0.3910 ha        1 M86      0.158500
     70 H30         7.0560    6.2150   -1.6270 ha        1 M86      0.136500
     71 H31         8.4610    3.9520   -1.3130 hn        1 M86      0.493800
     72 H32        12.1370    2.1420   -2.9830 h1        1 M86      0.107700
     73 H33        11.6020    0.9940   -1.6270 h1        1 M86      0.107700
     74 H34        10.0070   -0.1600   -3.1220 h1        1 M86      0.097200
     75 H35        11.7180   -0.2630   -3.7800 h1        1 M86      0.097200
     76 H36        11.5480    0.1410   -6.4540 h1        1 M86      0.077700
     77 H37        12.1940    1.6770   -5.6980 h1        1 M86      0.077700
     78 H38         8.3380    2.4320   -6.7530 hn        1 M86      0.338500
     79 H39        10.1960    1.4070   -7.9310 h1        1 M86      0.083700
     80 H40        10.9390    2.9380   -7.2620 h1        1 M86      0.083700
     81 H111        4.6190   -0.4620   -2.2350 hn        1 M86      0.381800
     82 H202        7.9040    3.2740   -2.7530 hn        1 M86      0.493800
@<TRIPOS>BOND
     1    1    2 1   
     2    2    3 1   
     3    2    4 1   
     4    4    5 ar  
     5    4    7 ar  
     6    5    6 ar  
     7    5   41 1   
     8    6    9 ar  
     9    6   42 1   
    10    7    8 ar  
    11    7   43 1   
    12    8    9 ar  
    13    8   44 1   
    14    9   10 1   
    15   10   11 1   
    16   11   45 1   
    17   11   46 1   
    18   11   47 1   
    19   12   13 1   
    20   12   18 1   
    21   12   81 1   
    22   13   14 1   
    23   13   48 1   
    24   13   49 1   
    25   14   15 1   
    26   14   16 1   
    27   14   50 1   
    28   15   51 1   
    29   15   52 1   
    30   15   53 1   
    31   16   17 1   
    32   16   54 1   
    33   16   55 1   
    34   17   56 1   
    35   17   57 1   
    36   17   58 1   
    37   18   19 1   
    38   18   59 1   
    39   18   60 1   
    40   19   20 1   
    41   19   21 1   
    42   19   61 1   
    43   20   62 1   
    44   21   22 1   
    45   21   29 1   
    46   21   63 1   
    47   22   23 1   
    48   22   64 1   
    49   22   65 1   
    50   23   24 ar  
    51   23   28 ar  
    52   24   25 ar  
    53   24   66 1   
    54   25   26 ar  
    55   25   67 1   
    56   26   27 ar  
    57   26   68 1   
    58   27   28 ar  
    59   27   69 1   
    60   28   70 1   
    61   29   30 1   
    62   29   71 1   
    63   29   82 1   
    64   30   31 2   
    65   30   32 1   
    66   32   33 1   
    67   33   34 1   
    68   33   72 1   
    69   33   73 1   
    70   34   35 1   
    71   34   74 1   
    72   34   75 1   
    73   35   36 1   
    74   35   37 1   
    75   36   40 1   
    76   36   76 1   
    77   36   77 1   
    78   37   38 2   
    79   37   39 1   
    80   39   40 1   
    81   39   78 1   
    82   40   79 1   
    83   40   80 1   
@<TRIPOS>SUBSTRUCTURE
     1 M86         1 TEMP              0 ****  ****    0 ROOT
