@<TRIPOS>MOLECULE
M86
   82    83     1     0     0
SMALL
bcc


@<TRIPOS>ATOM
      1 O10         2.7170    0.1700    0.6760 o         1 M86     -0.443400
      2 S8          2.9460   -1.0050    0.0320 s4        1 M86      1.688300
      3 O9          4.1590   -1.6210    0.0890 o         1 M86     -0.443400
      4 C5          1.7500   -1.8100   -0.4900 ca        1 M86     -0.687500
      5 C6          1.9190   -3.1200   -1.0450 ca        1 M86      0.067000
      6 C7          0.8600   -3.8870   -1.4460 ca        1 M86     -0.215500
      7 C4          0.4090   -1.3280   -0.3920 ca        1 M86      0.067000
      8 C3         -0.6710   -2.0790   -0.7810 ca        1 M86     -0.215500
      9 C2         -0.4680   -3.3780   -1.3140 ca        1 M86      0.304100
     10 O1         -1.4430   -4.2060   -1.7230 os        1 M86     -0.264900
     11 C1         -2.8090   -3.7720   -1.5950 c3        1 M86      0.097700
     12 N11         3.9460    0.2490   -1.9190 n7        1 M86     -0.893200
     13 C12         3.1340    0.6450   -3.0740 c3        1 M86      0.122800
     14 C13         1.6800    1.0290   -2.7640 c3        1 M86     -0.068700
     15 C14         1.5800    2.2380   -1.8630 c3        1 M86     -0.111100
     16 C15         0.9730    1.2840   -4.0930 c3        1 M86     -0.080400
     17 C18        -0.5270    1.2140   -3.9680 c3        1 M86     -0.096100
     18 C16         4.7000    1.3400   -1.3140 c3        1 M86      0.122800
     19 C17         6.0160    1.7250   -2.0230 c3        1 M86      0.110100
     20 O18         5.6970    2.4410   -3.2010 oh        1 M86     -0.609800
     21 C19         6.8500    2.6480   -1.0910 c3        1 M86      0.123500
     22 C32         6.0580    3.8950   -0.6690 c3        1 M86     -0.053100
     23 C38         6.9000    4.8880    0.0500 ca        1 M86     -0.169300
     24 C37         7.1900    4.7160    1.4090 ca        1 M86     -0.132500
     25 C36         7.9460    5.6700    2.0900 ca        1 M86     -0.113000
     26 C35         8.4130    6.8010    1.4210 ca        1 M86     -0.094000
     27 C34         8.1230    6.9800    0.0670 ca        1 M86     -0.113000
     28 C33         7.3690    6.0270   -0.6170 ca        1 M86     -0.132500
     29 N20         8.1270    3.0550   -1.7840 ny        1 M86     -0.631800
     30 C21         9.1750    2.0000   -1.7360 c         1 M86      0.643100
     31 O22         9.0410    0.9220   -1.1720 o         1 M86     -0.448000
     32 O23        10.2920    2.4200   -2.3720 os        1 M86     -0.398900
     33 C22        11.3100    1.4210   -2.6330 c3        1 M86      0.113400
     34 C23        10.8290    0.3620   -3.6300 c3        1 M86      0.071000
     35 N24        10.3570    0.8290   -4.8930 n         1 M86     -0.462800
     36 C25        11.2380    1.0370   -6.0410 c3        1 M86      0.062000
     37 C28         9.1710    1.5690   -5.0590 c         1 M86      0.811500
     38 O29         8.2550    1.6500   -4.1910 o         1 M86     -0.798500
     39 N27         9.1740    2.2390   -6.2930 ns        1 M86     -0.517900
     40 C26        10.3860    1.8950   -7.0340 c3        1 M86      0.049000
     41 H1          2.9470   -3.5250   -1.1330 ha        1 M86      0.173500
     42 H2          1.0000   -4.8990   -1.8650 ha        1 M86      0.191000
     43 H3          0.2450   -0.3140    0.0250 ha        1 M86      0.173500
     44 H4         -1.6940   -1.6780   -0.6770 ha        1 M86      0.191000
     45 H5         -3.3790   -4.6550   -1.9910 h1        1 M86      0.082700
     46 H6         -2.9820   -2.8660   -2.2240 h1        1 M86      0.082700
     47 H7         -3.0530   -3.5840   -0.5220 h1        1 M86      0.082700
     48 H8          3.1130   -0.2300   -3.7880 h1        1 M86      0.072200
     49 H9          3.6150    1.5120   -3.6160 h1        1 M86      0.072200
     50 H10         1.1750    0.1570   -2.2580 hc        1 M86      0.025700
     51 H11         1.9330    2.0000   -0.8290 hc        1 M86      0.050033
     52 H12         2.1850    3.0850   -2.2680 hc        1 M86      0.050033
     53 H13         0.5170    2.5790   -1.7930 hc        1 M86      0.050033
     54 H14         1.2730    2.2930   -4.4810 hc        1 M86      0.053200
     55 H15         1.3090    0.5240   -4.8490 hc        1 M86      0.053200
     56 H16        -0.8500    0.2120   -3.5950 hc        1 M86      0.043033
     57 H17        -0.9120    1.9940   -3.2670 hc        1 M86      0.043033
     58 H18        -0.9980    1.3840   -4.9680 hc        1 M86      0.043033
     59 H19         4.9550    1.0230   -0.2620 h1        1 M86      0.089200
     60 H20         4.0420    2.2560   -1.2700 h1        1 M86      0.089200
     61 H21         6.6300    0.8070   -2.2560 h1        1 M86      0.083700
     62 H22         6.1760    2.0390   -3.9420 ho        1 M86      0.450000
     63 H23         7.1460    2.0590   -0.1710 hx        1 M86      0.119700
     64 H24         5.2310    3.5450    0.0090 hc        1 M86      0.093200
     65 H25         5.5810    4.3570   -1.5760 hc        1 M86      0.093200
     66 H26         6.8050    3.8370    1.9480 ha        1 M86      0.136500
     67 H27         8.1620    5.5350    3.1620 ha        1 M86      0.158500
     68 H28         9.0010    7.5600    1.9630 ha        1 M86      0.163000
     69 H29         8.4760    7.8810   -0.4580 ha        1 M86      0.158500
     70 H30         7.1080    6.1960   -1.6730 ha        1 M86      0.136500
     71 H31         8.4950    3.9210   -1.3540 hn        1 M86      0.493800
     72 H32        12.1410    2.0640   -3.0360 h1        1 M86      0.107700
     73 H33        11.6040    0.9310   -1.6690 h1        1 M86      0.107700
     74 H34        11.6930   -0.3420   -3.8140 h1        1 M86      0.097200
     75 H35         9.9880   -0.2180   -3.1440 h1        1 M86      0.097200
     76 H36        11.5080    0.0440   -6.4890 h1        1 M86      0.077700
     77 H37        12.1750    1.5800   -5.7490 h1        1 M86      0.077700
     78 H38         8.3190    2.3640   -6.7820 hn        1 M86      0.338500
     79 H39        10.9210    2.8410   -7.3130 h1        1 M86      0.083700
     80 H40        10.1590    1.3120   -7.9660 h1        1 M86      0.083700
     81 H111        4.6010   -0.4590   -2.2240 hn        1 M86      0.381800
     82 H202        7.9210    3.2390   -2.7850 hn        1 M86      0.493800
@<TRIPOS>BOND
     1    1    2 1   
     2    2    3 1   
     3    2    4 1   
     4    4    5 ar  
     5    4    7 ar  
     6    5    6 ar  
     7    5   41 1   
     8    6    9 ar  
     9    6   42 1   
    10    7    8 ar  
    11    7   43 1   
    12    8    9 ar  
    13    8   44 1   
    14    9   10 1   
    15   10   11 1   
    16   11   45 1   
    17   11   46 1   
    18   11   47 1   
    19   12   13 1   
    20   12   18 1   
    21   12   81 1   
    22   13   14 1   
    23   13   48 1   
    24   13   49 1   
    25   14   15 1   
    26   14   16 1   
    27   14   50 1   
    28   15   51 1   
    29   15   52 1   
    30   15   53 1   
    31   16   17 1   
    32   16   54 1   
    33   16   55 1   
    34   17   56 1   
    35   17   57 1   
    36   17   58 1   
    37   18   19 1   
    38   18   59 1   
    39   18   60 1   
    40   19   20 1   
    41   19   21 1   
    42   19   61 1   
    43   20   62 1   
    44   21   22 1   
    45   21   29 1   
    46   21   63 1   
    47   22   23 1   
    48   22   64 1   
    49   22   65 1   
    50   23   24 ar  
    51   23   28 ar  
    52   24   25 ar  
    53   24   66 1   
    54   25   26 ar  
    55   25   67 1   
    56   26   27 ar  
    57   26   68 1   
    58   27   28 ar  
    59   27   69 1   
    60   28   70 1   
    61   29   30 1   
    62   29   71 1   
    63   29   82 1   
    64   30   31 2   
    65   30   32 1   
    66   32   33 1   
    67   33   34 1   
    68   33   72 1   
    69   33   73 1   
    70   34   35 1   
    71   34   74 1   
    72   34   75 1   
    73   35   36 1   
    74   35   37 1   
    75   36   40 1   
    76   36   76 1   
    77   36   77 1   
    78   37   38 2   
    79   37   39 1   
    80   39   40 1   
    81   39   78 1   
    82   40   79 1   
    83   40   80 1   
@<TRIPOS>SUBSTRUCTURE
     1 M86         1 TEMP              0 ****  ****    0 ROOT
