@<TRIPOS>MOLECULE
M86
   80    74     1     0     0
SMALL
bcc


@<TRIPOS>ATOM
      1 O10        -4.0080    0.1050    1.2460 o         1 M86     -0.939000
      2 S8         -2.6600   -0.1320    0.7910 ss        1 M86      2.849000
      3 O9         -1.9390   -0.1840    2.0570 o         1 M86     -0.939000
      4 C5         -2.5350   -1.6920   -0.0950 c1        1 M86     -0.368500
      5 C6         -3.2390   -1.8730   -1.2880 c1        1 M86     -0.110500
      6 C7         -3.2730   -3.1510   -1.9030 c1        1 M86     -0.110500
      7 C4         -1.8640   -2.7740    0.4930 c1        1 M86     -0.103500
      8 C3         -1.8970   -4.0330   -0.1140 c1        1 M86     -0.103500
      9 C2         -2.6070   -4.2190   -1.3190 c1        1 M86     -0.368500
     10 O1         -2.6650   -5.5110   -1.9190 o         1 M86     -0.212000
     11 C1         -1.5800   -5.7840   -2.8260 c3        1 M86     -0.077000
     12 N11        -2.1290    1.1000   -0.1530 n2        1 M86     -0.819000
     13 C12        -2.8460    1.4310   -1.3870 c3        1 M86     -0.017000
     14 C13        -4.2140    1.9300   -1.0470 c3        1 M86     -0.133000
     15 C14        -4.2830    3.4420   -1.2950 c3        1 M86     -0.203000
     16 C15        -5.2490    1.2160   -1.9240 c3        1 M86     -0.153000
     17 C18        -6.6270    1.3130   -1.2680 c3        1 M86     -0.210000
     18 C16        -0.9870    1.9560    0.3000 c3        1 M86     -0.012000
     19 C17         0.2300    1.6330   -0.5140 c3        1 M86     -0.003000
     20 O18         0.0530    2.1070   -1.8160 oh        1 M86     -0.327000
     21 C19         1.4720    2.3030    0.1150 c3        1 M86     -0.012000
     22 C32         1.5440    3.7720   -0.3290 c3        1 M86     -0.134000
     23 C38         2.2400    4.6150    0.7750 c2        1 M86     -0.092000
     24 C37         3.4130    5.3210    0.4780 c2        1 M86     -0.136000
     25 C36         4.0000    6.1510    1.4500 c1        1 M86     -0.127000
     26 C35         3.4160    6.2700    2.7050 c1        1 M86     -0.110500
     27 C34         2.2400    5.5630    3.0030 c1        1 M86     -0.110500
     28 C33         1.6550    4.7360    2.0340 c1        1 M86     -0.122000
     29 N20         2.6260    1.6350   -0.3040 n         1 M86     -0.330000
     30 C21         3.2460    0.6590    0.5590 c2        1 M86      0.375000
     31 O22         2.9630    0.6290    1.7660 o         1 M86     -0.397000
     32 O23         4.1740   -0.2890    0.0160 os        1 M86     -0.281000
     33 C22         4.4060   -1.4530    0.8680 c3        1 M86     -0.005000
     34 C23         4.1270   -2.7100    0.0870 c3        1 M86     -0.067000
     35 N24         3.9600   -3.8070    0.9900 n         1 M86     -0.298000
     36 C25         4.7760   -4.9850    1.0380 c3        1 M86     -0.069000
     37 C28         2.8590   -3.9810    1.9270 c2        1 M86      0.353000
     38 O29         2.0030   -3.1700    2.1670 o         1 M86     -0.363000
     39 N27         2.9410   -5.3210    2.4800 n         1 M86     -0.328000
     40 C26         4.1510   -5.9050    2.0360 c3        1 M86     -0.076000
     41 H1         -3.7010   -1.1300   -1.6930 ha        1 M86      0.145000
     42 H2         -3.7630   -3.2790   -2.7340 ha        1 M86      0.145000
     43 H3         -1.3840   -2.6510    1.3070 ha        1 M86      0.169000
     44 H4         -1.4360   -4.7720    0.2910 ha        1 M86      0.169000
     45 H5         -0.7630   -5.3740   -2.4890 h1        1 M86      0.094667
     46 H6         -1.4520   -6.7610   -2.9010 h1        1 M86      0.094667
     47 H7         -1.7870   -5.4190   -3.6930 h1        1 M86      0.094667
     48 H8         -2.3650    2.1110   -1.8670 h1        1 M86      0.095000
     49 H9         -2.9220    0.6270   -1.9460 h1        1 M86      0.095000
     50 H10        -4.4020    1.7460   -0.1080 hc        1 M86      0.119000
     51 H11        -3.6520    3.9050   -0.6890 hc        1 M86      0.072667
     52 H12        -4.0420    3.6300   -2.2190 hc        1 M86      0.072667
     53 H13        -5.2010    3.7630   -1.1220 hc        1 M86      0.072667
     54 H14        -4.9940    0.2560   -2.0220 hc        1 M86      0.076500
     55 H15        -5.2780    1.6410   -2.8120 hc        1 M86      0.076500
     56 H16        -6.5340    1.2170   -0.2910 hc        1 M86      0.073667
     57 H17        -7.0330    2.2010   -1.4770 hc        1 M86      0.073667
     58 H18        -7.2110    0.5930   -1.6160 hc        1 M86      0.073667
     59 H19        -0.8010    1.7810    1.2580 h1        1 M86      0.113000
     60 H20        -1.2190    2.9020    0.1790 h1        1 M86      0.113000
     61 H21         0.3600    0.6560   -0.5360 h1        1 M86      0.107000
     62 H22         0.6210    1.7030   -2.3560 ho        1 M86      0.207000
     63 H23         1.4080    2.2600    1.0760 h1        1 M86      0.112000
     64 H24         2.0520    3.8360   -1.1500 hc        1 M86      0.111500
     65 H25         0.6520    4.1070   -0.4770 hc        1 M86      0.111500
     66 H26         3.8260    5.2370   -0.4100 ha        1 M86      0.132000
     67 H27         4.8170    6.6420    1.2430 ha        1 M86      0.134000
     68 H28         3.8310    6.8570    3.3930 ha        1 M86      0.145000
     69 H29         1.8330    5.6470    3.8810 ha        1 M86      0.145000
     70 H30         0.8260    4.2370    2.2440 ha        1 M86      0.138000
     71 H31         3.0400    1.8840   -1.0820 hn        1 M86      0.238000
     72 H32         5.3370   -1.4570    1.1670 h1        1 M86      0.114000
     73 H33         3.8160   -1.4130    1.6410 h1        1 M86      0.114000
     74 H34         3.3160   -2.5940   -0.4340 h1        1 M86      0.110500
     75 H35         4.8820   -2.8940   -0.5170 h1        1 M86      0.110500
     76 H36         5.6490   -4.7090    1.4160 h1        1 M86      0.098000
     77 H37         4.6890   -5.4230    0.1570 h1        1 M86      0.098000
     78 H38         2.3670   -5.6820    3.0910 hn        1 M86      0.225000
     79 H39         4.7540   -6.0290    2.7940 h1        1 M86      0.098500
     80 H40         3.9680   -6.7650    1.6210 h1        1 M86      0.098500
@<TRIPOS>BOND
     1    1    2 1   
     2    2    3 1   
     3    4    7 1   
     4    5    6 1   
     5    5   41 1   
     6    6   42 1   
     7    7   43 1   
     8    8    9 1   
     9    8   44 1   
    10   10   11 1   
    11   11   45 1   
    12   11   46 1   
    13   11   47 1   
    14   12   13 1   
    15   12   18 1   
    16   13   14 1   
    17   13   48 1   
    18   13   49 1   
    19   14   15 1   
    20   14   16 1   
    21   14   50 1   
    22   15   51 1   
    23   15   52 1   
    24   15   53 1   
    25   16   17 1   
    26   16   54 1   
    27   16   55 1   
    28   17   56 1   
    29   17   57 1   
    30   17   58 1   
    31   18   19 1   
    32   18   59 1   
    33   18   60 1   
    34   19   20 1   
    35   19   21 1   
    36   19   61 1   
    37   20   62 1   
    38   21   22 1   
    39   21   29 1   
    40   21   63 1   
    41   22   23 1   
    42   22   64 1   
    43   22   65 1   
    44   23   24 1   
    45   23   28 1   
    46   24   25 1   
    47   24   66 1   
    48   25   67 1   
    49   26   27 1   
    50   26   68 1   
    51   27   69 1   
    52   28   70 1   
    53   29   30 1   
    54   29   71 1   
    55   30   31 1   
    56   30   32 1   
    57   32   33 1   
    58   33   34 1   
    59   33   72 1   
    60   33   73 1   
    61   34   35 1   
    62   34   74 1   
    63   34   75 1   
    64   35   36 1   
    65   35   37 1   
    66   36   40 1   
    67   36   76 1   
    68   36   77 1   
    69   37   38 1   
    70   37   39 1   
    71   39   40 1   
    72   39   78 1   
    73   40   79 1   
    74   40   80 1   
@<TRIPOS>SUBSTRUCTURE
     1 M86         1 TEMP              0 ****  ****    0 ROOT
