@<TRIPOS>MOLECULE
M87
   42    44     1     0     0
SMALL
bcc


@<TRIPOS>ATOM
      1 F23         0.0310   -0.1630   -0.0470 f         1 M87     -0.116900
      2 C23         1.3760   -0.1490    0.0830 ca        1 M87      0.149900
      3 C24         1.9650   -0.2300    1.3610 ca        1 M87     -0.129000
      4 C25         3.3510   -0.2150    1.4730 ca        1 M87     -0.088000
      5 C26         4.1580   -0.1250    0.3360 ca        1 M87     -0.126000
      6 C22         2.1820   -0.0540   -1.0650 ca        1 M87     -0.173000
      7 C21         3.5730   -0.0450   -0.9300 ca        1 M87     -0.109300
      8 C14         4.4250    0.0840   -2.1460 c3        1 M87     -0.047100
      9 C13         4.4300   -1.2570   -2.8820 c3        1 M87      0.099800
     10 N12         5.1970   -1.1980   -4.1690 n4        1 M87     -0.765000
     11 C11         5.1750   -2.5100   -4.8860 c3        1 M87      0.156100
     12 C08         5.9840   -2.4930   -6.1460 ca        1 M87     -0.141300
     13 C07         7.4010   -2.4200   -6.0510 ca        1 M87     -0.106000
     14 C06         8.1790   -2.4830   -7.1810 ca        1 M87     -0.075000
     15 C09         5.3640   -2.6290   -7.3670 ca        1 M87     -0.107300
     16 C10         6.1540   -2.7090   -8.5630 ca        1 M87      0.404600
     17 N01         5.5220   -2.8690   -9.7760 nb        1 M87     -0.622000
     18 C05         7.5790   -2.6320   -8.4590 ca        1 M87     -0.104300
     19 C04         8.3510   -2.7240   -9.6510 ca        1 M87     -0.024000
     20 C03         7.7250   -2.8880  -10.8660 ca        1 M87     -0.221300
     21 C02         6.2920   -2.9560  -10.8640 ca        1 M87      0.487200
     22 N02         5.6090   -3.1420  -12.1670 n4        1 M87     -0.827300
     23 H24         1.3230   -0.2980    2.2530 ha        1 M87      0.176000
     24 H22         1.7050    0.0330   -2.0520 ha        1 M87      0.141000
     25 H25         3.8170   -0.2690    2.4710 ha        1 M87      0.164000
     26 H26         5.2520   -0.1030    0.4480 ha        1 M87      0.141000
     27 H141        5.4700    0.3730   -1.8560 hc        1 M87      0.073700
     28 H142        4.0120    0.8930   -2.8070 hc        1 M87      0.073700
     29 H131        3.3710   -1.5630   -3.1220 hx        1 M87      0.114200
     30 H132        4.8990   -2.0510   -2.2330 hx        1 M87      0.114200
     31 H12         4.7930   -0.4700   -4.7690 hn        1 M87      0.451300
     32 H111        4.0960   -2.7650   -5.1040 hx        1 M87      0.122700
     33 H112        5.5880   -3.2950   -4.1830 hx        1 M87      0.122700
     34 H07         7.8770   -2.3370   -5.0600 ha        1 M87      0.158000
     35 H09         4.2640   -2.6970   -7.4490 ha        1 M87      0.176000
     36 H06         9.2800   -2.4300   -7.1120 ha        1 M87      0.182000
     37 H04         9.4540   -2.6650   -9.5910 ha        1 M87      0.194000
     38 H03         8.3050   -2.9640  -11.8000 ha        1 M87      0.186000
     39 H021        5.9220   -4.0310  -12.5780 hn        1 M87      0.481800
     40 H022        5.8660   -2.3660  -12.7890 hn        1 M87      0.481800
     41 H122        6.1700   -0.9320   -3.9710 hn        1 M87      0.451300
     42 H023        4.5840   -3.1630  -12.0570 hn        1 M87      0.481800
@<TRIPOS>BOND
     1    1    2 1   
     2    2    3 ar  
     3    2    6 ar  
     4    3    4 ar  
     5    3   23 1   
     6    4    5 ar  
     7    4   25 1   
     8    5    7 ar  
     9    5   26 1   
    10    6    7 ar  
    11    6   24 1   
    12    7    8 1   
    13    8    9 1   
    14    8   27 1   
    15    8   28 1   
    16    9   10 1   
    17    9   29 1   
    18    9   30 1   
    19   10   11 1   
    20   10   31 1   
    21   10   41 1   
    22   11   12 1   
    23   11   32 1   
    24   11   33 1   
    25   12   13 ar  
    26   12   15 ar  
    27   13   14 ar  
    28   13   34 1   
    29   14   18 ar  
    30   14   36 1   
    31   15   16 ar  
    32   15   35 1   
    33   16   17 ar  
    34   16   18 ar  
    35   17   21 ar  
    36   18   19 ar  
    37   19   20 ar  
    38   19   37 1   
    39   20   21 ar  
    40   20   38 1   
    41   21   22 1   
    42   22   39 1   
    43   22   40 1   
    44   22   42 1   
@<TRIPOS>SUBSTRUCTURE
     1 M87         1 TEMP              0 ****  ****    0 ROOT
