@<TRIPOS>MOLECULE
M87
   41    43     1     0     0
SMALL
bcc


@<TRIPOS>ATOM
      1 F23        -0.0040   -0.5270   -0.0570 f         1 M87     -0.121900
      2 C23         1.3250   -0.2890   -0.0010 ca        1 M87      0.144900
      3 C24         1.9550   -0.0890    1.2440 ca        1 M87     -0.138000
      4 C25         3.3240    0.1560    1.2820 ca        1 M87     -0.092000
      5 C26         4.0720    0.2010    0.1040 ca        1 M87     -0.130000
      6 C22         2.0730   -0.2420   -1.1910 ca        1 M87     -0.168000
      7 C21         3.4480    0.0010   -1.1300 ca        1 M87     -0.097300
      8 C14         4.2370    0.0700   -2.3920 c3        1 M87     -0.051100
      9 C13         4.4740   -1.3480   -2.9100 c3        1 M87      0.097800
     10 N12         5.2200   -1.3710   -4.2000 n4        1 M87     -0.768000
     11 C11         5.4450   -2.7710   -4.7000 c3        1 M87      0.174100
     12 C08         6.1880   -2.7470   -5.9920 ca        1 M87     -0.169300
     13 C07         7.6040   -2.7940   -5.9690 ca        1 M87     -0.164000
     14 C06         8.3040   -2.8030   -7.1530 ca        1 M87     -0.057000
     15 C09         5.4930   -2.7040   -7.1820 ca        1 M87     -0.145300
     16 C10         6.1990   -2.7010   -8.4300 ca        1 M87      0.453600
     17 N01         5.4780   -2.6520   -9.5950 nb        1 M87     -0.761000
     18 C05         7.6260   -2.7550   -8.3920 ca        1 M87     -0.178300
     19 C04         8.3190   -2.7650   -9.6410 ca        1 M87     -0.050000
     20 C03         7.6200   -2.7170  -10.8100 ca        1 M87     -0.260300
     21 C02         6.1610   -2.6490  -10.7660 ca        1 M87      0.704200
     22 N02         5.4710   -2.5350  -11.9520 nh        1 M87     -0.954500
     23 H24         1.3580   -0.1240    2.1680 ha        1 M87      0.169000
     24 H22         1.5630   -0.3820   -2.1550 ha        1 M87      0.145000
     25 H25         3.8210    0.3200    2.2520 ha        1 M87      0.157000
     26 H26         5.1530    0.4050    0.1540 ha        1 M87      0.140000
     27 H141        3.6720    0.6750   -3.1530 hc        1 M87      0.071700
     28 H142        5.2180    0.5850   -2.2050 hc        1 M87      0.071700
     29 H131        3.4830   -1.8650   -3.0690 hx        1 M87      0.108700
     30 H132        5.0670   -1.9390   -2.1540 hx        1 M87      0.108700
     31 H12         6.1300   -0.9110   -4.0820 hn        1 M87      0.449300
     32 H111        4.4340   -3.2570   -4.8210 hx        1 M87      0.107700
     33 H112        6.0250   -3.3290   -3.9100 hx        1 M87      0.107700
     34 H07         8.1330   -2.8490   -5.0070 ha        1 M87      0.135000
     35 H09         4.3910   -2.6880   -7.1970 ha        1 M87      0.152000
     36 H06         9.4060   -2.8520   -7.1510 ha        1 M87      0.153000
     37 H04         9.4200   -2.8160   -9.6370 ha        1 M87      0.155000
     38 H03         8.1330   -2.7230  -11.7830 ha        1 M87      0.159000
     39 H021        5.9580   -2.7130  -12.7950 hn        1 M87      0.445300
     40 H022        4.4810   -2.5830  -11.9600 hn        1 M87      0.445300
     41 H122        4.6990   -0.8440   -4.9100 hn        1 M87      0.449300
@<TRIPOS>BOND
     1    1    2 1   
     2    2    3 ar  
     3    2    6 ar  
     4    3    4 ar  
     5    3   23 1   
     6    4    5 ar  
     7    4   25 1   
     8    5    7 ar  
     9    5   26 1   
    10    6    7 ar  
    11    6   24 1   
    12    7    8 1   
    13    8    9 1   
    14    8   27 1   
    15    8   28 1   
    16    9   10 1   
    17    9   29 1   
    18    9   30 1   
    19   10   11 1   
    20   10   31 1   
    21   10   41 1   
    22   11   12 1   
    23   11   32 1   
    24   11   33 1   
    25   12   13 ar  
    26   12   15 ar  
    27   13   14 ar  
    28   13   34 1   
    29   14   18 ar  
    30   14   36 1   
    31   15   16 ar  
    32   15   35 1   
    33   16   17 ar  
    34   16   18 ar  
    35   17   21 ar  
    36   18   19 ar  
    37   19   20 ar  
    38   19   37 1   
    39   20   21 ar  
    40   20   38 1   
    41   21   22 1   
    42   22   39 1   
    43   22   40 1   
@<TRIPOS>SUBSTRUCTURE
     1 M87         1 TEMP              0 ****  ****    0 ROOT
