@<TRIPOS>MOLECULE
M87
   41    43     1     0     0
SMALL
bcc


@<TRIPOS>ATOM
      1 F23        -0.0040   -0.5430   -0.0620 f         1 M87     -0.121900
      2 C23         1.3250   -0.2970   -0.0070 ca        1 M87      0.144900
      3 C24         1.9520   -0.0860    1.2370 ca        1 M87     -0.138000
      4 C25         3.3190    0.1680    1.2740 ca        1 M87     -0.092000
      5 C26         4.0680    0.2100    0.0970 ca        1 M87     -0.130000
      6 C22         2.0730   -0.2520   -1.1970 ca        1 M87     -0.168000
      7 C21         3.4460   -0.0000   -1.1370 ca        1 M87     -0.097300
      8 C14         4.2350    0.0670   -2.3980 c3        1 M87     -0.051100
      9 C13         4.4800   -1.3530   -2.9090 c3        1 M87      0.097800
     10 N12         5.2270   -1.3790   -4.1990 ny        1 M87     -0.768000
     11 C11         5.4590   -2.7800   -4.6920 c3        1 M87      0.174100
     12 C08         6.1980   -2.7590   -5.9860 ca        1 M87     -0.169300
     13 C07         7.6130   -2.8190   -5.9700 ca        1 M87     -0.163000
     14 C06         8.3090   -2.8290   -7.1560 ca        1 M87     -0.057000
     15 C09         5.4990   -2.7050   -7.1730 ca        1 M87     -0.147300
     16 C10         6.1990   -2.7030   -8.4240 ca        1 M87      0.453600
     17 N01         5.4730   -2.6430   -9.5860 nb        1 M87     -0.761000
     18 C05         7.6260   -2.7700   -8.3920 ca        1 M87     -0.178300
     19 C04         8.3130   -2.7820   -9.6440 ca        1 M87     -0.050000
     20 C03         7.6100   -2.7220  -10.8100 ca        1 M87     -0.260300
     21 C02         6.1520   -2.6410  -10.7590 ca        1 M87      0.704200
     22 N02         5.4580   -2.5160  -11.9420 nv        1 M87     -0.954500
     23 H24         1.3550   -0.1190    2.1610 ha        1 M87      0.169000
     24 H22         1.5640   -0.4010   -2.1600 ha        1 M87      0.145000
     25 H25         3.8140    0.3410    2.2430 ha        1 M87      0.157000
     26 H26         5.1470    0.4220    0.1460 ha        1 M87      0.140000
     27 H141        5.2130    0.5870   -2.2130 hc        1 M87      0.071700
     28 H142        3.6680    0.6640   -3.1630 hc        1 M87      0.071700
     29 H131        3.4920   -1.8760   -3.0660 hx        1 M87      0.108700
     30 H132        5.0760   -1.9370   -2.1500 hx        1 M87      0.108700
     31 H12         6.1340   -0.9120   -4.0830 hn        1 M87      0.449300
     32 H111        6.0450   -3.3290   -3.9000 hx        1 M87      0.107700
     33 H112        4.4510   -3.2740   -4.8060 hx        1 M87      0.107700
     34 H07         8.1460   -2.8810   -5.0100 ha        1 M87      0.136000
     35 H09         4.3970   -2.6790   -7.1830 ha        1 M87      0.151000
     36 H06         9.4090   -2.8880   -7.1590 ha        1 M87      0.153000
     37 H04         9.4140   -2.8420   -9.6450 ha        1 M87      0.155000
     38 H03         8.1190   -2.7300  -11.7850 ha        1 M87      0.159000
     39 H021        5.9400   -2.6960  -12.7880 hn        1 M87      0.445300
     40 H022        4.4670   -2.5550  -11.9460 hn        1 M87      0.445300
     41 H122        4.7020   -0.8590   -4.9120 hn        1 M87      0.449300
@<TRIPOS>BOND
     1    1    2 1   
     2    2    3 ar  
     3    2    6 ar  
     4    3    4 ar  
     5    3   23 1   
     6    4    5 ar  
     7    4   25 1   
     8    5    7 ar  
     9    5   26 1   
    10    6    7 ar  
    11    6   24 1   
    12    7    8 1   
    13    8    9 1   
    14    8   27 1   
    15    8   28 1   
    16    9   10 1   
    17    9   29 1   
    18    9   30 1   
    19   10   11 1   
    20   10   31 1   
    21   10   41 1   
    22   11   12 1   
    23   11   32 1   
    24   11   33 1   
    25   12   13 ar  
    26   12   15 ar  
    27   13   14 ar  
    28   13   34 1   
    29   14   18 ar  
    30   14   36 1   
    31   15   16 ar  
    32   15   35 1   
    33   16   17 ar  
    34   16   18 ar  
    35   17   21 ar  
    36   18   19 ar  
    37   19   20 ar  
    38   19   37 1   
    39   20   21 ar  
    40   20   38 1   
    41   21   22 1   
    42   22   39 1   
    43   22   40 1   
@<TRIPOS>SUBSTRUCTURE
     1 M87         1 TEMP              0 ****  ****    0 ROOT
