@<TRIPOS>MOLECULE
M8A
   52    54     1     0     0
SMALL
bcc


@<TRIPOS>ATOM
      1 OAA         1.7010    1.4060   -0.7820 o         1 M8A     -0.527100
      2 CAD         2.1960    0.3340   -0.4320 c         1 M8A      0.563900
      3 CAN         2.8420    0.1310    0.9020 c3        1 M8A     -0.202400
      4 CAP         2.7810   -1.3200    1.3380 c3        1 M8A     -0.025100
      5 CAX         3.4280   -1.5200    2.6620 ca        1 M8A     -0.115300
      6 CAK         2.7990   -1.0850    3.8320 ca        1 M8A     -0.101000
      7 CAM         3.3840   -1.2720    5.0800 ca        1 M8A     -0.167000
      8 CAJ         4.6700   -2.1550    2.7630 ca        1 M8A     -0.101000
      9 CAL         5.2720   -2.3520    3.9980 ca        1 M8A     -0.167000
     10 CAZ         4.6380   -1.9110    5.1870 ca        1 M8A      0.071600
     11 NAT         5.2930   -2.1340    6.4080 ns        1 M8A     -0.461100
     12 C           4.8520   -1.7860    7.6700 c         1 M8A      0.668100
     13 O           3.7940   -1.1720    7.8940 o         1 M8A     -0.593100
     14 CA          5.8050   -2.1710    8.8330 c3        1 M8A      0.020700
     15 CB          5.2680   -1.6650   10.1890 c3        1 M8A     -0.089400
     16 CG          5.0940   -2.8890   11.0800 c3        1 M8A     -0.095400
     17 CD          5.4870   -4.1080   10.2330 c3        1 M8A      0.078000
     18 N           5.9590   -3.6230    8.9410 n         1 M8A     -0.414800
     19 CAW         7.0410   -4.2190    8.3080 c         1 M8A      0.731100
     20 OAC         7.6680   -3.7650    7.3300 o         1 M8A     -0.609000
     21 OAU         7.3710   -5.4680    8.7820 os        1 M8A     -0.426900
     22 CAS         8.4030   -6.1460    8.0300 c3        1 M8A      0.195700
     23 CAY         8.6260   -7.4660    8.6850 ca        1 M8A     -0.101300
     24 CAH         7.5470   -8.2470    9.1140 ca        1 M8A     -0.109500
     25 CAF         7.7740   -9.4970    9.6880 ca        1 M8A     -0.131500
     26 CAE         9.0770   -9.9740    9.8310 ca        1 M8A     -0.121000
     27 CAG        10.1540   -9.1970    9.4050 ca        1 M8A     -0.131500
     28 CAI         9.9320   -7.9440    8.8370 ca        1 M8A     -0.109500
     29 HAN1        3.9130    0.4630    0.8230 hc        1 M8A      0.078700
     30 HAN2        2.3510    0.7850    1.6720 hc        1 M8A      0.078700
     31 HAD         2.1970   -0.5510   -1.1080 h4        1 M8A     -0.007800
     32 HAP1        3.2800   -1.9640    0.5650 hc        1 M8A      0.048700
     33 HAP2        1.7070   -1.6440    1.3970 hc        1 M8A      0.048700
     34 HAK         1.8200   -0.5850    3.7680 ha        1 M8A      0.132500
     35 HAJ         5.1810   -2.5070    1.8530 ha        1 M8A      0.132500
     36 HAM         2.8550   -0.9140    5.9780 ha        1 M8A      0.154500
     37 HAL         6.2500   -2.8570    4.0430 ha        1 M8A      0.154500
     38 HAT         6.1700   -2.6160    6.3420 hn        1 M8A      0.347500
     39 HA          6.8030   -1.6870    8.6110 h1        1 M8A      0.082700
     40 HB1C        4.2950   -1.1270   10.0540 hc        1 M8A      0.078200
     41 HB2C        6.0010   -0.9470   10.6320 hc        1 M8A      0.078200
     42 HG1C        5.7450   -2.8200   11.9860 hc        1 M8A      0.059200
     43 HG2C        4.0350   -2.9850   11.4240 hc        1 M8A      0.059200
     44 HD1C        6.2760   -4.7240   10.7460 h1        1 M8A      0.066700
     45 HD2C        4.5950   -4.7670   10.0420 h1        1 M8A      0.066700
     46 HAS1        8.0460   -6.2720    6.9730 h1        1 M8A      0.065700
     47 HAS2        9.3260   -5.5080    8.0370 h1        1 M8A      0.065700
     48 HAH         6.5220   -7.8620    9.0010 ha        1 M8A      0.138000
     49 HAI        10.7850   -7.3310    8.5080 ha        1 M8A      0.138000
     50 HAF         6.9230  -10.1070   10.0260 ha        1 M8A      0.134500
     51 HAE         9.2550  -10.9620   10.2800 ha        1 M8A      0.134000
     52 HAG        11.1820   -9.5720    9.5180 ha        1 M8A      0.134500
@<TRIPOS>BOND
     1    1    2 2   
     2    2    3 1   
     3    2   31 1   
     4    3    4 1   
     5    3   29 1   
     6    3   30 1   
     7    4    5 1   
     8    4   32 1   
     9    4   33 1   
    10    5    6 ar  
    11    5    8 ar  
    12    6    7 ar  
    13    6   34 1   
    14    7   10 ar  
    15    7   36 1   
    16    8    9 ar  
    17    8   35 1   
    18    9   10 ar  
    19    9   37 1   
    20   10   11 1   
    21   11   12 1   
    22   11   38 1   
    23   12   13 2   
    24   12   14 1   
    25   14   15 1   
    26   14   18 1   
    27   14   39 1   
    28   15   16 1   
    29   15   40 1   
    30   15   41 1   
    31   16   17 1   
    32   16   42 1   
    33   16   43 1   
    34   17   18 1   
    35   17   44 1   
    36   17   45 1   
    37   18   19 1   
    38   19   20 2   
    39   19   21 1   
    40   21   22 1   
    41   22   23 1   
    42   22   46 1   
    43   22   47 1   
    44   23   24 ar  
    45   23   28 ar  
    46   24   25 ar  
    47   24   48 1   
    48   25   26 ar  
    49   25   50 1   
    50   26   27 ar  
    51   26   51 1   
    52   27   28 ar  
    53   27   52 1   
    54   28   49 1   
@<TRIPOS>SUBSTRUCTURE
     1 M8A         1 TEMP              0 ****  ****    0 ROOT
