@<TRIPOS>MOLECULE
M8A
   52    54     1     0     0
SMALL
bcc


@<TRIPOS>ATOM
      1 OAA         1.6820    1.3960   -0.7800 o         1 M8A     -0.527100
      2 CAD         2.1870    0.3280   -0.4330 c         1 M8A      0.563900
      3 CAN         2.8310    0.1260    0.9030 c3        1 M8A     -0.202400
      4 CAP         2.7810   -1.3270    1.3330 c3        1 M8A     -0.025100
      5 CAX         3.4250   -1.5260    2.6590 ca        1 M8A     -0.115300
      6 CAK         2.7880   -1.0990    3.8280 ca        1 M8A     -0.101000
      7 CAM         3.3710   -1.2850    5.0770 ca        1 M8A     -0.167000
      8 CAJ         4.6710   -2.1530    2.7630 ca        1 M8A     -0.101000
      9 CAL         5.2700   -2.3490    3.9990 ca        1 M8A     -0.167000
     10 CAZ         4.6280   -1.9150    5.1870 ca        1 M8A      0.071600
     11 NAT         5.2810   -2.1370    6.4100 n         1 M8A     -0.461100
     12 C           4.8330   -1.7960    7.6710 c         1 M8A      0.668100
     13 O           3.7700   -1.1910    7.8940 o         1 M8A     -0.593100
     14 CA          5.7850   -2.1770    8.8370 c3        1 M8A      0.020700
     15 CB          5.2400   -1.6790   10.1920 c3        1 M8A     -0.089400
     16 CG          5.0710   -2.9070   11.0790 c3        1 M8A     -0.095400
     17 CD          5.4770   -4.1200   10.2300 c3        1 M8A      0.078000
     18 N           5.9500   -3.6280    8.9410 n         1 M8A     -0.414800
     19 CAW         7.0390   -4.2140    8.3100 c         1 M8A      0.731100
     20 OAC         7.6660   -3.7530    7.3360 o         1 M8A     -0.609000
     21 OAU         7.3770   -5.4610    8.7820 os        1 M8A     -0.426900
     22 CAS         8.4170   -6.1290    8.0320 c3        1 M8A      0.195700
     23 CAY         8.6490   -7.4490    8.6850 ca        1 M8A     -0.101300
     24 CAH         7.5770   -8.2390    9.1110 ca        1 M8A     -0.109500
     25 CAF         7.8130   -9.4880    9.6840 ca        1 M8A     -0.131500
     26 CAE         9.1200   -9.9540    9.8300 ca        1 M8A     -0.121000
     27 CAG        10.1910   -9.1660    9.4080 ca        1 M8A     -0.131500
     28 CAI         9.9600   -7.9140    8.8410 ca        1 M8A     -0.109500
     29 HAN1        2.3320    0.7730    1.6730 hc        1 M8A      0.078700
     30 HAN2        3.8990    0.4680    0.8280 hc        1 M8A      0.078700
     31 HAD         2.2000   -0.5550   -1.1130 h4        1 M8A     -0.007800
     32 HAP1        1.7100   -1.6610    1.3870 hc        1 M8A      0.048700
     33 HAP2        3.2890   -1.9640    0.5600 hc        1 M8A      0.048700
     34 HAK         1.8060   -0.6060    3.7630 ha        1 M8A      0.132500
     35 HAJ         5.1880   -2.4990    1.8540 ha        1 M8A      0.132500
     36 HAM         2.8360   -0.9340    5.9750 ha        1 M8A      0.154500
     37 HAL         6.2520   -2.8460    4.0460 ha        1 M8A      0.154500
     38 HAT         6.1620   -2.6120    6.3460 hn        1 M8A      0.347500
     39 HA          6.7800   -1.6850    8.6190 h1        1 M8A      0.082700
     40 HB1C        4.2630   -1.1470   10.0550 hc        1 M8A      0.078200
     41 HB2C        5.9660   -0.9570   10.6400 hc        1 M8A      0.078200
     42 HG1C        4.0110   -3.0120   11.4170 hc        1 M8A      0.059200
     43 HG2C        5.7170   -2.8350   11.9880 hc        1 M8A      0.059200
     44 HD1C        6.2690   -4.7310   10.7440 h1        1 M8A      0.066700
     45 HD2C        4.5920   -4.7860   10.0340 h1        1 M8A      0.066700
     46 HAS1        8.0630   -6.2570    6.9740 h1        1 M8A      0.065700
     47 HAS2        9.3350   -5.4840    8.0420 h1        1 M8A      0.065700
     48 HAH         6.5480   -7.8640    8.9960 ha        1 M8A      0.138000
     49 HAI        10.8080   -7.2930    8.5150 ha        1 M8A      0.138000
     50 HAF         6.9670  -10.1060   10.0190 ha        1 M8A      0.134500
     51 HAE         9.3060  -10.9410   10.2790 ha        1 M8A      0.134000
     52 HAG        11.2220   -9.5320    9.5240 ha        1 M8A      0.134500
@<TRIPOS>BOND
     1    1    2 2   
     2    2    3 1   
     3    2   31 1   
     4    3    4 1   
     5    3   29 1   
     6    3   30 1   
     7    4    5 1   
     8    4   32 1   
     9    4   33 1   
    10    5    6 ar  
    11    5    8 ar  
    12    6    7 ar  
    13    6   34 1   
    14    7   10 ar  
    15    7   36 1   
    16    8    9 ar  
    17    8   35 1   
    18    9   10 ar  
    19    9   37 1   
    20   10   11 1   
    21   11   12 1   
    22   11   38 1   
    23   12   13 2   
    24   12   14 1   
    25   14   15 1   
    26   14   18 1   
    27   14   39 1   
    28   15   16 1   
    29   15   40 1   
    30   15   41 1   
    31   16   17 1   
    32   16   42 1   
    33   16   43 1   
    34   17   18 1   
    35   17   44 1   
    36   17   45 1   
    37   18   19 1   
    38   19   20 2   
    39   19   21 1   
    40   21   22 1   
    41   22   23 1   
    42   22   46 1   
    43   22   47 1   
    44   23   24 ar  
    45   23   28 ar  
    46   24   25 ar  
    47   24   48 1   
    48   25   26 ar  
    49   25   50 1   
    50   26   27 ar  
    51   26   51 1   
    52   27   28 ar  
    53   27   52 1   
    54   28   49 1   
@<TRIPOS>SUBSTRUCTURE
     1 M8A         1 TEMP              0 ****  ****    0 ROOT
