@<TRIPOS>MOLECULE
M8C
   26    26     1     0     0
SMALL
bcc


@<TRIPOS>ATOM
      1 C1          1.4230    0.4180   -4.1670 c3        1 M8C      0.346900
      2 C2          1.9780   -0.9130   -4.7120 c3        1 M8C      0.047100
      3 C3          1.2970   -2.1090   -4.0240 c3        1 M8C      0.084100
      4 O4          2.6870   -2.1650   -2.0580 oh        1 M8C     -0.599800
      5 C5          0.7810   -0.5910   -2.0990 c3        1 M8C      0.066100
      6 C6          0.9940   -0.3440   -0.6200 c         1 M8C      0.639100
      7 O6A         2.0530   -0.1500   -0.0270 o         1 M8C     -0.515000
      8 O6B        -0.1750   -0.3730    0.0840 os        1 M8C     -0.429900
      9 CH3        -0.0770   -0.1560    1.4940 c3        1 M8C      0.124700
     10 O5          1.4870    0.4670   -2.7560 os        1 M8C     -0.396600
     11 C4          1.3560   -1.9600   -2.4950 c3        1 M8C      0.090100
     12 O3          1.8990   -3.3090   -4.4570 oh        1 M8C     -0.594800
     13 O2          1.7070   -0.9130   -6.1030 oh        1 M8C     -0.605800
     14 O1          0.0580    0.5980   -4.4550 oh        1 M8C     -0.621800
     15 H1          2.0330    1.3010   -4.5110 h2        1 M8C      0.099700
     16 H2          3.0880   -0.9570   -4.5370 h1        1 M8C      0.064700
     17 H3          0.2250   -2.1770   -4.3640 h1        1 M8C      0.094700
     18 HO4         3.1000   -1.2980   -1.9310 ho        1 M8C      0.433000
     19 H5         -0.3120   -0.5370   -2.3610 h1        1 M8C      0.111700
     20 HH31       -1.1380   -0.2170    1.8420 h1        1 M8C      0.055700
     21 HH32        0.3630    0.8510    1.6930 h1        1 M8C      0.055700
     22 HH33        0.5550   -0.9510    1.9570 h1        1 M8C      0.055700
     23 H4          0.7580   -2.7870   -2.0160 h1        1 M8C      0.097700
     24 HO3         2.7170   -3.4250   -3.9500 ho        1 M8C      0.426000
     25 HO2         1.8770   -1.8120   -6.4180 ho        1 M8C      0.432000
     26 HO1        -0.0790    0.3390   -5.3770 ho        1 M8C      0.438000
@<TRIPOS>BOND
     1    1    2 1   
     2    1   10 1   
     3    1   14 1   
     4    1   15 1   
     5    2    3 1   
     6    2   13 1   
     7    2   16 1   
     8    3   11 1   
     9    3   12 1   
    10    3   17 1   
    11    4   11 1   
    12    4   18 1   
    13    5    6 1   
    14    5   10 1   
    15    5   11 1   
    16    5   19 1   
    17    6    7 2   
    18    6    8 1   
    19    8    9 1   
    20    9   20 1   
    21    9   21 1   
    22    9   22 1   
    23   11   23 1   
    24   12   24 1   
    25   13   25 1   
    26   14   26 1   
@<TRIPOS>SUBSTRUCTURE
     1 M8C         1 TEMP              0 ****  ****    0 ROOT
