@<TRIPOS>MOLECULE
M8C
   26    26     1     0     0
SMALL
bcc


@<TRIPOS>ATOM
      1 C1         -0.5170    0.1140   -1.7910 c3        1 M8C      0.304900
      2 C2          0.9880    0.1530   -1.8870 c3        1 M8C      0.130100
      3 C3          1.6560    0.1560   -0.5570 c3        1 M8C      0.103100
      4 O4          1.7650   -0.7720    1.6230 oh        1 M8C     -0.586800
      5 C5         -0.3610   -0.9680    0.4720 c3        1 M8C      0.088100
      6 C6         -0.8500    0.1350    1.3020 c         1 M8C      0.612100
      7 O6A        -0.0830    0.7460    2.0030 o         1 M8C     -0.563000
      8 O6B        -2.2160    0.3620    1.4100 os        1 M8C     -0.417900
      9 CH3        -2.6320    0.7080    2.6900 c3        1 M8C      0.121700
     10 O5         -1.0040   -0.9560   -0.9370 os        1 M8C     -0.429600
     11 C4          1.1800   -0.9370    0.3250 c3        1 M8C      0.092100
     12 O3          1.3990    1.4140    0.0850 oh        1 M8C     -0.604800
     13 O2          1.4300   -1.0000   -2.6210 oh        1 M8C     -0.597800
     14 O1         -1.0490   -0.0640   -3.0870 oh        1 M8C     -0.607800
     15 H1         -0.8330    0.9740   -1.4330 h2        1 M8C      0.075700
     16 H2          1.2520    0.9560   -2.3720 h1        1 M8C      0.073700
     17 H3          2.6320    0.0570   -0.6900 h1        1 M8C      0.080700
     18 HO4         2.2200   -1.4930    1.8290 ho        1 M8C      0.424000
     19 H5         -0.6500   -1.7250    0.9800 h1        1 M8C      0.120700
     20 HH31       -3.6030    0.6680    2.7350 h1        1 M8C      0.056033
     21 HH32       -2.2550    0.0940    3.3290 h1        1 M8C      0.056033
     22 HH33       -2.3380    1.6000    2.8930 h1        1 M8C      0.056033
     23 H4          1.4760   -1.7900   -0.0460 h1        1 M8C      0.119700
     24 HO3         2.1890    1.8750    0.1840 ho        1 M8C      0.421000
     25 HO2         2.0120   -0.7450   -3.2600 ho        1 M8C      0.432000
     26 HO1        -1.8090    0.4390   -3.1800 ho        1 M8C      0.440000
@<TRIPOS>BOND
     1    1    2 1   
     2    1   10 1   
     3    1   14 1   
     4    1   15 1   
     5    2    3 1   
     6    2   13 1   
     7    2   16 1   
     8    3   11 1   
     9    3   12 1   
    10    3   17 1   
    11    4   11 1   
    12    4   18 1   
    13    5    6 1   
    14    5   10 1   
    15    5   11 1   
    16    5   19 1   
    17    6    7 2   
    18    6    8 1   
    19    8    9 1   
    20    9   20 1   
    21    9   21 1   
    22    9   22 1   
    23   11   23 1   
    24   12   24 1   
    25   13   25 1   
    26   14   26 1   
@<TRIPOS>SUBSTRUCTURE
     1 M8C         1 TEMP              0 ****  ****    0 ROOT
