@<TRIPOS>MOLECULE
M8E
   57    59     1     0     0
SMALL
bcc


@<TRIPOS>ATOM
      1 N1          1.9070   -3.2760    3.4500 n4        1 M8E     -0.603100
      2 O1          2.4030   -2.0300    3.2200 os        1 M8E     -0.236100
      3 C6          4.1860    0.1300    4.6670 c3        1 M8E     -0.111400
      4 C7          5.4020    0.6330    3.8910 c3        1 M8E      0.114800
      5 N2          6.6790    0.5240    4.6680 n4        1 M8E     -0.671400
      6 C8          6.8580    1.6870    5.5750 c3        1 M8E      0.080100
      7 C5'         7.8590    0.3620    3.7570 c3        1 M8E      0.101800
      8 C4'         9.1200   -0.1160    4.4970 c3        1 M8E      0.084100
      9 O4'         8.7730   -1.1110    5.4610 os        1 M8E     -0.434600
     10 C1'         9.4780   -2.3470    5.2350 c3        1 M8E      0.260800
     11 N6          8.5630   -3.4560    5.1420 na        1 M8E     -0.281000
     12 C13         7.2600   -3.4960    4.6380 ca        1 M8E      0.459800
     13 N3          6.4940   -2.5440    4.0110 nb        1 M8E     -0.793000
     14 C9          5.2760   -3.0030    3.6590 ca        1 M8E      0.662900
     15 N4          4.6880   -4.2140    3.8540 nb        1 M8E     -0.899000
     16 C10         5.4500   -5.1900    4.4690 ca        1 M8E      0.783200
     17 N7          4.9530   -6.4360    4.7160 nh        1 M8E     -0.929500
     18 C11         6.7830   -4.8480    4.8890 ca        1 M8E     -0.195200
     19 N5          7.7750   -5.6010    5.5240 nc        1 M8E     -0.527100
     20 C12         8.8290   -4.7680    5.6730 cd        1 M8E      0.511100
     21 C2'        10.3890   -2.1510    3.9810 c3        1 M8E      0.077100
     22 O2'        11.7090   -2.3060    4.4580 oh        1 M8E     -0.587800
     23 C3'        10.1520   -0.7010    3.5070 c3        1 M8E      0.104100
     24 O3'        11.3250    0.0650    3.4850 oh        1 M8E     -0.562800
     25 C5          2.9480    0.1750    3.7900 c3        1 M8E     -0.090400
     26 C4          1.9720   -0.9440    4.1110 c3        1 M8E      0.105400
     27 C15        10.2850   -6.1420    7.0910 c2        1 M8E     -0.094000
     28 C14        10.1230   -5.1120    6.2560 cf        1 M8E     -0.269600
     29 HN1         2.1390   -3.5980    4.4050 hn        1 M8E      0.485800
     30 HN1A        0.8860   -3.2990    3.2950 hn        1 M8E      0.485800
     31 H6          4.0190    0.7580    5.5830 hc        1 M8E      0.073200
     32 H6A         4.3710   -0.9240    5.0110 hc        1 M8E      0.073200
     33 H7          5.2580    1.7120    3.5960 hx        1 M8E      0.106700
     34 H7A         5.5130    0.0170    2.9500 hx        1 M8E      0.106700
     35 H8          6.9980    2.6260    4.9740 hx        1 M8E      0.106367
     36 H8A         7.7660    1.5120    6.2160 hx        1 M8E      0.106367
     37 H8B         5.9520    1.7920    6.2300 hx        1 M8E      0.106367
     38 H5'         7.5840   -0.3900    2.9630 hx        1 M8E      0.114700
     39 H5'A        8.0790    1.3520    3.2670 hx        1 M8E      0.114700
     40 H4'         9.5740    0.7360    5.0810 h1        1 M8E      0.102700
     41 H1'        10.1170   -2.5010    6.1630 h2        1 M8E      0.138700
     42 H9          4.6470   -2.2690    3.1070 h5        1 M8E      0.026100
     43 HN7         5.5620   -7.1220    5.1030 hn        1 M8E      0.461800
     44 HN7A        4.1010   -6.7390    4.3110 hn        1 M8E      0.461800
     45 H2'        10.1670   -2.8830    3.1610 h1        1 M8E      0.093700
     46 HO2'       12.2920   -2.3760    3.6870 ho        1 M8E      0.447000
     47 H3'         9.7750   -0.6730    2.4470 h1        1 M8E      0.106700
     48 HO3'       11.8230   -0.1010    4.3020 ho        1 M8E      0.436000
     49 H5          3.2270    0.1120    2.7010 hc        1 M8E      0.100200
     50 H5A         2.4070    1.1500    3.9360 hc        1 M8E      0.100200
     51 H4          0.9210   -0.6690    3.8310 h1        1 M8E      0.089700
     52 H4A         2.0310   -1.2740    5.1800 h1        1 M8E      0.089700
     53 H15         9.4640   -6.7960    7.4190 ha        1 M8E      0.145500
     54 H15A       11.2770   -6.3910    7.5010 ha        1 M8E      0.145500
     55 H14        10.9740   -4.4830    5.9400 ha        1 M8E      0.155000
     56 H13         2.3930   -3.8880    2.7570 hn        1 M8E      0.485800
     57 H21         6.6390   -0.3320    5.2500 hn        1 M8E      0.477800
@<TRIPOS>BOND
     1    1    2 1   
     2    1   29 1   
     3    1   30 1   
     4    1   56 1   
     5    2   26 1   
     6    3    4 1   
     7    3   25 1   
     8    3   31 1   
     9    3   32 1   
    10    4    5 1   
    11    4   33 1   
    12    4   34 1   
    13    5    6 1   
    14    5    7 1   
    15    5   57 1   
    16    6   35 1   
    17    6   36 1   
    18    6   37 1   
    19    7    8 1   
    20    7   38 1   
    21    7   39 1   
    22    8    9 1   
    23    8   23 1   
    24    8   40 1   
    25    9   10 1   
    26   10   11 1   
    27   10   21 1   
    28   10   41 1   
    29   11   12 1   
    30   11   20 1   
    31   12   13 ar  
    32   12   18 ar  
    33   13   14 ar  
    34   14   15 ar  
    35   14   42 1   
    36   15   16 ar  
    37   16   17 1   
    38   16   18 ar  
    39   17   43 1   
    40   17   44 1   
    41   18   19 1   
    42   19   20 2   
    43   20   28 1   
    44   21   22 1   
    45   21   23 1   
    46   21   45 1   
    47   22   46 1   
    48   23   24 1   
    49   23   47 1   
    50   24   48 1   
    51   25   26 1   
    52   25   49 1   
    53   25   50 1   
    54   26   51 1   
    55   26   52 1   
    56   27   28 2   
    57   27   53 1   
    58   27   54 1   
    59   28   55 1   
@<TRIPOS>SUBSTRUCTURE
     1 M8E         1 TEMP              0 ****  ****    0 ROOT
