@<TRIPOS>MOLECULE
M8E
   57    59     1     0     0
SMALL
bcc


@<TRIPOS>ATOM
      1 N1          1.9260   -3.1110    3.1850 nz        1 M8E     -0.617100
      2 O1          1.3250   -1.9090    3.4300 os        1 M8E     -0.203100
      3 C6          4.2330   -0.0110    4.6680 c3        1 M8E     -0.111400
      4 C7          5.4260    0.5900    3.9250 c3        1 M8E      0.115800
      5 N2          6.6950    0.5300    4.7220 nx        1 M8E     -0.671400
      6 C8          6.8110    1.6960    5.6360 c3        1 M8E      0.080100
      7 C5'         7.9020    0.4140    3.8370 c3        1 M8E      0.101800
      8 C4'         9.1420   -0.1000    4.5890 c3        1 M8E      0.084100
      9 O4'         8.7690   -1.1250    5.5120 os        1 M8E     -0.437600
     10 C1'         9.4730   -2.3570    5.2630 c3        1 M8E      0.259800
     11 N6          8.5500   -3.4550    5.1220 na        1 M8E     -0.277000
     12 C13         7.2750   -3.4670    4.5490 ca        1 M8E      0.452800
     13 N3          6.5740   -2.5000    3.8710 nb        1 M8E     -0.783000
     14 C9          5.3650   -2.9280    3.4610 ca        1 M8E      0.653900
     15 N4          4.7260   -4.1150    3.6430 nb        1 M8E     -0.903000
     16 C10         5.4250   -5.1080    4.3040 ca        1 M8E      0.785200
     17 N7          4.8790   -6.3350    4.5360 nv        1 M8E     -0.926500
     18 C11         6.7460   -4.8010    4.7900 ca        1 M8E     -0.190200
     19 N5          7.6810   -5.5720    5.4840 nc        1 M8E     -0.527100
     20 C12         8.7490   -4.7670    5.6810 cd        1 M8E      0.516100
     21 C2'        10.4090   -2.1280    4.0340 c3        1 M8E      0.079100
     22 O2'        11.7180   -2.3080    4.5300 oh        1 M8E     -0.587800
     23 C3'        10.1910   -0.6610    3.6030 c3        1 M8E      0.104100
     24 O3'        11.3700    0.0960    3.6310 oh        1 M8E     -0.561800
     25 C5          3.0600   -0.1890    3.7220 c3        1 M8E     -0.119400
     26 C4          1.9510   -0.9980    4.3700 c3        1 M8E      0.095400
     27 C15        10.0860   -6.1690    7.1860 c2        1 M8E     -0.091000
     28 C14         9.9990   -5.1420    6.3360 cf        1 M8E     -0.270600
     29 HN1         2.2310   -3.5760    4.0560 hn        1 M8E      0.483800
     30 HN1A        2.7330   -2.9920    2.5490 hn        1 M8E      0.483800
     31 H6          3.9300    0.6590    5.5180 hc        1 M8E      0.075200
     32 H6A         4.5130   -1.0080    5.1070 hc        1 M8E      0.075200
     33 H7          5.2200    1.6670    3.6660 hx        1 M8E      0.106700
     34 H7A         5.5880    0.0200    2.9640 hx        1 M8E      0.106700
     35 H8          5.8970    1.7510    6.2840 hx        1 M8E      0.107033
     36 H8A         6.9090    2.6430    5.0400 hx        1 M8E      0.107033
     37 H8B         7.7230    1.5630    6.2810 hx        1 M8E      0.107033
     38 H5'         7.6540   -0.2950    2.9950 hx        1 M8E      0.115700
     39 H5'A        8.1350    1.4290    3.4040 hx        1 M8E      0.115700
     40 H4'         9.5890    0.7280    5.2110 h1        1 M8E      0.103700
     41 H1'        10.0930   -2.5420    6.1990 h2        1 M8E      0.139700
     42 H9          4.7980   -2.1850    2.8590 h5        1 M8E      0.006100
     43 HN7         5.4470   -7.0360    4.9590 hn        1 M8E      0.463800
     44 HN7A        4.0410   -6.6170    4.0880 hn        1 M8E      0.463800
     45 H2'        10.1970   -2.8320    3.1870 h1        1 M8E      0.094700
     46 HO2'       12.3150   -2.3620    3.7690 ho        1 M8E      0.448000
     47 H3'         9.8380   -0.5970    2.5360 h1        1 M8E      0.106700
     48 HO3'       11.8510   -0.1020    4.4510 ho        1 M8E      0.436000
     49 H5          3.3920   -0.6800    2.7680 hc        1 M8E      0.080200
     50 H5A         2.6570    0.8200    3.4300 hc        1 M8E      0.080200
     51 H4          2.2830   -1.5450    5.2910 h1        1 M8E      0.117700
     52 H4A         1.0560   -0.3500    4.6180 h1        1 M8E      0.117700
     53 H15         9.2300   -6.7970    7.4740 ha        1 M8E      0.146500
     54 H15A       11.0470   -6.4440    7.6500 ha        1 M8E      0.146500
     55 H14        10.8850   -4.5420    6.0610 ha        1 M8E      0.156000
     56 H13         1.1950   -3.6830    2.7150 hn        1 M8E      0.483800
     57 H21         6.6780   -0.3300    5.3010 hn        1 M8E      0.474800
@<TRIPOS>BOND
     1    1    2 1   
     2    1   29 1   
     3    1   30 1   
     4    1   56 1   
     5    2   26 1   
     6    3    4 1   
     7    3   25 1   
     8    3   31 1   
     9    3   32 1   
    10    4    5 1   
    11    4   33 1   
    12    4   34 1   
    13    5    6 1   
    14    5    7 1   
    15    5   57 1   
    16    6   35 1   
    17    6   36 1   
    18    6   37 1   
    19    7    8 1   
    20    7   38 1   
    21    7   39 1   
    22    8    9 1   
    23    8   23 1   
    24    8   40 1   
    25    9   10 1   
    26   10   11 1   
    27   10   21 1   
    28   10   41 1   
    29   11   12 1   
    30   11   20 1   
    31   12   13 ar  
    32   12   18 ar  
    33   13   14 ar  
    34   14   15 ar  
    35   14   42 1   
    36   15   16 ar  
    37   16   17 1   
    38   16   18 ar  
    39   17   43 1   
    40   17   44 1   
    41   18   19 1   
    42   19   20 2   
    43   20   28 1   
    44   21   22 1   
    45   21   23 1   
    46   21   45 1   
    47   22   46 1   
    48   23   24 1   
    49   23   47 1   
    50   24   48 1   
    51   25   26 1   
    52   25   49 1   
    53   25   50 1   
    54   26   51 1   
    55   26   52 1   
    56   27   28 2   
    57   27   53 1   
    58   27   54 1   
    59   28   55 1   
@<TRIPOS>SUBSTRUCTURE
     1 M8E         1 TEMP              0 ****  ****    0 ROOT
