@<TRIPOS>MOLECULE
M8E
   58    60     1     0     0
SMALL
bcc


@<TRIPOS>ATOM
      1 N1         -0.1020    1.0400   -0.1730 n4        1 M8E     -0.612100
      2 O1          1.2000    0.7220    0.0690 os        1 M8E     -0.212100
      3 C6          3.6970    0.1030    2.7470 c3        1 M8E     -0.100400
      4 C7          5.2090   -0.0630    2.5970 c3        1 M8E      0.105800
      5 N2          5.9560   -0.2160    3.8930 n4        1 M8E     -0.679400
      6 C8          5.9630    1.0570    4.6620 c3        1 M8E      0.075100
      7 C5'         7.3530   -0.6930    3.5990 c3        1 M8E      0.112800
      8 C4'         8.2450   -0.8310    4.8290 c3        1 M8E      0.072100
      9 O4'         7.7910   -1.9310    5.6220 os        1 M8E     -0.446600
     10 C1'         8.9320   -2.4550    6.3660 c3        1 M8E      0.244800
     11 N6          8.7800   -3.8670    6.5860 na        1 M8E     -0.274000
     12 C13         8.5850   -4.4390    7.8590 ca        1 M8E      0.464800
     13 N3          8.3850   -3.8800    9.0760 nb        1 M8E     -0.629000
     14 C9          8.2590   -4.7820   10.0860 ca        1 M8E      0.687900
     15 N4          8.3140   -6.1430   10.0180 nb        1 M8E     -0.659000
     16 C10         8.5150   -6.6930    8.7940 ca        1 M8E      0.530200
     17 N7          8.6100   -8.1590    8.6750 n4        1 M8E     -0.817300
     18 C11         8.6500   -5.8970    7.6390 ca        1 M8E     -0.122200
     19 N5          8.8510   -6.1720    6.2860 nc        1 M8E     -0.578100
     20 C12         8.9260   -4.9620    5.6740 cd        1 M8E      0.561100
     21 C2'        10.2210   -2.0340    5.5750 c3        1 M8E      0.081100
     22 O2'        10.9850   -1.2580    6.4700 oh        1 M8E     -0.584800
     23 C3'         9.7120   -1.1290    4.4280 c3        1 M8E      0.114100
     24 O3'        10.4310    0.0560    4.2520 oh        1 M8E     -0.564800
     25 C5          3.0850    0.2340    1.3630 c3        1 M8E     -0.090400
     26 C4          1.5980    0.5420    1.4690 c3        1 M8E      0.104400
     27 C15         9.5490   -5.7230    3.4210 c2        1 M8E     -0.069000
     28 C14         9.1260   -4.7570    4.2440 cf        1 M8E     -0.286600
     29 HN1        -0.3530    1.9440    0.2640 hn        1 M8E      0.489800
     30 HN1A       -0.7370    0.2930    0.1590 hn        1 M8E      0.489800
     31 H6          3.4550    1.0180    3.3500 hc        1 M8E      0.076200
     32 H6A         3.2560   -0.7830    3.2770 hc        1 M8E      0.076200
     33 H7          5.6400    0.8350    2.0660 hx        1 M8E      0.111200
     34 H7A         5.4160   -0.9820    1.9730 hx        1 M8E      0.111200
     35 H8          6.3160    0.8590    5.7110 hx        1 M8E      0.112033
     36 H8A         6.6470    1.7970    4.1660 hx        1 M8E      0.112033
     37 H8B         4.9230    1.4780    4.7070 hx        1 M8E      0.112033
     38 H5'         7.8420    0.0510    2.9030 hx        1 M8E      0.119200
     39 H5'A        7.2660   -1.6940    3.0840 hx        1 M8E      0.119200
     40 H4'         8.2260    0.1000    5.4640 h1        1 M8E      0.089700
     41 H1'         8.9230   -1.9290    7.3740 h2        1 M8E      0.145700
     42 H9          8.0950   -4.3610   11.1090 h5        1 M8E      0.114100
     43 HN7         9.5970   -8.4160    8.5360 hn        1 M8E      0.485133
     44 HN7A        8.0620   -8.4650    7.8620 hn        1 M8E      0.485133
     45 H2'        10.7920   -2.9100    5.1730 h1        1 M8E      0.098700
     46 HO2'       11.9180   -1.4930    6.3600 ho        1 M8E      0.454000
     47 H3'         9.7660   -1.6620    3.4380 h1        1 M8E      0.098700
     48 HO3'       10.7440    0.3740    5.1160 ho        1 M8E      0.447000
     49 H5          3.2270   -0.7170    0.7820 hc        1 M8E      0.092200
     50 H5A         3.5910    1.0570    0.7890 hc        1 M8E      0.092200
     51 H4          1.4060    1.4930    2.0320 h1        1 M8E      0.084700
     52 H4A         1.0220   -0.3140    1.9080 h1        1 M8E      0.084700
     53 H15         9.7930   -6.7440    3.7520 ha        1 M8E      0.153500
     54 H15A        9.6850   -5.5380    2.3430 ha        1 M8E      0.153500
     55 H14         8.8900   -3.7430    3.8790 ha        1 M8E      0.130000
     56 H13        -0.1680    1.1220   -1.2110 hn        1 M8E      0.489800
     57 H21         5.4920   -0.9360    4.4660 hn        1 M8E      0.458800
     58 H73         8.2590   -8.6240    9.5270 hn        1 M8E      0.485133
@<TRIPOS>BOND
     1    1    2 1   
     2    1   29 1   
     3    1   30 1   
     4    1   56 1   
     5    2   26 1   
     6    3    4 1   
     7    3   25 1   
     8    3   31 1   
     9    3   32 1   
    10    4    5 1   
    11    4   33 1   
    12    4   34 1   
    13    5    6 1   
    14    5    7 1   
    15    5   57 1   
    16    6   35 1   
    17    6   36 1   
    18    6   37 1   
    19    7    8 1   
    20    7   38 1   
    21    7   39 1   
    22    8    9 1   
    23    8   23 1   
    24    8   40 1   
    25    9   10 1   
    26   10   11 1   
    27   10   21 1   
    28   10   41 1   
    29   11   12 1   
    30   11   20 1   
    31   12   13 ar  
    32   12   18 ar  
    33   13   14 ar  
    34   14   15 ar  
    35   14   42 1   
    36   15   16 ar  
    37   16   17 1   
    38   16   18 ar  
    39   17   43 1   
    40   17   44 1   
    41   17   58 1   
    42   18   19 1   
    43   19   20 2   
    44   20   28 1   
    45   21   22 1   
    46   21   23 1   
    47   21   45 1   
    48   22   46 1   
    49   23   24 1   
    50   23   47 1   
    51   24   48 1   
    52   25   26 1   
    53   25   49 1   
    54   25   50 1   
    55   26   51 1   
    56   26   52 1   
    57   27   28 2   
    58   27   53 1   
    59   27   54 1   
    60   28   55 1   
@<TRIPOS>SUBSTRUCTURE
     1 M8E         1 TEMP              0 ****  ****    0 ROOT
