@<TRIPOS>MOLECULE
M8E
   55    57     1     0     0
SMALL
bcc


@<TRIPOS>ATOM
      1 N1         -8.6520    2.7920   -0.6670 n3        1 M8E     -0.658300
      2 O1         -7.8640    1.8360   -0.1330 os        1 M8E     -0.274100
      3 C6         -4.5510    0.2780   -0.7570 c3        1 M8E     -0.079400
      4 C7         -3.8450   -0.8600   -0.0200 c3        1 M8E      0.174800
      5 N2         -2.4730   -1.0780   -0.4660 n3        1 M8E     -0.731600
      6 C8         -2.3760   -1.6590   -1.7820 c3        1 M8E      0.152100
      7 C5'        -1.6900   -1.7490    0.5590 c3        1 M8E      0.177800
      8 C4'        -0.3580   -2.3590    0.1070 c3        1 M8E      0.105100
      9 O4'         0.4680   -1.3620   -0.5010 os        1 M8E     -0.404600
     10 C1'         1.8360   -1.4740   -0.0560 c3        1 M8E      0.253800
     11 N6          2.3850   -0.1690    0.1960 na        1 M8E     -0.264000
     12 C13         3.3080    0.4750   -0.6480 ca        1 M8E      0.475800
     13 N3          3.9700    0.0260   -1.7560 nb        1 M8E     -0.733000
     14 C9          4.8020    0.9570   -2.2790 ca        1 M8E      0.687900
     15 N4          5.0660    2.2270   -1.8710 nb        1 M8E     -0.793000
     16 C10         4.4150    2.6810   -0.7490 ca        1 M8E      0.756200
     17 N7          4.6680    3.9310   -0.2420 nh        1 M8E     -0.953500
     18 C11         3.4860    1.8070   -0.0870 ca        1 M8E     -0.225200
     19 N5          2.6720    1.9720    1.0370 nc        1 M8E     -0.538100
     20 C12         2.0120    0.8020    1.1830 cd        1 M8E      0.461100
     21 C2'         1.8490   -2.4290    1.1780 c3        1 M8E      0.069100
     22 O2'         2.7430   -3.4770    0.8530 oh        1 M8E     -0.587800
     23 C3'         0.4070   -2.9670    1.3000 c3        1 M8E      0.080100
     24 O3'         0.3840   -4.3760    1.2920 oh        1 M8E     -0.586800
     25 C5         -5.8880    0.5550   -0.1040 c3        1 M8E     -0.090400
     26 C4         -6.6140    1.6590   -0.8500 c3        1 M8E      0.142400
     27 C15         0.9060    1.2340    3.3370 c2        1 M8E     -0.163000
     28 C14         1.0260    0.5140    2.2200 cf        1 M8E     -0.211600
     29 HN1        -9.5430    2.3480   -0.8750 hn        1 M8E      0.341800
     30 HN1A       -8.8280    3.4670    0.0720 hn        1 M8E      0.341800
     31 H6         -3.9170    1.2030   -0.7350 hc        1 M8E      0.052700
     32 H6A        -4.7090    0.0060   -1.8330 hc        1 M8E      0.052700
     33 H7         -3.8200   -0.5990    1.0770 h1        1 M8E      0.029200
     34 H7A        -4.4670   -1.7980   -0.1280 h1        1 M8E      0.029200
     35 H8         -3.0350   -1.0870   -2.4870 h1        1 M8E      0.036367
     36 H8A        -1.3150   -1.5640   -2.1380 h1        1 M8E      0.036367
     37 H8B        -2.6780   -2.7430   -1.8160 h1        1 M8E      0.036367
     38 H5'        -1.4860   -0.9740    1.3520 h1        1 M8E      0.038700
     39 H5'A       -2.2650   -2.5980    1.0400 h1        1 M8E      0.038700
     40 H4'        -0.5380   -3.1520   -0.6740 h1        1 M8E      0.066700
     41 H1'         2.4180   -1.9430   -0.9090 h2        1 M8E      0.128700
     42 H9          5.3580    0.6380   -3.1880 h5        1 M8E      0.052100
     43 HN7         5.2250    4.5700   -0.7540 hn        1 M8E      0.444800
     44 HN7A        4.0820    4.2720    0.4790 hn        1 M8E      0.444800
     45 H2'         2.1730   -1.9150    2.1200 h1        1 M8E      0.076700
     46 HO2'        2.7830   -4.0560    1.6260 ho        1 M8E      0.422000
     47 H3'        -0.0570   -2.6840    2.2830 h1        1 M8E      0.095700
     48 HO3'        0.8120   -4.6740    0.4750 ho        1 M8E      0.418000
     49 H5         -6.5190   -0.3720   -0.1000 hc        1 M8E      0.051700
     50 H5A        -5.7430    0.8610    0.9650 hc        1 M8E      0.051700
     51 H4         -6.8240    1.3650   -1.9100 h1        1 M8E      0.041700
     52 H4A        -6.0300    2.6140   -0.8340 h1        1 M8E      0.041700
     53 H15         1.5500    2.0930    3.5730 ha        1 M8E      0.127000
     54 H15A        0.1390    1.0020    4.0880 ha        1 M8E      0.127000
     55 H14         0.3570   -0.3380    2.0020 ha        1 M8E      0.133000
@<TRIPOS>BOND
     1    1    2 1   
     2    1   29 1   
     3    1   30 1   
     4    2   26 1   
     5    3    4 1   
     6    3   25 1   
     7    3   31 1   
     8    3   32 1   
     9    4    5 1   
    10    4   33 1   
    11    4   34 1   
    12    5    6 1   
    13    5    7 1   
    14    6   35 1   
    15    6   36 1   
    16    6   37 1   
    17    7    8 1   
    18    7   38 1   
    19    7   39 1   
    20    8    9 1   
    21    8   23 1   
    22    8   40 1   
    23    9   10 1   
    24   10   11 1   
    25   10   21 1   
    26   10   41 1   
    27   11   12 1   
    28   11   20 1   
    29   12   13 ar  
    30   12   18 ar  
    31   13   14 ar  
    32   14   15 ar  
    33   14   42 1   
    34   15   16 ar  
    35   16   17 1   
    36   16   18 ar  
    37   17   43 1   
    38   17   44 1   
    39   18   19 1   
    40   19   20 2   
    41   20   28 1   
    42   21   22 1   
    43   21   23 1   
    44   21   45 1   
    45   22   46 1   
    46   23   24 1   
    47   23   47 1   
    48   24   48 1   
    49   25   26 1   
    50   25   49 1   
    51   25   50 1   
    52   26   51 1   
    53   26   52 1   
    54   27   28 2   
    55   27   53 1   
    56   27   54 1   
    57   28   55 1   
@<TRIPOS>SUBSTRUCTURE
     1 M8E         1 TEMP              0 ****  ****    0 ROOT
