@<TRIPOS>MOLECULE
M8F
   48    47     1     0     0
SMALL
bcc


@<TRIPOS>ATOM
      1 C8          1.7010   -1.2680    1.0600 c         1 M8F      0.667100
      2 O9          1.5580   -1.9870    2.0710 o         1 M8F     -0.628100
      3 O4          7.7370    1.3530   -2.2120 o         1 M8F     -0.849300
      4 C7          2.9480   -1.3550    0.2000 c3        1 M8F     -0.150400
      5 C2          7.2600    0.6860   -1.2470 c         1 M8F      0.886600
      6 C1          5.8280    1.0510   -0.7330 c3        1 M8F      0.022500
      7 C5          4.9990   -0.2320   -0.6570 c3        1 M8F     -0.065400
      8 C6          3.7050   -0.0470    0.1090 c3        1 M8F     -0.074400
      9 N1          5.1780    2.1180   -1.4850 n3        1 M8F     -0.891800
     10 N10         0.7290   -0.3590    0.6810 n         1 M8F     -0.553900
     11 C11        -0.5500   -0.2530    1.3290 c3        1 M8F      0.047700
     12 C14        -1.7210   -0.5010    0.3220 c         1 M8F      0.626100
     13 O15        -1.5580   -0.2470   -0.8950 o         1 M8F     -0.663100
     14 C12        -0.8130    1.1370    1.9250 c3        1 M8F     -0.006300
     15 S13         0.1800    1.3680    3.3750 sh        1 M8F     -0.352900
     16 N16        -2.9050   -0.9150    0.8540 n         1 M8F     -0.519900
     17 C17        -4.0770   -1.2580    0.0780 c3        1 M8F     -0.040300
     18 C22        -4.9680   -2.3300    0.8190 c         1 M8F      0.915600
     19 O24        -4.7750   -2.5300    2.0500 o         1 M8F     -0.827300
     20 C18        -4.9900   -0.0610   -0.2320 c3        1 M8F     -0.070400
     21 C19        -4.4260    0.8040   -1.3250 c3        1 M8F      0.012700
     22 S20        -5.4890    2.2200   -1.5320 ss        1 M8F     -0.358200
     23 C21        -4.6040    3.1510   -2.7250 c3        1 M8F     -0.031000
     24 O23        -5.8300   -2.9110    0.1100 o         1 M8F     -0.827300
     25 H7          3.6080   -2.1430    0.6520 hc        1 M8F      0.064700
     26 H7A         2.6560   -1.7020   -0.8270 hc        1 M8F      0.064700
     27 H1          5.9620    1.4430    0.3180 h1        1 M8F      0.042700
     28 H5          4.7750   -0.6060   -1.6900 hc        1 M8F      0.046200
     29 H5A         5.6380   -1.0060   -0.1520 hc        1 M8F      0.046200
     30 H6          3.0740    0.7300   -0.3980 hc        1 M8F      0.047200
     31 H6A         3.9310    0.3300    1.1410 hc        1 M8F      0.047200
     32 HN1         5.8900    2.7890   -1.7250 hn        1 M8F      0.329300
     33 HN1A        4.8440    1.7400   -2.3540 hn        1 M8F      0.329300
     34 HN10        0.8110    0.0950   -0.2000 hn        1 M8F      0.325500
     35 H11        -0.5880   -1.0230    2.1600 h1        1 M8F      0.112700
     36 H12        -0.5930    1.9320    1.1730 h1        1 M8F      0.069700
     37 H12A       -1.8920    1.2140    2.2040 h1        1 M8F      0.069700
     38 HS13       -0.2340    2.5810    3.6880 hs        1 M8F      0.173800
     39 HN16       -2.9400   -1.2270    1.8040 hn        1 M8F      0.337500
     40 H17        -3.7430   -1.7090   -0.9010 h1        1 M8F      0.060700
     41 H18        -5.9800   -0.4870   -0.5520 hc        1 M8F      0.061700
     42 H18A       -5.1630    0.5460    0.6950 hc        1 M8F      0.061700
     43 H19        -3.3920    1.1470   -1.0750 h1        1 M8F      0.068700
     44 H19A       -4.3700    0.2360   -2.2850 h1        1 M8F      0.068700
     45 H21        -3.5740    3.3910   -2.3760 h1        1 M8F      0.051033
     46 H21A       -4.5260    2.6080   -3.6930 h1        1 M8F      0.051033
     47 H21B       -5.1680    4.0980   -2.8820 h1        1 M8F      0.051033
     48 O3          7.8800   -0.2410   -0.6550 o         1 M8F     -0.849300
@<TRIPOS>BOND
     1    1    2 2   
     2    1    4 1   
     3    1   10 1   
     4    3    5 1   
     5    4    8 1   
     6    4   25 1   
     7    4   26 1   
     8    5    6 1   
     9    5   48 1   
    10    6    7 1   
    11    6    9 1   
    12    6   27 1   
    13    7    8 1   
    14    7   28 1   
    15    7   29 1   
    16    8   30 1   
    17    8   31 1   
    18    9   32 1   
    19    9   33 1   
    20   10   11 1   
    21   10   34 1   
    22   11   12 1   
    23   11   14 1   
    24   11   35 1   
    25   12   13 2   
    26   12   16 1   
    27   14   15 1   
    28   14   36 1   
    29   14   37 1   
    30   15   38 1   
    31   16   17 1   
    32   16   39 1   
    33   17   18 1   
    34   17   20 1   
    35   17   40 1   
    36   18   19 1   
    37   18   24 1   
    38   20   21 1   
    39   20   41 1   
    40   20   42 1   
    41   21   22 1   
    42   21   43 1   
    43   21   44 1   
    44   22   23 1   
    45   23   45 1   
    46   23   46 1   
    47   23   47 1   
@<TRIPOS>SUBSTRUCTURE
     1 M8F         1 TEMP              0 ****  ****    0 ROOT
