@<TRIPOS>MOLECULE
M8F
   51    45     1     0     0
SMALL
bcc


@<TRIPOS>ATOM
      1 C8         -0.6400    3.2390   -0.6930 c2        1 M8F      0.244000
      2 O9         -0.0570    2.2550   -1.1800 o         1 M8F     -0.394000
      3 O4         -0.5280   -1.0260    0.8620 o         1 M8F     -0.574000
      4 C7         -1.4780    3.1980    0.4980 c2        1 M8F     -0.311000
      5 C2         -0.0450   -2.1550    0.5490 c2        1 M8F      0.318000
      6 C1          0.2040   -3.1920    1.6590 c3        1 M8F     -0.193000
      7 C5         -2.5590    2.0370    2.4060 c3        1 M8F     -0.213000
      8 C6         -1.7130    2.0770    1.2010 c2        1 M8F     -0.033000
      9 N1          0.8800   -2.5550    2.8030 n4        1 M8F     -0.140000
     10 N10         1.9060    0.1770   -0.4700 n3        1 M8F     -0.235000
     11 C11         3.0920   -0.2630   -0.1080 c2        1 M8F      0.144000
     12 C14        -1.2650   -1.3430   -2.8500 c2        1 M8F      0.282000
     13 O15        -1.4510   -1.1910   -4.0930 o         1 M8F     -0.581000
     14 C12         3.4130   -1.6840    0.1760 c3        1 M8F     -0.200000
     15 S13         3.4200   -1.3930    1.9250 s         1 M8F     -0.569000
     16 N16        -1.2710   -0.3020   -1.9970 n         1 M8F     -0.390000
     17 C17        -1.1690    1.6710   -5.6030 c1        1 M8F     -0.027000
     18 C22         0.3580    3.6480   -5.5440 c1        1 M8F      0.455000
     19 O24         0.9840    2.6960   -5.9180 o         1 M8F     -0.221500
     20 C18        -1.3410    0.8720   -6.8030 c3        1 M8F     -0.221000
     21 C19        -1.3050   -0.5950   -6.5870 c2        1 M8F     -0.433000
     22 S20        -2.4930   -1.5240   -6.8540 ss        1 M8F      1.006000
     23 C21        -2.0500   -3.1030   -6.3380 c3        1 M8F     -0.560000
     24 O23        -0.2050    4.6220   -5.1710 o         1 M8F     -0.221500
     25 H7         -2.9990    3.0340    2.6510 hc        1 M8F      0.099333
     26 H7A        -1.9170    4.1640    0.7970 ha        1 M8F      0.145000
     27 H1         -0.7830   -3.6230    1.9780 hx        1 M8F      0.127000
     28 H5          0.8570   -4.0170    1.2620 hx        1 M8F      0.127000
     29 H5A        -1.9510    1.6910    3.2810 hc        1 M8F      0.099333
     30 H6         -3.3940    1.3050    2.2570 hc        1 M8F      0.099333
     31 H6A        -1.2650    1.1090    0.8950 ha        1 M8F      0.166000
     32 HN1         1.8930   -2.1560    2.4680 hn        1 M8F      0.247333
     33 HN1A        0.3240   -1.7590    3.1130 hn        1 M8F      0.247333
     34 HN10        1.1230   -0.4480   -0.5920 hn        1 M8F      0.279000
     35 H11         1.7000    1.1550   -0.5130 hn        1 M8F      0.279000
     36 H12         3.9230    0.4710   -0.0000 h4        1 M8F      0.187000
     37 H12A        4.4160   -1.9840   -0.2050 h1        1 M8F      0.147000
     38 HS13        2.6430   -2.4200   -0.1590 h1        1 M8F      0.147000
     39 HN16       -1.0820   -0.4490   -1.0230 hn        1 M8F      0.249000
     40 H17        -1.3550    0.6350   -2.3110 hn        1 M8F      0.249000
     41 H18        -0.9510    1.1530   -4.6560 ha        1 M8F      0.096000
     42 H18A       -0.4840    1.1800   -7.4880 hc        1 M8F      0.187500
     43 H19        -2.2910    1.2090   -7.3150 hc        1 M8F      0.187500
     44 H19A       -0.3410   -0.9160   -6.1250 h4        1 M8F      0.219000
     45 H21        -1.6610   -3.1220   -5.2840 h1        1 M8F      0.175000
     46 H21A       -1.2840   -3.5910   -6.9890 h1        1 M8F      0.175000
     47 H21B       -2.9790   -3.7300   -6.3700 h1        1 M8F      0.175000
     48 H13         0.9920   -3.2120    3.5660 hn        1 M8F      0.247333
     49 H102       -0.5410    4.2400   -1.1740 h4        1 M8F      0.102000
     50 H162       -1.0870   -2.3480   -2.3930 h5        1 M8F      0.180000
     51 O3          0.2900   -2.4330   -0.6370 o         1 M8F     -0.574000
@<TRIPOS>BOND
     1    1    2 1   
     2    1    4 1   
     3    1   49 1   
     4    3    5 1   
     5    4    8 1   
     6    4   26 1   
     7    5    6 1   
     8    5   51 1   
     9    6    9 1   
    10    6   27 1   
    11    6   28 1   
    12    7    8 1   
    13    7   25 1   
    14    7   29 1   
    15    7   30 1   
    16    8   31 1   
    17    9   32 1   
    18    9   33 1   
    19    9   48 1   
    20   10   11 1   
    21   10   34 1   
    22   10   35 1   
    23   11   14 1   
    24   11   36 1   
    25   12   13 1   
    26   12   16 1   
    27   12   50 1   
    28   14   15 1   
    29   14   37 1   
    30   14   38 1   
    31   16   39 1   
    32   16   40 1   
    33   17   20 1   
    34   17   41 1   
    35   18   19 1   
    36   18   24 1   
    37   20   21 1   
    38   20   42 1   
    39   20   43 1   
    40   21   22 1   
    41   21   44 1   
    42   22   23 1   
    43   23   45 1   
    44   23   46 1   
    45   23   47 1   
@<TRIPOS>SUBSTRUCTURE
     1 M8F         1 TEMP              0 ****  ****    0 ROOT
