@<TRIPOS>MOLECULE
M8F
   48    45     1     0     0
SMALL
bcc


@<TRIPOS>ATOM
      1 C8          0.3170   -0.8810    1.9800 c1        1 M8F      0.306000
      2 O9          1.4650   -0.4880    1.9310 o         1 M8F     -0.392000
      3 O4         -0.9230    1.3250    7.8600 o         1 M8F     -0.583000
      4 C7         -0.3720   -1.0570    3.3300 c2        1 M8F     -0.180000
      5 C2          0.2360    1.2170    7.3880 c1        1 M8F      0.306000
      6 C1          0.7080   -0.1020    6.8520 c2        1 M8F     -0.126000
      7 C5         -0.2120   -0.5520    5.7500 c3        1 M8F     -0.143000
      8 C6          0.5200   -0.4960    4.4280 c3        1 M8F     -0.153000
      9 N1          0.7020   -1.0760    7.9060 n3        1 M8F     -0.324000
     10 O3          1.0270    2.1850    7.4480 o         1 M8F     -0.583000
     11 N10        -0.3800   -1.2180    0.7660 n3        1 M8F     -0.372000
     12 C11         0.3180   -1.2380   -0.4700 c3        1 M8F      0.011000
     13 C14        -0.5500   -0.5980   -1.5570 c2        1 M8F      0.268000
     14 O15        -1.7330   -0.8610   -1.6200 o         1 M8F     -0.417000
     15 C12         0.6290   -2.6710   -0.8480 c3        1 M8F     -0.271000
     16 S13         2.4120   -2.9120   -0.8700 sh        1 M8F     -0.055000
     17 N16         0.0580    0.2860   -2.5580 n         1 M8F     -0.332000
     18 C17        -0.7120    0.7100   -3.7100 c3        1 M8F     -0.061000
     19 C22        -1.6890    1.7530   -3.2960 c2        1 M8F      0.332000
     20 O24        -1.3030    2.7470   -2.6190 o         1 M8F     -0.566000
     21 C18         0.2180    1.2790   -4.7650 c3        1 M8F     -0.154000
     22 C19        -0.5480    1.4250   -6.0990 c3        1 M8F     -0.248000
     23 S20         0.4470    2.3520   -7.2590 ss        1 M8F     -0.036000
     24 C21        -0.4800    2.6370   -8.7320 c3        1 M8F     -0.335000
     25 O23        -2.9130    1.6250   -3.5910 o         1 M8F     -0.566000
     26 H7         -0.5330   -2.0090    3.4930 ha        1 M8F      0.105000
     27 H7A        -1.2350   -0.5720    3.3260 ha        1 M8F      0.105000
     28 H1          1.6090   -0.0070    6.5030 h4        1 M8F      0.081000
     29 H5         -0.9930    0.0380    5.7160 hc        1 M8F      0.087000
     30 H5A        -0.5010   -1.4640    5.9220 hc        1 M8F      0.087000
     31 H6          0.7510    0.4400    4.2170 hc        1 M8F      0.084000
     32 H6A         1.3440   -1.0320    4.4870 hc        1 M8F      0.084000
     33 HN1         0.6260   -0.6520    8.7140 hn        1 M8F      0.125500
     34 HN1A        1.4770   -1.5490    7.8850 hn        1 M8F      0.125500
     35 HN10       -1.2590   -1.4740    0.7990 hn        1 M8F      0.242000
     36 H11         1.1590   -0.7320   -0.3810 h1        1 M8F      0.144000
     37 H12         0.2240   -3.2790   -0.1880 h1        1 M8F      0.124500
     38 H12A        0.2610   -2.8620   -1.7390 h1        1 M8F      0.124500
     39 HS13        2.6560   -4.0640   -1.0640 hs        1 M8F      0.055000
     40 HN16        0.9250    0.5530   -2.4650 hn        1 M8F      0.257000
     41 H17        -1.1930   -0.0580   -4.0800 h1        1 M8F      0.098000
     42 H18         0.9790    0.6760   -4.8900 hc        1 M8F      0.082000
     43 H18A        0.5410    2.1580   -4.4770 hc        1 M8F      0.082000
     44 H19        -0.7360    0.5360   -6.4670 h1        1 M8F      0.126500
     45 H19A       -1.3840    1.8940   -5.9430 h1        1 M8F      0.126500
     46 H21         0.1140    2.9780   -9.4300 h1        1 M8F      0.109667
     47 H21A       -1.1830    3.2940   -8.5530 h1        1 M8F      0.109667
     48 H21B       -0.8880    1.7950   -9.0310 h1        1 M8F      0.109667
@<TRIPOS>BOND
     1    1    2 1   
     2    1   11 1   
     3    3    5 1   
     4    4    8 1   
     5    4   26 1   
     6    4   27 1   
     7    5   10 1   
     8    6    7 1   
     9    6    9 1   
    10    6   28 1   
    11    7    8 1   
    12    7   29 1   
    13    7   30 1   
    14    8   31 1   
    15    8   32 1   
    16    9   33 1   
    17    9   34 1   
    18   11   12 1   
    19   11   35 1   
    20   12   13 1   
    21   12   15 1   
    22   12   36 1   
    23   13   14 1   
    24   13   17 1   
    25   15   16 1   
    26   15   37 1   
    27   15   38 1   
    28   16   39 1   
    29   17   18 1   
    30   17   40 1   
    31   18   19 1   
    32   18   21 1   
    33   18   41 1   
    34   19   20 1   
    35   19   25 1   
    36   21   22 1   
    37   21   42 1   
    38   21   43 1   
    39   22   23 1   
    40   22   44 1   
    41   22   45 1   
    42   23   24 1   
    43   24   46 1   
    44   24   47 1   
    45   24   48 1   
@<TRIPOS>SUBSTRUCTURE
     1 M8F         1 TEMP              0 ****  ****    0 ROOT
