@<TRIPOS>MOLECULE
M8F
   51    48     1     0     0
SMALL
bcc


@<TRIPOS>ATOM
      1 C8         -1.2210    1.8680   -0.4720 c         1 M8F      0.611100
      2 O9         -1.0260    1.5280   -1.6550 o         1 M8F     -0.692100
      3 O4         -0.9170    0.6060    2.4600 o         1 M8F     -0.604000
      4 C7         -1.3650    3.2630   -0.0660 ce        1 M8F     -0.315200
      5 C2         -0.4880   -0.4010    3.0380 c         1 M8F      0.656100
      6 C1          0.8860   -1.0460    2.9670 c3        1 M8F      0.118500
      7 C5          1.5740   -0.8300    4.3170 c3        1 M8F     -0.135100
      8 C6         -1.5300    3.6030    1.2170 c2        1 M8F     -0.077000
      9 N1          1.6210   -0.5830    1.8030 n8        1 M8F     -0.916800
     10 N10        -0.0240   -1.3200   -1.3060 n8        1 M8F     -0.926800
     11 C11        -0.1770   -2.7180   -1.1530 cx        1 M8F      0.274600
     12 C14        -1.6550    0.1760   -3.7720 c         1 M8F      0.596900
     13 O15        -2.2840   -0.8070   -3.4270 o         1 M8F     -0.433100
     14 C12        -1.4140   -3.4250   -1.6220 cx        1 M8F      0.007700
     15 S13        -1.2240   -3.4720    0.1500 ss        1 M8F     -0.446200
     16 N16        -0.1650    0.0430   -3.9210 ny        1 M8F     -0.647800
     17 C17         0.2510    0.2110   -5.3200 cx        1 M8F      0.009500
     18 C22        -0.5670    4.0330   -3.6150 c1        1 M8F      0.914000
     19 O24        -0.4920    2.9720   -4.1640 o         1 M8F     -0.456000
     20 C18         1.5470   -0.3830   -5.8170 cx        1 M8F     -0.085400
     21 C19         0.2460   -0.9570   -6.3000 cx        1 M8F     -0.074600
     22 S20        -0.2550   -0.6470   -7.9150 ss        1 M8F     -0.144200
     23 C21        -1.3570   -1.9610   -8.2600 c3        1 M8F     -0.068000
     24 O23        -0.6440    5.0750   -3.0600 o         1 M8F     -0.456000
     25 H7         -1.3280    4.0180   -0.8700 ha        1 M8F      0.142000
     26 H7A        -2.2010   -0.5960    3.8840 ho        1 M8F      0.454000
     27 H1          2.5460   -1.3790    4.3430 hc        1 M8F      0.060700
     28 H5          0.7160   -2.1590    2.8290 h1        1 M8F      0.107700
     29 H5A         0.9200   -1.2240    5.1340 hc        1 M8F      0.060700
     30 H6          1.7680    0.2530    4.5030 hc        1 M8F      0.060700
     31 H6A        -1.6400    4.6510    1.5320 ha        1 M8F      0.143500
     32 HN1        -1.5610    2.8550    2.0280 ha        1 M8F      0.143500
     33 HN1A        1.6980    0.4170    1.8140 hn        1 M8F      0.362300
     34 HN10       -1.2880    1.0980    0.3350 h4        1 M8F      0.047200
     35 H11        -0.8810   -0.8230   -1.1400 hn        1 M8F      0.387300
     36 H12         0.7910   -3.2460   -1.3150 h2        1 M8F      0.117700
     37 H12A       -1.2780   -4.3700   -2.1780 h1        1 M8F      0.102700
     38 HS13       -2.2470   -2.8260   -2.0360 h1        1 M8F      0.102700
     39 HN16        0.1550   -0.8670   -3.5550 hn        1 M8F      0.475300
     40 H17         0.2600    0.7930   -3.3490 hn        1 M8F      0.475300
     41 H18        -0.0570    1.2200   -5.6940 hx        1 M8F      0.155700
     42 H18A        2.1610    0.2320   -6.5060 hc        1 M8F      0.111700
     43 H19         2.1770   -0.9930   -5.1430 hc        1 M8F      0.111700
     44 H19A       -0.0390   -1.9600   -5.9190 h1        1 M8F      0.115700
     45 H21        -2.2730   -1.9310   -7.6280 h1        1 M8F      0.082367
     46 H21A       -1.6530   -1.8190   -9.3290 h1        1 M8F      0.082367
     47 H21B       -0.8780   -2.9590   -8.1530 h1        1 M8F      0.082367
     48 H13         2.5410   -0.9800    1.8150 hn        1 M8F      0.362300
     49 H102        0.6910   -0.9700   -0.6940 hn        1 M8F      0.387300
     50 H162       -2.0070    1.2110   -3.9770 hx        1 M8F      0.137200
     51 O3         -1.3390   -1.0460    3.8730 oh        1 M8F     -0.582100
@<TRIPOS>BOND
     1    1    2 2   
     2    1    4 1   
     3    1   34 1   
     4    3    5 2   
     5    4    8 2   
     6    4   25 1   
     7    5    6 1   
     8    5   51 1   
     9    6    7 1   
    10    6    9 1   
    11    6   28 1   
    12    7   27 1   
    13    7   29 1   
    14    7   30 1   
    15    8   31 1   
    16    8   32 1   
    17    9   33 1   
    18    9   48 1   
    19   10   11 1   
    20   10   35 1   
    21   10   49 1   
    22   11   14 1   
    23   11   15 1   
    24   11   36 1   
    25   12   13 2   
    26   12   16 1   
    27   12   50 1   
    28   14   15 1   
    29   14   37 1   
    30   14   38 1   
    31   16   17 1   
    32   16   39 1   
    33   16   40 1   
    34   17   20 1   
    35   17   21 1   
    36   17   41 1   
    37   18   19 2   
    38   18   24 2   
    39   20   21 1   
    40   20   42 1   
    41   20   43 1   
    42   21   22 1   
    43   21   44 1   
    44   22   23 1   
    45   23   45 1   
    46   23   46 1   
    47   23   47 1   
    48   26   51 1   
@<TRIPOS>SUBSTRUCTURE
     1 M8F         1 TEMP              0 ****  ****    0 ROOT
