@<TRIPOS>MOLECULE
M8M
   50    52     1     0     0
SMALL
bcc


@<TRIPOS>ATOM
      1 N1         -0.7270    1.6280   -1.2610 n4        1 M8M     -0.678100
      2 O2          0.6180    1.5100   -1.1210 os        1 M8M     -0.229100
      3 C4          1.1070    1.0700    0.1820 c3        1 M8M      0.074400
      4 C5          2.5900    0.7680   -0.0210 c3        1 M8M      0.100800
      5 N2          3.4870    1.9600   -0.1270 n4        1 M8M     -0.678400
      6 C6          4.7920    1.5640   -0.7340 c3        1 M8M      0.083100
      7 C5'         3.6980    2.6200    1.2060 c3        1 M8M      0.085800
      8 C4'         4.3890    3.9920    1.1010 c3        1 M8M      0.072100
      9 O4'         3.8750    4.7100   -0.0150 os        1 M8M     -0.450600
     10 C1'         3.1400    5.8900    0.3920 c3        1 M8M      0.228800
     11 N5          1.7490    5.7120    0.0260 na        1 M8M     -0.261000
     12 C11         1.4300    5.6710   -1.3610 ca        1 M8M      0.451800
     13 N4          2.0250    6.2790   -2.4210 nb        1 M8M     -0.644000
     14 C10         1.4160    6.0170   -3.6050 ca        1 M8M      0.691900
     15 N3          0.3340    5.2200   -3.8510 nb        1 M8M     -0.690000
     16 C9         -0.2540    4.6050   -2.7940 ca        1 M8M      0.626200
     17 N7         -1.3460    3.6900   -2.9580 nh        1 M8M     -0.907500
     18 C12         0.2580    4.8120   -1.4820 ca        1 M8M     -0.195200
     19 N6         -0.1250    4.3490   -0.2150 nc        1 M8M     -0.619100
     20 C7          0.7550    4.8860    0.6560 cd        1 M8M      0.432800
     21 C2'         3.4630    6.1310    1.8940 c3        1 M8M      0.093100
     22 O2'         4.3910    7.1940    1.9090 oh        1 M8M     -0.574800
     23 C3'         4.1710    4.8380    2.3810 c3        1 M8M      0.111100
     24 O3'         5.3850    5.0850    3.0290 oh        1 M8M     -0.555800
     25 C8          0.6070    4.7770    2.1340 c3        1 M8M     -0.137400
     26 HN1        -1.1210    0.7220   -1.5500 hn        1 M8M      0.488467
     27 HN1A       -0.8950    2.4150   -2.0610 hn        1 M8M      0.488467
     28 H4          0.5930    0.1170    0.4890 h1        1 M8M      0.103700
     29 H4A         0.9080    1.8820    0.9320 h1        1 M8M      0.103700
     30 H5          2.9400    0.1390    0.8520 hx        1 M8M      0.136200
     31 H5A         2.7090    0.1620   -0.9700 hx        1 M8M      0.136200
     32 H6          5.3050    0.8130   -0.0750 hx        1 M8M      0.116700
     33 H6A         5.4330    2.4830   -0.8370 hx        1 M8M      0.116700
     34 H6B         4.6150    1.1210   -1.7510 hx        1 M8M      0.116700
     35 H5'         4.3350    1.9460    1.8490 hx        1 M8M      0.105700
     36 H5'A        2.6860    2.7380    1.6860 hx        1 M8M      0.105700
     37 H4'         5.4930    3.8580    0.9070 h1        1 M8M      0.120700
     38 H1'         3.5630    6.7360   -0.2430 h2        1 M8M      0.178700
     39 H10         1.8540    6.5180   -4.5020 h5        1 M8M      0.104100
     40 HN7        -2.1830    4.0880   -2.5590 hn        1 M8M      0.428300
     41 HN7A       -1.5100    3.4630   -3.9290 hn        1 M8M      0.428300
     42 H2'         2.5570    6.3660    2.5090 h1        1 M8M      0.093700
     43 HO2'        4.2560    7.7010    2.7230 ho        1 M8M      0.453000
     44 H3'         3.5520    4.2890    3.1430 h1        1 M8M      0.094700
     45 HO3'        5.8710    5.7750    2.5450 ho        1 M8M      0.447000
     46 H8         -0.2470    4.1020    2.3980 hc        1 M8M      0.081367
     47 H8A         0.3810    5.7920    2.5590 hc        1 M8M      0.081367
     48 H8B         1.5380    4.3810    2.6070 hc        1 M8M      0.081367
     49 H13        -1.1780    1.9490   -0.3930 hn        1 M8M      0.488467
     50 H21         3.0490    2.6590   -0.7490 hn        1 M8M      0.468800
@<TRIPOS>BOND
     1    1    2 1   
     2    1   26 1   
     3    1   27 1   
     4    1   49 1   
     5    2    3 1   
     6    3    4 1   
     7    3   28 1   
     8    3   29 1   
     9    4    5 1   
    10    4   30 1   
    11    4   31 1   
    12    5    6 1   
    13    5    7 1   
    14    5   50 1   
    15    6   32 1   
    16    6   33 1   
    17    6   34 1   
    18    7    8 1   
    19    7   35 1   
    20    7   36 1   
    21    8    9 1   
    22    8   23 1   
    23    8   37 1   
    24    9   10 1   
    25   10   11 1   
    26   10   21 1   
    27   10   38 1   
    28   11   12 1   
    29   11   20 1   
    30   12   13 ar  
    31   12   18 ar  
    32   13   14 ar  
    33   14   15 ar  
    34   14   39 1   
    35   15   16 ar  
    36   16   17 1   
    37   16   18 ar  
    38   17   40 1   
    39   17   41 1   
    40   18   19 1   
    41   19   20 2   
    42   20   25 1   
    43   21   22 1   
    44   21   23 1   
    45   21   42 1   
    46   22   43 1   
    47   23   24 1   
    48   23   44 1   
    49   24   45 1   
    50   25   46 1   
    51   25   47 1   
    52   25   48 1   
@<TRIPOS>SUBSTRUCTURE
     1 M8M         1 TEMP              0 ****  ****    0 ROOT
