@<TRIPOS>MOLECULE
M8M
   48    50     1     0     0
SMALL
bcc


@<TRIPOS>ATOM
      1 N1         -3.0990    3.1350    0.4300 n3        1 M8M     -0.663300
      2 O2         -4.4240    3.0570    0.1750 os        1 M8M     -0.259100
      3 C4         -5.0100    1.7790    0.4810 c3        1 M8M      0.137400
      4 C5         -4.8370    0.8010   -0.6830 c3        1 M8M      0.136800
      5 N2         -3.4740    0.3280   -0.8830 n3        1 M8M     -0.732600
      6 C6         -3.3110   -0.3500   -2.1470 c3        1 M8M      0.152100
      7 C5'        -2.9590   -0.3760    0.2800 c3        1 M8M      0.166800
      8 C4'        -1.9090   -1.4640    0.0330 c3        1 M8M      0.103100
      9 O4'        -0.7460   -0.8980   -0.5820 os        1 M8M     -0.410600
     10 C1'         0.4640   -1.4090    0.0140 c3        1 M8M      0.256800
     11 N5          1.4070   -0.3410    0.2130 na        1 M8M     -0.274000
     12 C11         2.6820   -0.2930   -0.3810 ca        1 M8M      0.468800
     13 N4          3.3370   -1.1990   -1.1670 nb        1 M8M     -0.733000
     14 C10         4.5730   -0.7790   -1.5260 ca        1 M8M      0.684900
     15 N3          5.2310    0.3720   -1.2240 nb        1 M8M     -0.793000
     16 C9          4.5820    1.2820   -0.4230 ca        1 M8M      0.756200
     17 N7          5.1980    2.4440   -0.0320 nh        1 M8M     -0.956500
     18 C12         3.2530    0.9810    0.0280 ca        1 M8M     -0.224200
     19 N6          2.3390    1.6880    0.8190 nc        1 M8M     -0.550100
     20 C7          1.2490    0.9010    0.9070 cd        1 M8M      0.424800
     21 C2'         0.0590   -2.1630    1.3210 c3        1 M8M      0.068100
     22 O2'         0.5200   -3.4910    1.1640 oh        1 M8M     -0.586800
     23 C3'        -1.4830   -2.1310    1.3570 c3        1 M8M      0.082100
     24 O3'        -2.0210   -3.4250    1.5040 oh        1 M8M     -0.586800
     25 C8         -0.0060    1.2660    1.6170 c3        1 M8M     -0.114400
     26 HN1        -2.5970    2.8740   -0.4150 hn        1 M8M      0.346800
     27 HN1A       -2.9240    4.1260    0.5820 hn        1 M8M      0.346800
     28 H4         -4.6180    1.3640    1.4430 h1        1 M8M      0.057700
     29 H4A        -6.1000    2.0320    0.5860 h1        1 M8M      0.057700
     30 H5         -5.5570   -0.0540   -0.5140 h1        1 M8M      0.040700
     31 H5A        -5.1500    1.3340   -1.6270 h1        1 M8M      0.040700
     32 H6         -3.7000    0.3100   -2.9670 h1        1 M8M      0.038033
     33 H6A        -2.2170   -0.5250   -2.3250 h1        1 M8M      0.038033
     34 H6B        -3.8530   -1.3350   -2.2010 h1        1 M8M      0.038033
     35 H5'        -2.5040    0.4160    0.9440 h1        1 M8M      0.049200
     36 H5'A       -3.7890   -0.8830    0.8590 h1        1 M8M      0.049200
     37 H4'        -2.3030   -2.2450   -0.6770 h1        1 M8M      0.065700
     38 H1'         0.9070   -2.1430   -0.7280 h2        1 M8M      0.128700
     39 H10         5.1420   -1.4820   -2.1730 h5        1 M8M      0.052100
     40 HN7         6.0730    2.6990   -0.4180 hn        1 M8M      0.445300
     41 HN7A        4.6590    3.1260    0.4410 hn        1 M8M      0.445300
     42 H2'         0.5000   -1.7020    2.2430 h1        1 M8M      0.073700
     43 HO2'        0.3370   -3.9490    1.9960 ho        1 M8M      0.421000
     44 H3'        -1.8620   -1.5640    2.2510 h1        1 M8M      0.096700
     45 HO3'       -1.6850   -3.9690    0.7760 ho        1 M8M      0.418000
     46 H8         -0.4640    0.3680    2.1020 hc        1 M8M      0.066367
     47 H8A         0.2000    2.0370    2.3990 hc        1 M8M      0.066367
     48 H8B        -0.7360    1.6830    0.8760 hc        1 M8M      0.066367
@<TRIPOS>BOND
     1    1    2 1   
     2    1   26 1   
     3    1   27 1   
     4    2    3 1   
     5    3    4 1   
     6    3   28 1   
     7    3   29 1   
     8    4    5 1   
     9    4   30 1   
    10    4   31 1   
    11    5    6 1   
    12    5    7 1   
    13    6   32 1   
    14    6   33 1   
    15    6   34 1   
    16    7    8 1   
    17    7   35 1   
    18    7   36 1   
    19    8    9 1   
    20    8   23 1   
    21    8   37 1   
    22    9   10 1   
    23   10   11 1   
    24   10   21 1   
    25   10   38 1   
    26   11   12 1   
    27   11   20 1   
    28   12   13 ar  
    29   12   18 ar  
    30   13   14 ar  
    31   14   15 ar  
    32   14   39 1   
    33   15   16 ar  
    34   16   17 1   
    35   16   18 ar  
    36   17   40 1   
    37   17   41 1   
    38   18   19 1   
    39   19   20 2   
    40   20   25 1   
    41   21   22 1   
    42   21   23 1   
    43   21   42 1   
    44   22   43 1   
    45   23   24 1   
    46   23   44 1   
    47   24   45 1   
    48   25   46 1   
    49   25   47 1   
    50   25   48 1   
@<TRIPOS>SUBSTRUCTURE
     1 M8M         1 TEMP              0 ****  ****    0 ROOT
