@<TRIPOS>MOLECULE
M8M
   50    52     1     0     0
SMALL
bcc


@<TRIPOS>ATOM
      1 N1         -0.7740    1.6590   -1.1950 nz        1 M8M     -0.678100
      2 O2          0.5700    1.5200   -1.0750 os        1 M8M     -0.229100
      3 C4          1.0730    1.0860    0.2250 c3        1 M8M      0.074400
      4 C5          2.5470    0.7570    0.0020 c3        1 M8M      0.100800
      5 N2          3.4620    1.9330   -0.1310 nx        1 M8M     -0.678400
      6 C6          4.7500    1.5100   -0.7530 c3        1 M8M      0.083100
      7 C5'         3.7040    2.6030    1.1920 c3        1 M8M      0.085800
      8 C4'         4.4160    3.9630    1.0620 c3        1 M8M      0.072100
      9 O4'         3.8950    4.6780   -0.0520 os        1 M8M     -0.450600
     10 C1'         3.1860    5.8740    0.3540 c3        1 M8M      0.228800
     11 N5          1.7860    5.7150    0.0120 na        1 M8M     -0.261000
     12 C11         1.4440    5.6660   -1.3690 ca        1 M8M      0.451800
     13 N4          2.0300    6.2550   -2.4440 nb        1 M8M     -0.644000
     14 C10         1.3990    5.9910   -3.6150 ca        1 M8M      0.691900
     15 N3          0.3000    5.2090   -3.8370 nb        1 M8M     -0.690000
     16 C9         -0.2810    4.6140   -2.7640 ca        1 M8M      0.626200
     17 N7         -1.3890    3.7140   -2.9020 nv        1 M8M     -0.907500
     18 C12         0.2560    4.8250   -1.4630 ca        1 M8M     -0.195200
     19 N6         -0.1130    4.3800   -0.1860 nc        1 M8M     -0.619100
     20 C7          0.7890    4.9100    0.6660 cd        1 M8M      0.432800
     21 C2'         3.5360    6.1240    1.8480 c3        1 M8M      0.093100
     22 O2'         4.4810    7.1720    1.8370 oh        1 M8M     -0.574800
     23 C3'         4.2310    4.8250    2.3360 c3        1 M8M      0.111100
     24 O3'         5.4600    5.0590    2.9620 oh        1 M8M     -0.555800
     25 C8          0.6640    4.8180    2.1480 c3        1 M8M     -0.137400
     26 HN1        -0.9430    2.4410   -2.0000 hn        1 M8M      0.488467
     27 HN1A       -1.2070    1.9960   -0.3230 hn        1 M8M      0.488467
     28 H4          0.8990    1.9090    0.9690 h1        1 M8M      0.103700
     29 H4A         0.5480    0.1450    0.5490 h1        1 M8M      0.103700
     30 H5          2.9000    0.1320    0.8760 hx        1 M8M      0.136200
     31 H5A         2.6410    0.1400   -0.9430 hx        1 M8M      0.136200
     32 H6          5.2610    0.7570   -0.0960 hx        1 M8M      0.116700
     33 H6A         4.5500    1.0590   -1.7630 hx        1 M8M      0.116700
     34 H6B         5.4050    2.4170   -0.8760 hx        1 M8M      0.116700
     35 H5'         2.7020    2.7420    1.6870 hx        1 M8M      0.105700
     36 H5'A        4.3410    1.9260    1.8310 hx        1 M8M      0.105700
     37 H4'         5.5130    3.8090    0.8520 h1        1 M8M      0.120700
     38 H1'         3.6110    6.7070   -0.2960 h2        1 M8M      0.178700
     39 H10         1.8300    6.4780   -4.5240 h5        1 M8M      0.104100
     40 HN7        -1.5730    3.4810   -3.8680 hn        1 M8M      0.428300
     41 HN7A       -2.2120    4.1300   -2.4930 hn        1 M8M      0.428300
     42 H2'         2.6440    6.3790    2.4750 h1        1 M8M      0.093700
     43 HO2'        4.3670    7.6890    2.6490 ho        1 M8M      0.453000
     44 H3'         3.6170    4.2930    3.1140 h1        1 M8M      0.094700
     45 HO3'        5.9490    5.7360    2.4630 ho        1 M8M      0.447000
     46 H8          1.5960    4.4120    2.6090 hc        1 M8M      0.081367
     47 H8A         0.4600    5.8400    2.5660 hc        1 M8M      0.081367
     48 H8B        -0.1960    4.1590    2.4320 hc        1 M8M      0.081367
     49 H13        -1.1880    0.7570   -1.4690 hn        1 M8M      0.488467
     50 H21         3.0260    2.6330   -0.7530 hn        1 M8M      0.468800
@<TRIPOS>BOND
     1    1    2 1   
     2    1   26 1   
     3    1   27 1   
     4    1   49 1   
     5    2    3 1   
     6    3    4 1   
     7    3   28 1   
     8    3   29 1   
     9    4    5 1   
    10    4   30 1   
    11    4   31 1   
    12    5    6 1   
    13    5    7 1   
    14    5   50 1   
    15    6   32 1   
    16    6   33 1   
    17    6   34 1   
    18    7    8 1   
    19    7   35 1   
    20    7   36 1   
    21    8    9 1   
    22    8   23 1   
    23    8   37 1   
    24    9   10 1   
    25   10   11 1   
    26   10   21 1   
    27   10   38 1   
    28   11   12 1   
    29   11   20 1   
    30   12   13 ar  
    31   12   18 ar  
    32   13   14 ar  
    33   14   15 ar  
    34   14   39 1   
    35   15   16 ar  
    36   16   17 1   
    37   16   18 ar  
    38   17   40 1   
    39   17   41 1   
    40   18   19 1   
    41   19   20 2   
    42   20   25 1   
    43   21   22 1   
    44   21   23 1   
    45   21   42 1   
    46   22   43 1   
    47   23   24 1   
    48   23   44 1   
    49   24   45 1   
    50   25   46 1   
    51   25   47 1   
    52   25   48 1   
@<TRIPOS>SUBSTRUCTURE
     1 M8M         1 TEMP              0 ****  ****    0 ROOT
