@<TRIPOS>MOLECULE
M8M
   51    53     1     0     0
SMALL
bcc


@<TRIPOS>ATOM
      1 N1          3.3600   -3.1490    1.7210 n4        1 M8M     -0.608100
      2 O2          3.1210   -1.9910    1.0440 os        1 M8M     -0.237100
      3 C4          3.5410   -0.7360    1.6730 c3        1 M8M      0.078400
      4 C5          3.7000    0.2480    0.5130 c3        1 M8M      0.090800
      5 N2          2.4320    0.8600    0.0060 n4        1 M8M     -0.681400
      6 C6          2.5960    1.2990   -1.4120 c3        1 M8M      0.084100
      7 C5'         1.9560    1.9990    0.8660 c3        1 M8M      0.103800
      8 C4'         2.7590    3.2930    0.7330 c3        1 M8M      0.082100
      9 O4'         2.2850    4.0220   -0.4000 os        1 M8M     -0.441600
     10 C1'         2.4850    5.4490   -0.1560 c3        1 M8M      0.234800
     11 N5          1.4320    6.2100   -0.7700 na        1 M8M     -0.283000
     12 C11         1.6270    7.0570   -1.8810 ca        1 M8M      0.462800
     13 N4          2.7320    7.3440   -2.6120 nb        1 M8M     -0.633000
     14 C10         2.5180    8.2490   -3.6040 ca        1 M8M      0.693900
     15 N3          1.3560    8.8840   -3.9360 nb        1 M8M     -0.655000
     16 C9          0.2570    8.5900   -3.1980 ca        1 M8M      0.543200
     17 N7         -1.0150    9.2700   -3.5030 n4        1 M8M     -0.819300
     18 C12         0.3070    7.6590   -2.1400 ca        1 M8M     -0.130200
     19 N6         -0.6340    7.1620   -1.2340 nc        1 M8M     -0.557100
     20 C7          0.0430    6.3060   -0.4360 cd        1 M8M      0.501800
     21 C2'         2.6350    5.6310    1.3970 c3        1 M8M      0.087100
     22 O2'         3.9300    6.1370    1.6230 oh        1 M8M     -0.586800
     23 C3'         2.5700    4.1990    1.9780 c3        1 M8M      0.123100
     24 O3'         3.5340    3.8810    2.9400 oh        1 M8M     -0.583800
     25 C8         -0.5680    5.5520    0.6920 c3        1 M8M     -0.134400
     26 HN1         2.8510   -3.1660    2.6240 hn        1 M8M      0.500800
     27 HN1A        4.3760   -3.2890    1.8770 hn        1 M8M      0.500800
     28 H4          4.5380   -0.8530    2.1810 h1        1 M8M      0.119200
     29 H4A         2.7530   -0.4460    2.4180 h1        1 M8M      0.119200
     30 H5          4.3850    1.0790    0.8650 hx        1 M8M      0.146200
     31 H5A         4.2040   -0.2820   -0.3520 hx        1 M8M      0.146200
     32 H6          3.4640    2.0090   -1.4910 hx        1 M8M      0.121033
     33 H6A         1.6630    1.8410   -1.7320 hx        1 M8M      0.121033
     34 H6B         2.7660    0.4030   -2.0660 hx        1 M8M      0.121033
     35 H5'         2.0040    1.6640    1.9430 hx        1 M8M      0.120200
     36 H5'A        0.8810    2.2030    0.5790 hx        1 M8M      0.120200
     37 H4'         3.8590    3.0960    0.5880 h1        1 M8M      0.081700
     38 H1'         3.4670    5.7180   -0.6590 h2        1 M8M      0.147700
     39 H10         3.4040    8.5160   -4.2320 h5        1 M8M      0.117100
     40 HN7        -1.7770    8.5780   -3.4880 hn        1 M8M      0.488133
     41 HN7A       -1.1900    9.9830   -2.7810 hn        1 M8M      0.488133
     42 H2'         1.8350    6.2780    1.8380 h1        1 M8M      0.099700
     43 HO2'        3.8560    7.0070    2.0430 ho        1 M8M      0.459000
     44 H3'         1.5720    4.0160    2.4650 h1        1 M8M      0.094700
     45 HO3'        4.2800    4.5020    2.8760 ho        1 M8M      0.459000
     46 H8         -1.6180    5.2570    0.4320 hc        1 M8M      0.084700
     47 H8A        -0.6060    6.2090    1.6000 hc        1 M8M      0.084700
     48 H8B         0.0240    4.6320    0.9230 hc        1 M8M      0.084700
     49 H13         2.9940   -3.9050    1.0970 hn        1 M8M      0.500800
     50 H21         1.6970    0.1380    0.0290 hn        1 M8M      0.454800
     51 H73        -0.9800    9.7270   -4.4280 hn        1 M8M      0.488133
@<TRIPOS>BOND
     1    1    2 1   
     2    1   26 1   
     3    1   27 1   
     4    1   49 1   
     5    2    3 1   
     6    3    4 1   
     7    3   28 1   
     8    3   29 1   
     9    4    5 1   
    10    4   30 1   
    11    4   31 1   
    12    5    6 1   
    13    5    7 1   
    14    5   50 1   
    15    6   32 1   
    16    6   33 1   
    17    6   34 1   
    18    7    8 1   
    19    7   35 1   
    20    7   36 1   
    21    8    9 1   
    22    8   23 1   
    23    8   37 1   
    24    9   10 1   
    25   10   11 1   
    26   10   21 1   
    27   10   38 1   
    28   11   12 1   
    29   11   20 1   
    30   12   13 ar  
    31   12   18 ar  
    32   13   14 ar  
    33   14   15 ar  
    34   14   39 1   
    35   15   16 ar  
    36   16   17 1   
    37   16   18 ar  
    38   17   40 1   
    39   17   41 1   
    40   17   51 1   
    41   18   19 1   
    42   19   20 2   
    43   20   25 1   
    44   21   22 1   
    45   21   23 1   
    46   21   42 1   
    47   22   43 1   
    48   23   24 1   
    49   23   44 1   
    50   24   45 1   
    51   25   46 1   
    52   25   47 1   
    53   25   48 1   
@<TRIPOS>SUBSTRUCTURE
     1 M8M         1 TEMP              0 ****  ****    0 ROOT
