@<TRIPOS>MOLECULE
M8O
   20    19     1     0     0
SMALL
bcc


@<TRIPOS>ATOM
      1 C1          2.7800    1.6850   -0.5380 ce        1 M8O     -0.147200
      2 O1         -2.8480    1.7550   -0.8200 o         1 M8O     -0.847800
      3 C2         -3.3010    1.0710    0.1410 c         1 M8O      0.923600
      4 O2          4.9410    0.8050   -0.1270 o         1 M8O     -0.843300
      5 C3          3.8130    0.5910   -0.6660 c         1 M8O      0.898800
      6 O3         -4.4900    1.1540    0.5620 o         1 M8O     -0.847800
      7 C4         -2.3570    0.1050    0.8910 c3        1 M8O     -0.303400
      8 O4          3.5520   -0.4380   -1.3510 o         1 M8O     -0.843300
      9 C5         -1.4860   -0.6990   -0.0160 c         1 M8O      0.623100
     10 O5         -1.7200   -1.8870   -0.2870 o         1 M8O     -0.608100
     11 C6         -0.3210    0.0250   -0.6340 c3        1 M8O     -0.301400
     12 O6          0.9110   -0.0800    1.4380 o         1 M8O     -0.571100
     13 C7          1.5160    1.6280   -0.1210 cf        1 M8O     -0.281200
     14 C50         0.7460    0.4580    0.3360 c         1 M8O      0.624300
     15 H1          3.1840    2.6660   -0.8480 ha        1 M8O      0.087000
     16 H4         -1.7080    0.7260    1.5600 hc        1 M8O      0.052700
     17 H4A        -2.9800   -0.5760    1.5240 hc        1 M8O      0.052700
     18 H6          0.1790   -0.6230   -1.4040 hc        1 M8O      0.109200
     19 H6A        -0.7530    0.9340   -1.1470 hc        1 M8O      0.109200
     20 H7          0.8940    2.5430   -0.1040 ha        1 M8O      0.112000
@<TRIPOS>BOND
     1    1    5 1   
     2    1   13 2   
     3    1   15 1   
     4    2    3 1   
     5    3    6 1   
     6    3    7 1   
     7    4    5 1   
     8    5    8 1   
     9    7    9 1   
    10    7   16 1   
    11    7   17 1   
    12    9   10 2   
    13    9   11 1   
    14   11   14 1   
    15   11   18 1   
    16   11   19 1   
    17   12   14 2   
    18   13   14 1   
    19   13   20 1   
@<TRIPOS>SUBSTRUCTURE
     1 M8O         1 TEMP              0 ****  ****    0 ROOT
