@<TRIPOS>MOLECULE
M8O
   20    19     1     0     0
SMALL
bcc


@<TRIPOS>ATOM
      1 C1         -0.3700    0.2480    0.5950 ce        1 M8O     -0.172200
      2 O1          0.0400    1.3040    8.0050 o         1 M8O     -0.845800
      3 C2          0.5690    1.2060    6.8610 c         1 M8O      0.925600
      4 O2          0.5930   -1.4250   -0.7810 o         1 M8O     -0.846300
      5 C3          0.5350   -0.9420    0.3910 c         1 M8O      0.895800
      6 O3          1.7560    1.5490    6.6010 o         1 M8O     -0.845800
      7 C4         -0.2930    0.5730    5.7430 c3        1 M8O     -0.305400
      8 O4          1.1540   -1.4360    1.3760 o         1 M8O     -0.846300
      9 C5         -0.2170    1.3050    4.4430 c         1 M8O      0.625100
     10 O5         -1.0720    2.1400    4.1050 o         1 M8O     -0.616100
     11 C6          0.9650    0.9540    3.5870 c3        1 M8O     -0.303400
     12 O6          1.9030    2.3550    1.8800 o         1 M8O     -0.591100
     13 C7         -0.1750    1.3170    1.3640 cf        1 M8O     -0.261200
     14 C50         0.9830    1.6020    2.2320 c         1 M8O      0.629300
     15 H1         -1.2970    0.1810   -0.0020 ha        1 M8O      0.090000
     16 H4          0.0710   -0.4760    5.6070 hc        1 M8O      0.049200
     17 H4A        -1.3550    0.5450    6.0960 hc        1 M8O      0.049200
     18 H6          0.9870   -0.1600    3.4020 hc        1 M8O      0.125700
     19 H6A         1.8830    1.2310    4.1810 hc        1 M8O      0.125700
     20 H7         -0.9360    2.1170    1.4340 ha        1 M8O      0.118000
@<TRIPOS>BOND
     1    1    5 1   
     2    1   13 2   
     3    1   15 1   
     4    2    3 1   
     5    3    6 1   
     6    3    7 1   
     7    4    5 1   
     8    5    8 1   
     9    7    9 1   
    10    7   16 1   
    11    7   17 1   
    12    9   10 2   
    13    9   11 1   
    14   11   14 1   
    15   11   18 1   
    16   11   19 1   
    17   12   14 2   
    18   13   14 1   
    19   13   20 1   
@<TRIPOS>SUBSTRUCTURE
     1 M8O         1 TEMP              0 ****  ****    0 ROOT
