@<TRIPOS>MOLECULE
M8O
   20    19     1     0     0
SMALL
bcc


@<TRIPOS>ATOM
      1 C1         -0.2750   -0.7860    0.8210 ce        1 M8O     -0.147200
      2 O1         -0.4490    0.0590    6.3900 o         1 M8O     -0.847800
      3 C2         -0.3920    1.3030    6.6040 c         1 M8O      0.923600
      4 O2          0.3590   -0.4140   -1.4310 o         1 M8O     -0.843300
      5 C3          0.7710   -0.5260   -0.2370 c         1 M8O      0.898800
      6 O3         -0.7390    1.8450    7.6920 o         1 M8O     -0.847800
      7 C4          0.0800    2.2430    5.4710 c3        1 M8O     -0.303400
      8 O4          1.9920   -0.5050    0.0840 o         1 M8O     -0.843300
      9 C5          1.2790    1.7370    4.7410 c         1 M8O      0.623100
     10 O5          2.4210    2.1790    4.9460 o         1 M8O     -0.608100
     11 C6          1.0420    0.6150    3.7670 c3        1 M8O     -0.301400
     12 O6          0.1030    2.1450    2.1550 o         1 M8O     -0.571100
     13 C7         -0.5040   -0.1600    1.9740 cf        1 M8O     -0.281200
     14 C50         0.2160    0.9830    2.5640 c         1 M8O      0.624300
     15 H1         -0.9280   -1.6360    0.5490 ha        1 M8O      0.087000
     16 H4         -0.7690    2.3450    4.7470 hc        1 M8O      0.052700
     17 H4A         0.2980    3.2470    5.9150 hc        1 M8O      0.052700
     18 H6          0.5180   -0.1990    4.3490 hc        1 M8O      0.109200
     19 H6A         2.0200    0.2160    3.3840 hc        1 M8O      0.109200
     20 H7         -1.3190   -0.5010    2.6390 ha        1 M8O      0.112000
@<TRIPOS>BOND
     1    1    5 1   
     2    1   13 2   
     3    1   15 1   
     4    2    3 1   
     5    3    6 1   
     6    3    7 1   
     7    4    5 1   
     8    5    8 1   
     9    7    9 1   
    10    7   16 1   
    11    7   17 1   
    12    9   10 2   
    13    9   11 1   
    14   11   14 1   
    15   11   18 1   
    16   11   19 1   
    17   12   14 2   
    18   13   14 1   
    19   13   20 1   
@<TRIPOS>SUBSTRUCTURE
     1 M8O         1 TEMP              0 ****  ****    0 ROOT
