@<TRIPOS>MOLECULE
M8O
   20    17     1     0     0
SMALL
bcc


@<TRIPOS>ATOM
      1 C1          0.1600   -3.3920    0.5310 c1        1 M8O     -0.189500
      2 O1         -2.0520    4.1070    0.1480 o         1 M8O     -0.577000
      3 C2         -0.8460    3.8700   -0.1280 c2        1 M8O      0.346000
      4 O2          2.4400   -3.2810   -0.2210 o         1 M8O     -0.576000
      5 C3          1.6540   -3.3300    0.7610 c1        1 M8O      0.353000
      6 O3          0.0590    4.6360    0.2950 o         1 M8O     -0.577000
      7 C4         -0.4850    2.6670   -0.9710 c3        1 M8O     -0.287000
      8 O4          2.1120   -3.3300    1.9340 o         1 M8O     -0.576000
      9 C5         -0.3300    1.4550   -0.0790 c2        1 M8O      0.279000
     10 O5         -0.4160    1.5730    1.1270 o         1 M8O     -0.369000
     11 C6         -0.0670    0.0950   -0.6890 c3        1 M8O     -0.272000
     12 O6          0.9070   -0.6540    1.3350 o         1 M8O     -0.310000
     13 C7         -0.5440   -2.2550    0.3680 c1        1 M8O     -0.189500
     14 C50         0.1600   -0.9160    0.4130 c1        1 M8O      0.293000
     15 H1         -0.2940   -4.2560    0.5020 ha        1 M8O      0.102000
     16 H4          0.3560    2.8370   -1.4390 hc        1 M8O      0.093000
     17 H4A        -1.1940    2.5020   -1.6240 hc        1 M8O      0.093000
     18 H6          0.7270    0.1410   -1.2580 hc        1 M8O      0.131000
     19 H6A        -0.8380   -0.1750   -1.2260 hc        1 M8O      0.131000
     20 H7         -1.5080   -2.2950    0.2200 ha        1 M8O      0.102000
@<TRIPOS>BOND
     1    1   13 1   
     2    1   15 1   
     3    2    3 1   
     4    3    6 1   
     5    3    7 1   
     6    4    5 1   
     7    5    8 1   
     8    7    9 1   
     9    7   16 1   
    10    7   17 1   
    11    9   10 1   
    12    9   11 1   
    13   11   14 1   
    14   11   18 1   
    15   11   19 1   
    16   12   14 1   
    17   13   20 1   
@<TRIPOS>SUBSTRUCTURE
     1 M8O         1 TEMP              0 ****  ****    0 ROOT
