@<TRIPOS>MOLECULE
M8P
   47    50     1     0     0
SMALL
bcc


@<TRIPOS>ATOM
      1 C11        -0.0490   -0.0540   -0.0110 ca        1 M8P     -0.049000
      2 C12         1.3660    0.0440    0.0110 ca        1 M8P     -0.060000
      3 C13         2.0900    0.0820    1.2350 ca        1 M8P     -0.105000
      4 C14         3.4590    0.1780    1.2300 ca        1 M8P     -0.133000
      5 C15         4.1680    0.2400    0.0040 ca        1 M8P     -0.112000
      6 C16         3.4940    0.2050   -1.1910 ca        1 M8P     -0.127000
      7 C17         2.0750    0.1060   -1.2160 ca        1 M8P     -0.011000
      8 C18         1.3470    0.0670   -2.4360 ca        1 M8P     -0.137000
      9 C19        -0.0220   -0.0280   -2.4380 ca        1 M8P     -0.077000
     10 C10        -0.7350   -0.0890   -1.2120 ca        1 M8P     -0.131600
     11 C9         -2.2130   -0.1920   -1.1600 c         1 M8P      0.719100
     12 O8         -2.8260   -0.3010   -0.0750 o         1 M8P     -0.583100
     13 N2         -2.9050   -0.1720   -2.3950 ne        1 M8P     -0.716100
     14 C8         -4.2130   -0.1700   -2.4270 c2        1 M8P      0.570800
     15 S1         -5.3100   -0.1820   -1.0520 ss        1 M8P     -0.103300
     16 N1         -4.9230   -0.1660   -3.6360 n         1 M8P     -0.491400
     17 C7         -6.3200   -0.1450   -3.5360 c         1 M8P      0.690500
     18 O7         -7.0400   -0.1210   -4.5370 o         1 M8P     -0.555500
     19 C1         -6.8110   -0.1320   -2.0780 c3        1 M8P      0.094900
     20 O5         -7.4260    1.1010   -1.7640 os        1 M8P     -0.383600
     21 C5         -8.7110    1.3260   -2.3660 c3        1 M8P      0.081100
     22 C6         -9.1720    2.6840   -1.8260 c3        1 M8P      0.142400
     23 O6         -8.3660    3.7310   -2.3130 oh        1 M8P     -0.589800
     24 C4         -9.6910    0.2140   -1.9690 c3        1 M8P      0.130100
     25 O4        -10.9110    0.4720   -2.6390 oh        1 M8P     -0.588800
     26 C3         -9.1050   -1.1390   -2.4030 c3        1 M8P      0.104100
     27 O3        -10.0020   -2.1360   -1.9510 oh        1 M8P     -0.601800
     28 C2         -7.7250   -1.3210   -1.7440 c3        1 M8P      0.108100
     29 O2         -7.2120   -2.5420   -2.2390 oh        1 M8P     -0.589800
     30 H11        -0.6010   -0.1030    0.9440 ha        1 M8P      0.158000
     31 H13         1.5290    0.0340    2.1810 ha        1 M8P      0.137000
     32 H14         4.0230    0.2080    2.1740 ha        1 M8P      0.136000
     33 H15         5.2650    0.3170    0.0270 ha        1 M8P      0.135000
     34 H16         4.0360    0.2520   -2.1480 ha        1 M8P      0.136000
     35 H18         1.9050    0.1150   -3.3840 ha        1 M8P      0.138000
     36 H19        -0.5680   -0.0560   -3.3940 ha        1 M8P      0.155000
     37 H1         -4.4640   -0.1530   -4.5200 hn        1 M8P      0.363500
     38 H2         -7.8460   -1.3680   -0.6240 h1        1 M8P      0.078700
     39 H5         -8.5950    1.3620   -3.4850 h1        1 M8P      0.097700
     40 H61C       -9.1710    2.6710   -0.7040 h1        1 M8P      0.067700
     41 H62C      -10.2060    2.8900   -2.2160 h1        1 M8P      0.067700
     42 H4         -9.8620    0.2130   -0.8570 h1        1 M8P      0.059700
     43 H6         -7.4700    3.5760   -1.9890 ho        1 M8P      0.409000
     44 HA        -11.4680   -0.3070   -2.5010 ho        1 M8P      0.427000
     45 H3         -9.0000   -1.1840   -3.5240 h1        1 M8P      0.090700
     46 HB         -9.6390   -2.9850   -2.2390 ho        1 M8P      0.428000
     47 HC         -6.4490   -2.7750   -1.6920 ho        1 M8P      0.421000
@<TRIPOS>BOND
     1    1    2 ar  
     2    1   10 ar  
     3    1   30 1   
     4    2    3 ar  
     5    2    7 ar  
     6    3    4 ar  
     7    3   31 1   
     8    4    5 ar  
     9    4   32 1   
    10    5    6 ar  
    11    5   33 1   
    12    6    7 ar  
    13    6   34 1   
    14    7    8 ar  
    15    8    9 ar  
    16    8   35 1   
    17    9   10 ar  
    18    9   36 1   
    19   10   11 1   
    20   11   12 2   
    21   11   13 1   
    22   13   14 2   
    23   14   15 1   
    24   14   16 1   
    25   15   19 1   
    26   16   17 1   
    27   16   37 1   
    28   17   18 2   
    29   17   19 1   
    30   19   20 1   
    31   19   28 1   
    32   20   21 1   
    33   21   22 1   
    34   21   24 1   
    35   21   39 1   
    36   22   23 1   
    37   22   40 1   
    38   22   41 1   
    39   23   43 1   
    40   24   25 1   
    41   24   26 1   
    42   24   42 1   
    43   25   44 1   
    44   26   27 1   
    45   26   28 1   
    46   26   45 1   
    47   27   46 1   
    48   28   29 1   
    49   28   38 1   
    50   29   47 1   
@<TRIPOS>SUBSTRUCTURE
     1 M8P         1 TEMP              0 ****  ****    0 ROOT
