@<TRIPOS>MOLECULE
M8P
   47    50     1     0     0
SMALL
bcc


@<TRIPOS>ATOM
      1 C11        -0.0170   -0.1260    0.0030 ca        1 M8P     -0.050000
      2 C12         1.3960    0.0040    0.0190 ca        1 M8P     -0.060000
      3 C13         2.1280    0.0200    1.2380 ca        1 M8P     -0.105000
      4 C14         3.4950    0.1460    1.2270 ca        1 M8P     -0.133000
      5 C15         4.1930    0.2620   -0.0010 ca        1 M8P     -0.113000
      6 C16         3.5110    0.2500   -1.1920 ca        1 M8P     -0.127000
      7 C17         2.0950    0.1200   -1.2110 ca        1 M8P     -0.012000
      8 C18         1.3580    0.1040   -2.4260 ca        1 M8P     -0.138000
      9 C19        -0.0090   -0.0210   -2.4210 ca        1 M8P     -0.077000
     10 C10        -0.7110   -0.1380   -1.1930 ca        1 M8P     -0.130600
     11 C9         -2.1870   -0.2750   -1.1340 c         1 M8P      0.720100
     12 O8         -2.7850   -0.4390   -0.0480 o         1 M8P     -0.583100
     13 N2         -2.8860   -0.2250   -2.3630 ne        1 M8P     -0.720100
     14 C8         -4.1930   -0.2270   -2.3980 c2        1 M8P      0.575800
     15 S1         -5.3010   -0.2750   -1.0320 ss        1 M8P     -0.108300
     16 N1         -4.8970   -0.2020   -3.6110 ns        1 M8P     -0.491400
     17 C7         -6.2940   -0.1760   -3.5190 c         1 M8P      0.692500
     18 O7         -7.0080   -0.1430   -4.5250 o         1 M8P     -0.555500
     19 C1         -6.7940   -0.1800   -2.0650 c3        1 M8P      0.095900
     20 O5         -7.3900    1.0560   -1.7310 os        1 M8P     -0.367600
     21 C5         -8.6600    1.3170   -2.3520 c3        1 M8P      0.120100
     22 C6         -9.1000    2.6830   -1.8230 c3        1 M8P      0.137400
     23 O6         -8.4910    3.6600   -2.6500 oh        1 M8P     -0.594800
     24 C4         -9.6630    0.2220   -1.9570 c3        1 M8P      0.126100
     25 O4        -10.8860    0.5080   -2.6090 oh        1 M8P     -0.589800
     26 C3         -9.1050   -1.1380   -2.4090 c3        1 M8P      0.105100
     27 O3        -10.0240   -2.1220   -1.9720 oh        1 M8P     -0.602800
     28 C2         -7.7300   -1.3590   -1.7550 c3        1 M8P      0.107100
     29 O2         -7.2410   -2.5810   -2.2720 oh        1 M8P     -0.589800
     30 H11        -0.5600   -0.2170    0.9600 ha        1 M8P      0.158000
     31 H13         1.5760   -0.0710    2.1860 ha        1 M8P      0.137000
     32 H14         4.0650    0.1590    2.1680 ha        1 M8P      0.135000
     33 H15         5.2880    0.3620    0.0170 ha        1 M8P      0.135000
     34 H16         4.0440    0.3400   -2.1500 ha        1 M8P      0.136000
     35 H18         1.9080    0.1940   -3.3750 ha        1 M8P      0.137000
     36 H19        -0.5610   -0.0320   -3.3740 ha        1 M8P      0.155000
     37 H1         -4.4330   -0.1580   -4.4910 hn        1 M8P      0.362500
     38 H2         -7.8520   -1.4250   -0.6360 h1        1 M8P      0.077700
     39 H5         -8.5340    1.3490   -3.4710 h1        1 M8P      0.104700
     40 H61C      -10.2180    2.7570   -1.9060 h1        1 M8P      0.050700
     41 H62C       -8.7800    2.8080   -0.7550 h1        1 M8P      0.050700
     42 H4         -9.8230    0.2140   -0.8430 h1        1 M8P      0.057700
     43 H6         -8.5970    4.5060   -2.2000 ho        1 M8P      0.405000
     44 HA        -11.4480   -0.2700   -2.4900 ho        1 M8P      0.427000
     45 H3         -9.0020   -1.1690   -3.5310 h1        1 M8P      0.090700
     46 HB         -9.6770   -2.9740   -2.2700 ho        1 M8P      0.428000
     47 HC         -6.4700   -2.8280   -1.7410 ho        1 M8P      0.421000
@<TRIPOS>BOND
     1    1    2 ar  
     2    1   10 ar  
     3    1   30 1   
     4    2    3 ar  
     5    2    7 ar  
     6    3    4 ar  
     7    3   31 1   
     8    4    5 ar  
     9    4   32 1   
    10    5    6 ar  
    11    5   33 1   
    12    6    7 ar  
    13    6   34 1   
    14    7    8 ar  
    15    8    9 ar  
    16    8   35 1   
    17    9   10 ar  
    18    9   36 1   
    19   10   11 1   
    20   11   12 2   
    21   11   13 1   
    22   13   14 2   
    23   14   15 1   
    24   14   16 1   
    25   15   19 1   
    26   16   17 1   
    27   16   37 1   
    28   17   18 2   
    29   17   19 1   
    30   19   20 1   
    31   19   28 1   
    32   20   21 1   
    33   21   22 1   
    34   21   24 1   
    35   21   39 1   
    36   22   23 1   
    37   22   40 1   
    38   22   41 1   
    39   23   43 1   
    40   24   25 1   
    41   24   26 1   
    42   24   42 1   
    43   25   44 1   
    44   26   27 1   
    45   26   28 1   
    46   26   45 1   
    47   27   46 1   
    48   28   29 1   
    49   28   38 1   
    50   29   47 1   
@<TRIPOS>SUBSTRUCTURE
     1 M8P         1 TEMP              0 ****  ****    0 ROOT
