@<TRIPOS>MOLECULE
M8P
   47    50     1     0     0
SMALL
bcc


@<TRIPOS>ATOM
      1 C11        -0.0490   -0.0550   -0.0130 ca        1 M8P     -0.049000
      2 C12         1.3660    0.0460    0.0090 ca        1 M8P     -0.060000
      3 C13         2.0900    0.0850    1.2330 ca        1 M8P     -0.105000
      4 C14         3.4590    0.1830    1.2280 ca        1 M8P     -0.133000
      5 C15         4.1670    0.2460    0.0030 ca        1 M8P     -0.112000
      6 C16         3.4940    0.2100   -1.1930 ca        1 M8P     -0.127000
      7 C17         2.0750    0.1090   -1.2180 ca        1 M8P     -0.011000
      8 C18         1.3480    0.0690   -2.4380 ca        1 M8P     -0.137000
      9 C19        -0.0220   -0.0280   -2.4400 ca        1 M8P     -0.077000
     10 C10        -0.7350   -0.0910   -1.2140 ca        1 M8P     -0.131600
     11 C9         -2.2130   -0.1960   -1.1630 c         1 M8P      0.719100
     12 O8         -2.8250   -0.3140   -0.0790 o         1 M8P     -0.583100
     13 N2         -2.9050   -0.1660   -2.3970 ne        1 M8P     -0.716100
     14 C8         -4.2130   -0.1650   -2.4290 c2        1 M8P      0.570800
     15 S1         -5.3100   -0.1910   -1.0540 ss        1 M8P     -0.103300
     16 N1         -4.9240   -0.1520   -3.6380 n         1 M8P     -0.491400
     17 C7         -6.3200   -0.1330   -3.5370 c         1 M8P      0.690500
     18 O7         -7.0410   -0.1020   -4.5380 o         1 M8P     -0.555500
     19 C1         -6.8100   -0.1340   -2.0790 c3        1 M8P      0.094900
     20 O5         -7.4270    1.0950   -1.7540 os        1 M8P     -0.383600
     21 C5         -8.7130    1.3250   -2.3530 c3        1 M8P      0.081100
     22 C6         -9.1760    2.6760   -1.8020 c3        1 M8P      0.142400
     23 O6         -8.3710    3.7290   -2.2790 oh        1 M8P     -0.589800
     24 C4         -9.6910    0.2080   -1.9670 c3        1 M8P      0.130100
     25 O4        -10.9110    0.4700   -2.6340 oh        1 M8P     -0.588800
     26 C3         -9.1030   -1.1410   -2.4130 c3        1 M8P      0.104100
     27 O3         -9.9990   -2.1430   -1.9700 oh        1 M8P     -0.601800
     28 C2         -7.7230   -1.3270   -1.7560 c3        1 M8P      0.108100
     29 O2         -7.2080   -2.5430   -2.2610 oh        1 M8P     -0.589800
     30 H11        -0.6010   -0.1060    0.9410 ha        1 M8P      0.158000
     31 H13         1.5290    0.0350    2.1790 ha        1 M8P      0.137000
     32 H14         4.0220    0.2140    2.1730 ha        1 M8P      0.136000
     33 H15         5.2650    0.3250    0.0260 ha        1 M8P      0.135000
     34 H16         4.0360    0.2590   -2.1490 ha        1 M8P      0.136000
     35 H18         1.9060    0.1180   -3.3850 ha        1 M8P      0.138000
     36 H19        -0.5680   -0.0570   -3.3960 ha        1 M8P      0.155000
     37 H1         -4.4650   -0.1300   -4.5210 hn        1 M8P      0.363500
     38 H2         -7.8440   -1.3840   -0.6360 h1        1 M8P      0.078700
     39 H5         -8.5970    1.3710   -3.4720 h1        1 M8P      0.097700
     40 H61C       -9.1750    2.6540   -0.6800 h1        1 M8P      0.067700
     41 H62C      -10.2100    2.8850   -2.1890 h1        1 M8P      0.067700
     42 H4         -9.8630    0.1970   -0.8540 h1        1 M8P      0.059700
     43 H6         -7.4740    3.5720   -1.9570 ho        1 M8P      0.409000
     44 HA        -11.4670   -0.3110   -2.5040 ho        1 M8P      0.427000
     45 H3         -8.9990   -1.1760   -3.5340 h1        1 M8P      0.090700
     46 HB         -9.6350   -2.9890   -2.2650 ho        1 M8P      0.428000
     47 HC         -6.4450   -2.7790   -1.7160 ho        1 M8P      0.421000
@<TRIPOS>BOND
     1    1    2 ar  
     2    1   10 ar  
     3    1   30 1   
     4    2    3 ar  
     5    2    7 ar  
     6    3    4 ar  
     7    3   31 1   
     8    4    5 ar  
     9    4   32 1   
    10    5    6 ar  
    11    5   33 1   
    12    6    7 ar  
    13    6   34 1   
    14    7    8 ar  
    15    8    9 ar  
    16    8   35 1   
    17    9   10 ar  
    18    9   36 1   
    19   10   11 1   
    20   11   12 2   
    21   11   13 1   
    22   13   14 2   
    23   14   15 1   
    24   14   16 1   
    25   15   19 1   
    26   16   17 1   
    27   16   37 1   
    28   17   18 2   
    29   17   19 1   
    30   19   20 1   
    31   19   28 1   
    32   20   21 1   
    33   21   22 1   
    34   21   24 1   
    35   21   39 1   
    36   22   23 1   
    37   22   40 1   
    38   22   41 1   
    39   23   43 1   
    40   24   25 1   
    41   24   26 1   
    42   24   42 1   
    43   25   44 1   
    44   26   27 1   
    45   26   28 1   
    46   26   45 1   
    47   27   46 1   
    48   28   29 1   
    49   28   38 1   
    50   29   47 1   
@<TRIPOS>SUBSTRUCTURE
     1 M8P         1 TEMP              0 ****  ****    0 ROOT
