@<TRIPOS>MOLECULE
M8Y
   98   100     1     0     0
SMALL
bcc


@<TRIPOS>ATOM
      1 C1          2.1730    0.4350    0.1940 c3        1 M8Y      0.099800
      2 N1          4.1860   -0.5730    1.3160 n         1 M8Y     -0.561900
      3 O1          2.0930   -0.8380   -0.4330 oh        1 M8Y     -0.598800
      4 C2          3.3580    0.5220    1.1850 c         1 M8Y      0.637100
      5 N2         -1.9030   -0.0640    1.9810 n3        1 M8Y     -0.470600
      6 O2          3.5690    1.5790    1.8160 o         1 M8Y     -0.618100
      7 C3          5.3450   -0.5850    2.1720 c3        1 M8Y      0.035700
      8 N3         -2.3100   -1.1310    1.2190 n         1 M8Y     -0.432300
      9 C4          5.2480   -1.5580    3.3700 c3        1 M8Y     -0.074700
     10 N4         -3.4260   -2.0810   -2.0960 n         1 M8Y     -0.505900
     11 O4         -5.5640   -2.7510   -1.3370 o         1 M8Y     -0.583000
     12 C5          6.3680   -1.2550    4.3460 c3        1 M8Y     -0.094100
     13 N5          7.0270   -0.0090    0.4250 n         1 M8Y     -0.557900
     14 O5         -5.3670   -1.4190   -3.1510 os        1 M8Y     -0.436900
     15 C7          0.8630    0.6290    0.9700 c3        1 M8Y     -0.076400
     16 C8          0.5810   -0.5230    1.9070 c3        1 M8Y     -0.076400
     17 C9         -0.6600   -0.2840    2.7570 c3        1 M8Y      0.137800
     18 C10        -2.9590    0.4250    2.9020 c3        1 M8Y      0.202100
     19 C11        -4.2610    0.7690    2.2480 ca        1 M8Y     -0.070300
     20 C12        -2.2200   -1.1250   -0.1750 c         1 M8Y      0.652100
     21 C13        -2.7230   -2.4220   -0.8780 c3        1 M8Y      0.036700
     22 C14        -1.5290   -3.3910   -1.1260 c3        1 M8Y     -0.048000
     23 C15        -0.3850   -2.6910   -1.8370 c3        1 M8Y     -0.095767
     24 C16        -1.0470   -3.9240    0.2170 c3        1 M8Y     -0.095767
     25 C17        -2.0010   -4.5730   -1.9640 c3        1 M8Y     -0.095767
     26 C19        -6.7860   -1.5380   -3.2780 c3        1 M8Y      0.136700
     27 C20        -5.4550    0.4940    2.9250 ca        1 M8Y     -0.117000
     28 C21        -6.6800    0.8630    2.3730 ca        1 M8Y     -0.105500
     29 C22        -6.7210    1.5070    1.1330 ca        1 M8Y     -0.023900
     30 C23        -5.5320    1.7750    0.4500 ca        1 M8Y     -0.105500
     31 C24        -4.3080    1.4070    1.0050 ca        1 M8Y     -0.117000
     32 C25         2.3150    1.5580   -0.8510 c3        1 M8Y     -0.062100
     33 C26         3.6700    1.6130   -1.4630 ca        1 M8Y     -0.104300
     34 C27         4.0000    0.8170   -2.5660 ca        1 M8Y     -0.123000
     35 C28         5.3010    0.8120   -3.0670 ca        1 M8Y     -0.133500
     36 C29         6.2880    1.6150   -2.4840 ca        1 M8Y     -0.070300
     37 C30         5.9370    2.4700   -1.4310 ca        1 M8Y     -0.133500
     38 C31         4.6430    2.4630   -0.9200 ca        1 M8Y     -0.123000
     39 C32         7.6910    1.5540   -2.9790 c3        1 M8Y     -0.010900
     40 C33         8.7160    1.7200   -1.9160 c2        1 M8Y     -0.155200
     41 C34         6.5930   -0.9580    1.3200 c         1 M8Y      0.641100
     42 C35         3.9080   -1.4540    4.0640 c3        1 M8Y     -0.094100
     43 C36         8.8940    0.9360   -0.8500 c2        1 M8Y     -0.180200
     44 C37         8.0780   -0.2770   -0.5240 c3        1 M8Y      0.120200
     45 HN1         3.8810   -1.4470    0.9530 hn        1 M8Y      0.325500
     46 HO1         2.7430   -0.8490   -1.1490 ho        1 M8Y      0.412000
     47 H3          5.4880    0.4600    2.5880 h1        1 M8Y      0.101700
     48 HN3        -2.3470   -2.0300    1.6660 hn        1 M8Y      0.293500
     49 H4          5.3860   -2.6080    2.9850 hc        1 M8Y      0.074700
     50 HN4        -2.9920   -1.3890   -2.6720 hn        1 M8Y      0.333500
     51 H5          6.2560   -0.2300    4.7730 hc        1 M8Y      0.039533
     52 H5A         6.3490   -1.9920    5.1850 hc        1 M8Y      0.039533
     53 H5B         7.3580   -1.3300    3.8320 hc        1 M8Y      0.039533
     54 HN5         6.4880    0.8140    0.2830 hn        1 M8Y      0.323500
     55 H7          0.9410    1.5880    1.5450 hc        1 M8Y      0.083700
     56 H7A         0.0260    0.7240    0.2240 hc        1 M8Y      0.083700
     57 H8          0.4850   -1.4670    1.3100 hc        1 M8Y      0.051200
     58 H8A         1.4480   -0.6590    2.6110 hc        1 M8Y      0.051200
     59 H9         -0.4980    0.6560    3.3560 h1        1 M8Y      0.044200
     60 H9A        -0.7650   -1.1430    3.4840 h1        1 M8Y      0.044200
     61 H10        -3.1440   -0.3030    3.7450 h1        1 M8Y      0.050200
     62 H10A       -2.5440    1.3760    3.3490 h1        1 M8Y      0.050200
     63 H13        -3.4570   -2.9640   -0.2030 h1        1 M8Y      0.101700
     64 H15         0.0260   -1.8570   -1.2130 hc        1 M8Y      0.043478
     65 H15A        0.4360   -3.4210   -2.0360 hc        1 M8Y      0.043478
     66 H15B       -0.7260   -2.2690   -2.8130 hc        1 M8Y      0.043478
     67 H16        -1.9030   -4.3080    0.8230 hc        1 M8Y      0.043478
     68 H16A       -0.3310   -4.7660    0.0500 hc        1 M8Y      0.043478
     69 H16B       -0.5110   -3.1350    0.7960 hc        1 M8Y      0.043478
     70 H17        -2.2070   -4.2610   -3.0160 hc        1 M8Y      0.043478
     71 H17A       -1.2100   -5.3610   -1.9860 hc        1 M8Y      0.043478
     72 H17B       -2.9320   -5.0110   -1.5310 hc        1 M8Y      0.043478
     73 H19        -7.0650   -2.6040   -3.4520 h1        1 M8Y      0.054367
     74 H19A       -7.2850   -1.1550   -2.3560 h1        1 M8Y      0.054367
     75 H19B       -7.0160   -0.9000   -4.1670 h1        1 M8Y      0.054367
     76 H20        -5.4340   -0.0160    3.9000 ha        1 M8Y      0.149500
     77 H21        -7.6110    0.6400    2.9180 ha        1 M8Y      0.146500
     78 H23        -5.5520    2.2770   -0.5310 ha        1 M8Y      0.146500
     79 H24        -3.3750    1.6090    0.4500 ha        1 M8Y      0.149500
     80 H25         1.5360    1.3900   -1.6420 hc        1 M8Y      0.079200
     81 H25A        2.0900    2.5330   -0.3400 hc        1 M8Y      0.079200
     82 H27         3.2300    0.1900   -3.0410 ha        1 M8Y      0.144000
     83 H28         5.5540    0.1640   -3.9190 ha        1 M8Y      0.138500
     84 H30         6.6970    3.1360   -0.9950 ha        1 M8Y      0.138500
     85 H31         4.3830    3.1060   -0.0620 ha        1 M8Y      0.144000
     86 H32         7.8630    0.5700   -3.5010 hc        1 M8Y      0.060200
     87 H32A        7.8260    2.3600   -3.7540 hc        1 M8Y      0.060200
     88 H33         9.3990    2.5750   -2.0740 ha        1 M8Y      0.123000
     89 H35         3.1030   -1.9290    3.4520 hc        1 M8Y      0.039533
     90 H35A        3.9480   -1.9790    5.0500 hc        1 M8Y      0.039533
     91 H35B        3.6360   -0.3850    4.2420 hc        1 M8Y      0.039533
     92 H36         9.7000    1.1530   -0.1300 ha        1 M8Y      0.130000
     93 H37         8.7530   -1.0760   -0.0960 h1        1 M8Y      0.058200
     94 H37A        7.6230   -0.6890   -1.4740 h1        1 M8Y      0.058200
     95 O6          7.1670   -2.0570    1.4460 o         1 M8Y     -0.614100
     96 C18        -4.8120   -2.1210   -2.1000 c         1 M8Y      0.726100
     97 BR1        -8.3670    2.0070    0.3910 br        1 M8Y     -0.094100
     98 O3         -1.8620   -0.1380   -0.8410 o         1 M8Y     -0.589100
@<TRIPOS>BOND
     1    1    3 1   
     2    1    4 1   
     3    1   15 1   
     4    1   32 1   
     5    2    4 1   
     6    2    7 1   
     7    2   45 1   
     8    3   46 1   
     9    4    6 2   
    10    5    8 1   
    11    5   17 1   
    12    5   18 1   
    13    7    9 1   
    14    7   41 1   
    15    7   47 1   
    16    8   20 1   
    17    8   48 1   
    18    9   12 1   
    19    9   42 1   
    20    9   49 1   
    21   10   21 1   
    22   10   50 1   
    23   10   96 1   
    24   11   96 2   
    25   12   51 1   
    26   12   52 1   
    27   12   53 1   
    28   13   41 1   
    29   13   44 1   
    30   13   54 1   
    31   14   26 1   
    32   14   96 1   
    33   15   16 1   
    34   15   55 1   
    35   15   56 1   
    36   16   17 1   
    37   16   57 1   
    38   16   58 1   
    39   17   59 1   
    40   17   60 1   
    41   18   19 1   
    42   18   61 1   
    43   18   62 1   
    44   19   27 ar  
    45   19   31 ar  
    46   20   21 1   
    47   20   98 2   
    48   21   22 1   
    49   21   63 1   
    50   22   23 1   
    51   22   24 1   
    52   22   25 1   
    53   23   64 1   
    54   23   65 1   
    55   23   66 1   
    56   24   67 1   
    57   24   68 1   
    58   24   69 1   
    59   25   70 1   
    60   25   71 1   
    61   25   72 1   
    62   26   73 1   
    63   26   74 1   
    64   26   75 1   
    65   27   28 ar  
    66   27   76 1   
    67   28   29 ar  
    68   28   77 1   
    69   29   30 ar  
    70   29   97 1   
    71   30   31 ar  
    72   30   78 1   
    73   31   79 1   
    74   32   33 1   
    75   32   80 1   
    76   32   81 1   
    77   33   34 ar  
    78   33   38 ar  
    79   34   35 ar  
    80   34   82 1   
    81   35   36 ar  
    82   35   83 1   
    83   36   37 ar  
    84   36   39 1   
    85   37   38 ar  
    86   37   84 1   
    87   38   85 1   
    88   39   40 1   
    89   39   86 1   
    90   39   87 1   
    91   40   43 2   
    92   40   88 1   
    93   41   95 2   
    94   42   89 1   
    95   42   90 1   
    96   42   91 1   
    97   43   44 1   
    98   43   92 1   
    99   44   93 1   
   100   44   94 1   
@<TRIPOS>SUBSTRUCTURE
     1 M8Y         1 TEMP              0 ****  ****    0 ROOT
