@<TRIPOS>MOLECULE
M8Y
  103   104     1     0     0
SMALL
bcc


@<TRIPOS>ATOM
      1 C1         61.8430  -80.4960   12.3840 c3        1 M8Y      0.104000
      2 N1         62.1850  -78.0370   11.6310 n4        1 M8Y     -0.109000
      3 O1         62.6760  -80.6310   11.2430 oh        1 M8Y     -0.346000
      4 C2         61.8830  -78.9980   12.7710 c2        1 M8Y      0.269000
      5 N2         62.7620  -85.0040   14.3400 n3        1 M8Y     -0.204000
      6 O2         61.6660  -78.5280   13.8730 o         1 M8Y     -0.154000
      7 C3         62.0040  -76.5730   11.9250 c3        1 M8Y     -0.092000
      8 N3         63.1540  -85.8520   15.3920 n4        1 M8Y     -0.029000
      9 C4         63.3510  -75.8800   12.2850 c3        1 M8Y     -0.116000
     10 N4         65.2990  -88.7760   16.0330 n4        1 M8Y     -0.087000
     11 O4         63.2630  -88.7870   14.8320 o         1 M8Y     -0.322000
     12 C5         63.1520  -74.3860   12.4250 c3        1 M8Y     -0.243500
     13 N5         60.4640  -74.7490   10.9040 n4        1 M8Y     -0.096000
     14 O5         64.4540  -90.7540   15.0940 os        1 M8Y     -0.184000
     15 C7         62.4310  -81.3000   13.5600 c3        1 M8Y     -0.184000
     16 C8         62.3810  -82.7960   13.3060 c3        1 M8Y     -0.159000
     17 C9         62.9850  -83.5510   14.5020 c3        1 M8Y     -0.117000
     18 C10      -400.1980  522.1630  -73.8720 c2        1 M8Y      0.120000
     19 C11      -399.2700  521.1640  -73.9830 ca        1 M8Y     -0.191000
     20 C12        64.5330  -86.5040   15.3850 c2        1 M8Y      0.213000
     21 C13        64.8330  -87.4500   16.5580 c3        1 M8Y     -0.079000
     22 C14        65.8800  -86.7950   17.5230 c3        1 M8Y     -0.048000
     23 C15        67.2560  -86.7300   16.8870 c3        1 M8Y     -0.249333
     24 C16        65.3740  -85.3970   17.8410 c3        1 M8Y     -0.249333
     25 C17        65.9320  -87.6190   18.8020 c3        1 M8Y     -0.249333
     26 C19        63.4790  -91.5470   14.3410 c3        1 M8Y     -0.053000
     27 C20      -399.1450  520.1480  -72.9720 ca        1 M8Y      0.039000
     28 C21      -398.2080  519.1470  -73.0920 ca        1 M8Y     -0.170000
     29 C22      -397.3500  519.0960  -74.2130 ca        1 M8Y      0.014000
     30 C23      -397.4540  520.0830  -75.2190 ca        1 M8Y     -0.170000
     31 C24      -398.3850  521.0920  -75.1150 ca        1 M8Y      0.039000
     32 C25        60.3740  -80.8610   12.1040 c3        1 M8Y     -0.157000
     33 C26        59.6290  -79.8050   11.3670 ca        1 M8Y     -0.164000
     34 C27        59.8810  -79.5670   10.0080 ca        1 M8Y     -0.133500
     35 C28        59.1600  -78.5960    9.3170 ca        1 M8Y     -0.126500
     36 C29        58.1680  -77.8530    9.9710 ca        1 M8Y     -0.054000
     37 C30        57.8770  -78.1320   11.3120 ca        1 M8Y     -0.126500
     38 C31        58.6000  -79.1000   12.0050 ca        1 M8Y     -0.133500
     39 C32        57.4010  -76.8130    9.2280 c3        1 M8Y     -0.153000
     40 C33        57.1710  -75.5810   10.0280 c2        1 M8Y     -0.020000
     41 C34        61.4150  -75.8740   10.6850 c2        1 M8Y      0.217000
     42 C35        63.9020  -76.4590   13.5710 c3        1 M8Y     -0.243500
     43 C36        58.0620  -74.6160   10.2990 c2        1 M8Y     -0.291000
     44 C37        59.4480  -74.5620    9.7800 c3        1 M8Y     -0.072000
     45 HN1        61.5880  -78.3270   10.8310 hn        1 M8Y      0.284500
     46 HO1        62.3830  -81.4030   10.7340 ho        1 M8Y      0.264000
     47 H3         61.3060  -76.4880   12.8150 hx        1 M8Y      0.187000
     48 HN3        63.0380  -85.3560   16.2960 hn        1 M8Y      0.295000
     49 H4         64.0870  -76.0620   11.4480 hc        1 M8Y      0.138000
     50 HN4        65.5730  -89.3750   16.8360 hn        1 M8Y      0.304500
     51 H5         62.2710  -74.1420   13.0660 hc        1 M8Y      0.112333
     52 H5A        64.0560  -73.9380   12.9220 hc        1 M8Y      0.112333
     53 H5B        63.0650  -73.8910   11.4270 hc        1 M8Y      0.112333
     54 HN5        59.9570  -74.8870   11.7890 hn        1 M8Y      0.274000
     55 H7         63.4970  -80.9810   13.7080 hc        1 M8Y      0.127000
     56 H7A        61.8550  -81.0440   14.4890 hc        1 M8Y      0.127000
     57 H8         62.9570  -83.0380   12.3730 hc        1 M8Y      0.119500
     58 H8A        61.3160  -83.1180   13.1510 hc        1 M8Y      0.119500
     59 H9         62.4600  -83.2150   15.4420 h1        1 M8Y      0.121000
     60 H9A        64.0790  -83.2920   14.5880 h1        1 M8Y      0.121000
     61 H10      -400.3050  522.9490  -74.6410 ha        1 M8Y      0.170000
     62 H10A     -400.8840  522.2300  -73.0070 ha        1 M8Y      0.170000
     63 H13        63.8920  -87.6550   17.1600 hx        1 M8Y      0.179000
     64 H15        67.7490  -87.7330   16.8600 hc        1 M8Y      0.116111
     65 H15A       67.9170  -86.0640   17.5030 hc        1 M8Y      0.116111
     66 H15B       67.2140  -86.3070   15.8540 hc        1 M8Y      0.116111
     67 H16        64.3420  -85.4260   18.2680 hc        1 M8Y      0.116111
     68 H16A       65.3990  -84.7430   16.9360 hc        1 M8Y      0.116111
     69 H16B       66.0450  -84.9320   18.6130 hc        1 M8Y      0.116111
     70 H17        66.3910  -88.6230   18.6340 hc        1 M8Y      0.116111
     71 H17A       66.5770  -87.0880   19.5530 hc        1 M8Y      0.116111
     72 H17B       64.9180  -87.7420   19.2530 hc        1 M8Y      0.116111
     73 H19        63.9530  -92.5660   14.4040 h1        1 M8Y      0.153000
     74 H19A       63.4280  -91.1630   13.2950 h1        1 M8Y      0.153000
     75 H19B       62.4930  -91.5010   14.8600 h1        1 M8Y      0.153000
     76 H20      -399.8150  520.1840  -72.0930 ha        1 M8Y      0.180000
     77 H21      -398.1260  518.3740  -72.3040 ha        1 M8Y      0.198000
     78 H23      -396.7820  520.0440  -76.0970 ha        1 M8Y      0.198000
     79 H24      -398.4640  521.8630  -75.9040 ha        1 M8Y      0.180000
     80 H25        59.8680  -81.0720   13.0860 hc        1 M8Y      0.139500
     81 H25A       60.3560  -81.8150   11.5070 hc        1 M8Y      0.139500
     82 H27        60.6210  -80.1820    9.4690 ha        1 M8Y      0.157000
     83 H28        59.3470  -78.4400    8.2390 ha        1 M8Y      0.174500
     84 H30        57.0470  -77.6060   11.8150 ha        1 M8Y      0.174500
     85 H31        58.3350  -79.3270   13.0520 ha        1 M8Y      0.157000
     86 H32        57.9180  -76.5560    8.2610 hc        1 M8Y      0.148000
     87 H32A       56.4020  -77.2570    8.9370 hc        1 M8Y      0.148000
     88 H33        56.1310  -75.4560   10.3980 ha        1 M8Y      0.181000
     89 H35        64.8380  -75.9110   13.8550 hc        1 M8Y      0.112333
     90 H35A       64.1610  -77.5380   13.4560 hc        1 M8Y      0.112333
     91 H35B       63.1690  -76.3520   14.4090 hc        1 M8Y      0.112333
     92 H36        57.7380  -73.7210   10.8630 ha        1 M8Y      0.176000
     93 H37        59.6390  -75.3470    8.9910 hx        1 M8Y      0.169000
     94 H37A       59.6530  -73.5450    9.3250 hx        1 M8Y      0.169000
     95 O6         61.7110  -76.1910    9.5410 o         1 M8Y     -0.141000
     96 BR1      -396.0940  517.7450  -74.3640 br        1 M8Y      0.222000
     97 O3         65.2830  -86.2640   14.4540 o         1 M8Y     -0.136000
     98 H12        63.1670  -78.2080   11.3520 hn        1 M8Y      0.284500
     99 H211       63.2020  -85.3230   13.4770 hn        1 M8Y      0.227000
    100 H321       62.4590  -86.6370   15.3490 hn        1 M8Y      0.295000
    101 H42        66.1350  -88.6530   15.4350 hn        1 M8Y      0.304500
    102 H52        61.0190  -73.8790   10.9900 hn        1 M8Y      0.274000
    103 C18        64.2100  -89.4580   15.2380 c2        1 M8Y      0.368000
@<TRIPOS>BOND
     1    1    3 1   
     2    1    4 1   
     3    1   15 1   
     4    1   32 1   
     5    2    4 1   
     6    2    7 1   
     7    2   45 1   
     8    2   98 1   
     9    3   46 1   
    10    4    6 1   
    11    5    8 1   
    12    5   17 1   
    13    5   99 1   
    14    7    9 1   
    15    7   41 1   
    16    7   47 1   
    17    8   20 1   
    18    8   48 1   
    19    8  100 1   
    20    9   12 1   
    21    9   42 1   
    22    9   49 1   
    23   10   21 1   
    24   10   50 1   
    25   10  101 1   
    26   10  103 1   
    27   11  103 1   
    28   12   51 1   
    29   12   52 1   
    30   12   53 1   
    31   13   41 1   
    32   13   44 1   
    33   13   54 1   
    34   13  102 1   
    35   14   26 1   
    36   14  103 1   
    37   15   16 1   
    38   15   55 1   
    39   15   56 1   
    40   16   17 1   
    41   16   57 1   
    42   16   58 1   
    43   17   59 1   
    44   17   60 1   
    45   18   19 1   
    46   18   61 1   
    47   18   62 1   
    48   19   27 1   
    49   19   31 1   
    50   20   21 1   
    51   20   97 1   
    52   21   22 1   
    53   21   63 1   
    54   22   23 1   
    55   22   24 1   
    56   22   25 1   
    57   23   64 1   
    58   23   65 1   
    59   23   66 1   
    60   24   67 1   
    61   24   68 1   
    62   24   69 1   
    63   25   70 1   
    64   25   71 1   
    65   25   72 1   
    66   26   73 1   
    67   26   74 1   
    68   26   75 1   
    69   27   28 1   
    70   27   76 1   
    71   28   29 1   
    72   28   77 1   
    73   29   30 1   
    74   29   96 1   
    75   30   31 1   
    76   30   78 1   
    77   31   79 1   
    78   32   33 1   
    79   32   80 1   
    80   32   81 1   
    81   33   34 1   
    82   33   38 1   
    83   34   35 1   
    84   34   82 1   
    85   35   36 1   
    86   35   83 1   
    87   36   37 1   
    88   36   39 1   
    89   37   38 1   
    90   37   84 1   
    91   38   85 1   
    92   39   40 1   
    93   39   86 1   
    94   39   87 1   
    95   40   43 1   
    96   40   88 1   
    97   41   95 1   
    98   42   89 1   
    99   42   90 1   
   100   42   91 1   
   101   43   44 1   
   102   43   92 1   
   103   44   93 1   
   104   44   94 1   
@<TRIPOS>SUBSTRUCTURE
     1 M8Y         1 TEMP              0 ****  ****    0 ROOT
