@<TRIPOS>MOLECULE
M90
   95    98     1     0     0
SMALL
bcc


@<TRIPOS>ATOM
      1 C1         -6.0320   -3.4660    0.3490 c3        1 M90      0.173500
      2 N1         -5.9250   -4.8400    0.8100 n3        1 M90     -0.913800
      3 O1         -3.0290   -0.1880   -1.4770 o         1 M90     -0.603000
      4 C2         -5.2480   -3.2470   -0.9550 c3        1 M90     -0.109400
      5 N2         -5.0430   -0.8080   -0.4070 n         1 M90     -0.394800
      6 O2         -3.3750    0.4460    0.6560 os        1 M90     -0.426900
      7 C3         -5.5260   -2.4700    1.4050 c3        1 M90     -0.109400
      8 N3         -0.6260   -0.4970    0.2560 n         1 M90     -0.555900
      9 C4         -5.3780   -1.7980   -1.4190 c3        1 M90      0.072000
     10 N4          2.3710    0.3020    0.7690 n         1 M90     -0.556900
     11 C5         -5.6600   -1.0380    0.8870 c3        1 M90      0.072000
     12 N5          8.4570   -4.4120   -0.7500 nb        1 M90     -0.691000
     13 O5          4.9160    0.8880    2.1960 oh        1 M90     -0.583800
     14 C6         -3.7810   -0.2280   -0.4850 c         1 M90      0.732100
     15 C7         -2.2680    1.3500    0.5140 c3        1 M90      0.100100
     16 C8         -0.9850    0.6270    0.9600 c         1 M90      0.649100
     17 C9         -2.5580    2.5380    1.4310 c3        1 M90     -0.036100
     18 C10        -3.5280    3.4910    0.8270 ca        1 M90     -0.087300
     19 C11        -3.1550    4.2790   -0.2700 ca        1 M90     -0.123500
     20 C12        -4.8130    3.6290    1.3640 ca        1 M90     -0.123500
     21 C13        -4.0560    5.1860   -0.8220 ca        1 M90     -0.128000
     22 C14        -5.7120    4.5400    0.8100 ca        1 M90     -0.128000
     23 C15        -5.3360    5.3180   -0.2840 ca        1 M90     -0.126000
     24 C16         0.4860   -1.3260    0.6450 c3        1 M90      0.059700
     25 C17         0.3610   -2.7690    0.1600 c3        1 M90     -0.028300
     26 C18        -0.9910   -5.1400    0.2760 c3        1 M90     -0.041000
     27 C19         1.8220   -0.7580    0.0830 c         1 M90      0.634100
     28 C20         3.4560    1.0870    0.2210 c3        1 M90      0.065700
     29 C21         3.2900    2.5960    0.4590 c3        1 M90     -0.089400
     30 C22         1.9780    3.1800   -0.0350 c3        1 M90     -0.068700
     31 C23         1.8270    3.0370   -1.5430 c3        1 M90     -0.075400
     32 C24         1.9060    4.6520    0.3590 c3        1 M90     -0.075400
     33 C25         0.5390    3.6690   -2.0290 c3        1 M90     -0.075900
     34 C26         0.6160    5.2830   -0.1190 c3        1 M90     -0.075900
     35 C27         0.4430    5.1230   -1.6150 c3        1 M90     -0.080400
     36 C28         4.8420    0.6800    0.8010 c3        1 M90      0.128100
     37 C29         5.1780   -0.7640    0.4190 c3        1 M90      0.089400
     38 C30         7.1420   -2.0210   -0.0620 ca        1 M90      0.163100
     39 C31         6.4020   -3.1770   -0.3470 ca        1 M90     -0.298800
     40 C32         7.1150   -4.3410   -0.6850 ca        1 M90      0.419200
     41 C33         9.1460   -3.2850   -0.4720 ca        1 M90      0.419200
     42 C34         8.5500   -2.0670   -0.1240 ca        1 M90     -0.298800
     43 H1         -7.1150   -3.1940    0.1310 h1        1 M90      0.007700
     44 HN1        -6.4110   -4.9540    1.6770 hn        1 M90      0.353300
     45 HN1A       -6.3050   -5.4640    0.1270 hn        1 M90      0.353300
     46 H2         -4.1690   -3.5090   -0.7990 hc        1 M90      0.063450
     47 H2A        -5.6490   -3.9100   -1.7640 hc        1 M90      0.063450
     48 H3         -6.1310   -2.5600    2.3440 hc        1 M90      0.063450
     49 H3A        -4.4580   -2.6940    1.6600 hc        1 M90      0.063450
     50 HN3        -1.1790   -0.7930   -0.5210 hn        1 M90      0.351500
     51 H4         -4.7290   -1.6370   -2.3260 h1        1 M90      0.071200
     52 H4A        -6.4500   -1.5950   -1.7070 h1        1 M90      0.071200
     53 HN4         1.8230    0.7370    1.4830 hn        1 M90      0.339500
     54 H5         -5.2310   -0.3280    1.6470 h1        1 M90      0.071200
     55 H5A        -6.7550   -0.7960    0.7570 h1        1 M90      0.071200
     56 HO5         4.3110    0.2700    2.6220 ho        1 M90      0.402000
     57 H7         -2.1530    1.6860   -0.5560 h1        1 M90      0.104700
     58 H9         -2.9390    2.1540    2.4140 hc        1 M90      0.081700
     59 H9A        -1.5820    3.0640    1.6270 hc        1 M90      0.081700
     60 H11        -2.1420    4.1840   -0.6940 ha        1 M90      0.134500
     61 H12        -5.1140    3.0150    2.2260 ha        1 M90      0.134500
     62 H13        -3.7560    5.8000   -1.6840 ha        1 M90      0.132500
     63 H14        -6.7200    4.6430    1.2390 ha        1 M90      0.132500
     64 H15        -6.0460    6.0350   -0.7200 ha        1 M90      0.132000
     65 H16         0.5500   -1.3280    1.7780 h1        1 M90      0.095700
     66 H17         1.3100   -3.3070    0.4090 h1        1 M90      0.084700
     67 H17A        0.2470   -2.8070   -0.9520 h1        1 M90      0.084700
     68 H18        -0.0600   -5.6910    0.5360 h1        1 M90      0.067367
     69 H18A       -1.8670   -5.6750    0.7130 h1        1 M90      0.067367
     70 H18B       -1.0940   -5.1180   -0.8310 h1        1 M90      0.067367
     71 H20         3.5040    0.8960   -0.8960 h1        1 M90      0.080700
     72 H21         3.3970    2.8010    1.5580 hc        1 M90      0.060200
     73 H21A        4.1410    3.1100   -0.0620 hc        1 M90      0.060200
     74 H22         1.1170    2.6500    0.4640 hc        1 M90      0.055700
     75 H23         2.7000    3.5230   -2.0520 hc        1 M90      0.042950
     76 H23A        1.8340    1.9510   -1.8220 hc        1 M90      0.042950
     77 H24         1.9780    4.7440    1.4740 hc        1 M90      0.042950
     78 H24A        2.7790    5.1990   -0.0840 hc        1 M90      0.042950
     79 H25         0.4850    3.5910   -3.1460 hc        1 M90      0.038700
     80 H25A       -0.3360    3.1030   -1.6110 hc        1 M90      0.038700
     81 H26        -0.2520    4.8060    0.4120 hc        1 M90      0.038700
     82 H26A        0.6120    6.3730    0.1450 hc        1 M90      0.038700
     83 H27         1.2330    5.7150   -2.1470 hc        1 M90      0.039700
     84 H27A       -0.5530    5.5360   -1.9250 hc        1 M90      0.039700
     85 H28         5.6250    1.3760    0.3800 h1        1 M90      0.100700
     86 H29         4.6930   -1.0480   -0.5530 h1        1 M90      0.062700
     87 H29A        4.8670   -1.4790    1.2240 h1        1 M90      0.062700
     88 H31         5.3060   -3.1890   -0.3200 ha        1 M90      0.155500
     89 H32         6.5730   -5.2750   -0.9190 h4        1 M90      0.021100
     90 H33        10.2460   -3.3710   -0.5330 h4        1 M90      0.021100
     91 H34         9.1460   -1.1730    0.0960 ha        1 M90      0.155500
     92 O3         -0.2810    1.0630    1.8950 o         1 M90     -0.630100
     93 S1         -1.0140   -3.5300    0.9690 ss        1 M90     -0.289200
     94 O4          2.3750   -1.2760   -0.9070 o         1 M90     -0.617100
     95 O6          6.6060   -0.8010    0.2760 os        1 M90     -0.321900
@<TRIPOS>BOND
     1    1    2 1   
     2    1    4 1   
     3    1    7 1   
     4    1   43 1   
     5    2   44 1   
     6    2   45 1   
     7    3   14 2   
     8    4    9 1   
     9    4   46 1   
    10    4   47 1   
    11    5    9 1   
    12    5   11 1   
    13    5   14 1   
    14    6   14 1   
    15    6   15 1   
    16    7   11 1   
    17    7   48 1   
    18    7   49 1   
    19    8   16 1   
    20    8   24 1   
    21    8   50 1   
    22    9   51 1   
    23    9   52 1   
    24   10   27 1   
    25   10   28 1   
    26   10   53 1   
    27   11   54 1   
    28   11   55 1   
    29   12   40 ar  
    30   12   41 ar  
    31   13   36 1   
    32   13   56 1   
    33   15   16 1   
    34   15   17 1   
    35   15   57 1   
    36   16   92 2   
    37   17   18 1   
    38   17   58 1   
    39   17   59 1   
    40   18   19 ar  
    41   18   20 ar  
    42   19   21 ar  
    43   19   60 1   
    44   20   22 ar  
    45   20   61 1   
    46   21   23 ar  
    47   21   62 1   
    48   22   23 ar  
    49   22   63 1   
    50   23   64 1   
    51   24   25 1   
    52   24   27 1   
    53   24   65 1   
    54   25   66 1   
    55   25   67 1   
    56   25   93 1   
    57   26   68 1   
    58   26   69 1   
    59   26   70 1   
    60   26   93 1   
    61   27   94 2   
    62   28   29 1   
    63   28   36 1   
    64   28   71 1   
    65   29   30 1   
    66   29   72 1   
    67   29   73 1   
    68   30   31 1   
    69   30   32 1   
    70   30   74 1   
    71   31   33 1   
    72   31   75 1   
    73   31   76 1   
    74   32   34 1   
    75   32   77 1   
    76   32   78 1   
    77   33   35 1   
    78   33   79 1   
    79   33   80 1   
    80   34   35 1   
    81   34   81 1   
    82   34   82 1   
    83   35   83 1   
    84   35   84 1   
    85   36   37 1   
    86   36   85 1   
    87   37   86 1   
    88   37   87 1   
    89   37   95 1   
    90   38   39 ar  
    91   38   42 ar  
    92   38   95 1   
    93   39   40 ar  
    94   39   88 1   
    95   40   89 1   
    96   41   42 ar  
    97   41   90 1   
    98   42   91 1   
@<TRIPOS>SUBSTRUCTURE
     1 M90         1 TEMP              0 ****  ****    0 ROOT
