@<TRIPOS>MOLECULE
M91
   95    95     1     0     0
SMALL
bcc


@<TRIPOS>ATOM
      1 C1          3.6120    7.4990    3.3840 c3        1 M91     -0.025000
      2 N1          3.9260    8.9570    3.5670 n3        1 M91     -0.346000
      3 O1          3.2730    3.4230    0.3400 o         1 M91     -0.427000
      4 S1          1.4410   -1.0550    1.3070 ss        1 M91      0.047000
      5 C2          4.5720    6.9130    2.4220 c3        1 M91     -0.185000
      6 N2          2.8070    5.3520    1.5850 n         1 M91     -0.263000
      7 O2          1.0490    4.0890    0.3460 os        1 M91     -0.272000
      8 C3          2.2000    7.3660    2.9250 c3        1 M91     -0.185000
      9 N3         -0.0090    0.8130   -0.6660 n         1 M91     -0.354000
     10 O3          2.1870    1.4930    0.0870 o         1 M91     -0.377000
     11 C4          4.2120    5.4800    2.0380 c3        1 M91     -0.037500
     12 N4         -0.7950   -2.8340   -1.0700 n         1 M91     -0.384000
     13 O4         -1.8290   -1.0140   -0.0810 o         1 M91     -0.358000
     14 C5          1.8450    5.9320    2.5410 c3        1 M91     -0.037500
     15 N5         -1.0500   -3.9080    3.1020 n         1 M91     -0.227000
     16 O5          0.1800   -4.3410    0.6820 oh        1 M91     -0.326000
     17 C6          2.4130    4.2350    0.7450 c2        1 M91      0.393000
     18 O6          0.2560   -2.0040    3.3320 o         1 M91     -0.374000
     19 C7          0.8730    3.3350   -0.8020 c3        1 M91      0.052000
     20 C8          1.1200    1.8380   -0.4770 c2        1 M91      0.288000
     21 C9          1.8610    3.7940   -1.8750 c3        1 M91     -0.139000
     22 C10         1.0620    4.4160   -3.1040 c2        1 M91     -0.085000
     23 C11         1.3710    5.6970   -3.5550 c2        1 M91     -0.124000
     24 C12         0.1200    3.6370   -3.7980 c1        1 M91     -0.132000
     25 C13         0.7490    6.2040   -4.6860 c1        1 M91     -0.131000
     26 C14        -0.5020    4.1440   -4.9290 c1        1 M91     -0.127500
     27 C15        -0.1920    5.4270   -5.3780 c1        1 M91     -0.127500
     28 C16         0.2950   -0.4730   -1.0890 c3        1 M91      0.009000
     29 C17         1.6230   -0.9070   -0.4780 c3        1 M91     -0.288000
     30 C18         2.8610   -1.8450    1.9810 c3        1 M91     -0.334000
     31 C19        -0.8310   -1.4510   -0.6370 c2        1 M91      0.290000
     32 C20        -1.7250   -3.7520   -0.5610 c3        1 M91     -0.001000
     33 C21        -1.9410   -4.9160   -1.6110 c3        1 M91     -0.167000
     34 C22        -3.1570   -4.8400   -2.1020 c3        1 M91     -0.102000
     35 C23        -3.2510   -5.4610   -3.5860 c3        1 M91     -0.154000
     36 C24        -4.1570   -5.8970   -1.3920 c3        1 M91     -0.154000
     37 C25        -4.6450   -5.4140   -4.1650 c3        1 M91     -0.153000
     38 C26        -5.5630   -5.8540   -1.9520 c3        1 M91     -0.153000
     39 C27        -5.5910   -5.2540   -3.1890 c3        1 M91     -0.155000
     40 C28        -1.2060   -4.3210    0.7230 c3        1 M91     -0.010000
     41 C29        -1.6660   -3.4460    1.9040 c3        1 M91     -0.089000
     42 C30        -0.0340   -3.0750    3.7780 c2        1 M91      0.321000
     43 C31         0.6340   -3.5740    5.0390 c2        1 M91     -0.245000
     44 C32         0.2130   -4.8370    5.6360 c1        1 M91     -0.036000
     45 C33        -0.8090   -5.6680    4.9590 c1        1 M91     -0.263000
     46 C34        -1.4730   -5.1690    3.6960 c2        1 M91      0.025000
     47 H1          3.7100    7.0470    4.2360 h1        1 M91      0.051000
     48 HN1         4.7690    9.1000    3.3860 hn        1 M91      0.148000
     49 HN1A        3.7610    9.1890    4.3950 hn        1 M91      0.148000
     50 H2          4.5840    7.4570    1.6240 hc        1 M91      0.098750
     51 H2A         5.4830    6.9180    2.8300 hc        1 M91      0.098750
     52 H3          1.6090    7.6570    3.6390 hc        1 M91      0.098750
     53 H3A         2.0620    7.9630    2.1220 hc        1 M91      0.098750
     54 HN3        -0.8470    1.0700   -0.6180 hn        1 M91      0.262000
     55 H4          4.3440    4.9130    2.8010 h1        1 M91      0.112500
     56 H4A         4.7880    5.1960    1.3390 h1        1 M91      0.112500
     57 HN4        -0.2400   -3.0810   -1.7200 hn        1 M91      0.224000
     58 H5          0.9090    5.9240    2.1190 h1        1 M91      0.112500
     59 H5A         1.8320    5.3740    3.3590 h1        1 M91      0.112500
     60 HO5         0.4580   -5.1550    0.7550 ho        1 M91      0.196000
     61 H7         -0.0300    3.4510   -1.1260 h1        1 M91      0.160000
     62 H9          2.3910    3.0210   -2.1850 hc        1 M91      0.117000
     63 H9A         2.4600    4.4700   -1.5000 hc        1 M91      0.117000
     64 H11         2.0300    6.2420   -3.0700 ha        1 M91      0.131000
     65 H12        -0.0990    2.7340   -3.4800 ha        1 M91      0.157000
     66 H13         0.9570    7.0690   -4.9890 ha        1 M91      0.131000
     67 H14        -1.1600    3.6000   -5.4140 ha        1 M91      0.132500
     68 H15        -0.6440    5.7950   -6.2000 ha        1 M91      0.132500
     69 H16         0.3650   -0.4870   -2.0670 h1        1 M91      0.147000
     70 H17         1.8920   -1.7860   -0.8580 h1        1 M91      0.123000
     71 H17A        2.3250   -0.2260   -0.6860 h1        1 M91      0.123000
     72 H18         3.0320   -2.6530    1.5090 h1        1 M91      0.114000
     73 H18A        2.7130   -2.0350    2.8700 h1        1 M91      0.114000
     74 H18B        3.5920   -1.2830    1.9040 h1        1 M91      0.114000
     75 H20        -2.5860   -3.2930   -0.3960 h1        1 M91      0.138000
     76 H21        -1.8230   -5.7800   -1.1710 hc        1 M91      0.094500
     77 H21A       -1.2760   -4.8260   -2.3510 hc        1 M91      0.094500
     78 H22        -3.5170   -3.9150   -2.0700 hc        1 M91      0.095000
     79 H23        -2.9610   -6.3800   -3.5540 hc        1 M91      0.081000
     80 H23A       -2.6640   -4.9730   -4.1610 hc        1 M91      0.081000
     81 H24        -3.7780   -6.8480   -1.5250 hc        1 M91      0.081000
     82 H24A       -4.1920   -5.6970   -0.4030 hc        1 M91      0.081000
     83 H25        -4.7050   -4.6420   -4.8170 hc        1 M91      0.078250
     84 H25A       -4.8070   -6.2020   -4.6160 hc        1 M91      0.078250
     85 H26        -5.8980   -6.7540   -2.0310 hc        1 M91      0.078250
     86 H26A       -6.1680   -5.3240   -1.3050 hc        1 M91      0.078250
     87 H27        -6.4670   -5.5170   -3.6070 hc        1 M91      0.079500
     88 H27A       -5.6350   -4.3540   -3.0290 hc        1 M91      0.079500
     89 H28        -1.5490   -5.2430    0.8410 h1        1 M91      0.138000
     90 H29        -2.6410   -3.5020    1.9960 h1        1 M91      0.139000
     91 H29A       -1.4140   -2.5480    1.7470 h1        1 M91      0.139000
     92 H31         1.3050   -3.0250    5.4840 ha        1 M91      0.159000
     93 H32         0.6520   -5.1650    6.4660 ha        1 M91      0.136000
     94 H33        -1.0890   -6.5030    5.3530 ha        1 M91      0.149000
     95 H34        -2.1630   -5.7310    3.2390 h4        1 M91      0.159000
@<TRIPOS>BOND
     1    1    2 1   
     2    1    5 1   
     3    1    8 1   
     4    1   47 1   
     5    2   48 1   
     6    2   49 1   
     7    3   17 1   
     8    4   29 1   
     9    4   30 1   
    10    5   11 1   
    11    5   50 1   
    12    5   51 1   
    13    6   11 1   
    14    6   14 1   
    15    6   17 1   
    16    7   17 1   
    17    7   19 1   
    18    8   14 1   
    19    8   52 1   
    20    8   53 1   
    21    9   20 1   
    22    9   28 1   
    23    9   54 1   
    24   10   20 1   
    25   11   55 1   
    26   11   56 1   
    27   12   31 1   
    28   12   32 1   
    29   12   57 1   
    30   13   31 1   
    31   14   58 1   
    32   14   59 1   
    33   15   41 1   
    34   15   42 1   
    35   15   46 1   
    36   16   40 1   
    37   16   60 1   
    38   18   42 1   
    39   19   20 1   
    40   19   21 1   
    41   19   61 1   
    42   21   22 1   
    43   21   62 1   
    44   21   63 1   
    45   22   23 1   
    46   22   24 1   
    47   23   25 1   
    48   23   64 1   
    49   24   65 1   
    50   25   66 1   
    51   26   27 1   
    52   26   67 1   
    53   27   68 1   
    54   28   29 1   
    55   28   31 1   
    56   28   69 1   
    57   29   70 1   
    58   29   71 1   
    59   30   72 1   
    60   30   73 1   
    61   30   74 1   
    62   32   33 1   
    63   32   40 1   
    64   32   75 1   
    65   33   34 1   
    66   33   76 1   
    67   33   77 1   
    68   34   35 1   
    69   34   36 1   
    70   34   78 1   
    71   35   37 1   
    72   35   79 1   
    73   35   80 1   
    74   36   38 1   
    75   36   81 1   
    76   36   82 1   
    77   37   39 1   
    78   37   83 1   
    79   37   84 1   
    80   38   39 1   
    81   38   85 1   
    82   38   86 1   
    83   39   87 1   
    84   39   88 1   
    85   40   41 1   
    86   40   89 1   
    87   41   90 1   
    88   41   91 1   
    89   42   43 1   
    90   43   44 1   
    91   43   92 1   
    92   44   93 1   
    93   45   46 1   
    94   45   94 1   
    95   46   95 1   
@<TRIPOS>SUBSTRUCTURE
     1 M91         1 TEMP              0 ****  ****    0 ROOT
