@<TRIPOS>MOLECULE
M91
   95    98     1     0     0
SMALL
bcc


@<TRIPOS>ATOM
      1 C1         -6.2710   -3.2000   -0.3360 c3        1 M91      0.172500
      2 N1         -5.9860   -4.6220   -0.2310 n3        1 M91     -0.916800
      3 O1         -3.7420    0.6730   -1.5790 o         1 M91     -0.595000
      4 C2         -5.6770   -2.5910   -1.6170 c3        1 M91     -0.113400
      5 N2         -5.5860   -0.3460   -0.5040 n         1 M91     -0.386800
      6 O2         -3.7740    0.5660    0.6700 os        1 M91     -0.430900
      7 C3         -5.7290   -2.4320    0.8810 c3        1 M91     -0.113400
      8 N3         -1.1490   -0.2930   -0.4800 n         1 M91     -0.551900
      9 C4         -5.9820   -1.0960   -1.6880 c3        1 M91      0.068500
     10 N4          1.8590   -0.0100    0.0230 n         1 M91     -0.560900
     11 C5         -6.0310   -0.9410    0.7440 c3        1 M91      0.068500
     12 N5          5.4730   -2.5090    0.1340 n         1 M91     -0.333000
     13 O5          4.0830   -0.5580    1.8080 oh        1 M91     -0.595800
     14 C6         -4.3400    0.2800   -0.5610 c         1 M91      0.729100
     15 C7         -2.5860    1.3740    0.6730 c3        1 M91      0.099100
     16 C8         -1.3730    0.4240    0.6720 c         1 M91      0.643100
     17 C9         -2.6330    2.1960    1.9600 c3        1 M91     -0.037100
     18 C10        -3.3570    3.4820    1.7750 ca        1 M91     -0.087300
     19 C11        -4.5810    3.7060    2.4160 ca        1 M91     -0.122000
     20 C12        -2.8050    4.4930    0.9780 ca        1 M91     -0.122000
     21 C13        -5.2440    4.9230    2.2590 ca        1 M91     -0.127500
     22 C14        -3.4710    5.7070    0.8220 ca        1 M91     -0.127500
     23 C15        -4.6910    5.9240    1.4620 ca        1 M91     -0.127000
     24 C16        -0.1670   -1.3450   -0.5460 c3        1 M91      0.044700
     25 C17        -0.5140   -2.4350   -1.5620 c3        1 M91     -0.035300
     26 C19         1.2400   -0.7950   -0.9150 c         1 M91      0.645100
     27 C20         3.1700    0.5610   -0.1840 c3        1 M91      0.075700
     28 C21         3.2690    1.9880    0.3870 c3        1 M91     -0.090400
     29 C22         4.2920    2.8290   -0.3610 c3        1 M91     -0.060700
     30 C23         4.7440    3.9920    0.5150 c3        1 M91     -0.075900
     31 C24         3.7240    3.3550   -1.6730 c3        1 M91     -0.075900
     32 C25         5.7480    4.8660   -0.2070 c3        1 M91     -0.076400
     33 C26         4.7320    4.2220   -2.3980 c3        1 M91     -0.076400
     34 C27         5.1990    5.3700   -1.5260 c3        1 M91     -0.077400
     35 C28         4.3110   -0.2970    0.4400 c3        1 M91      0.113100
     36 C29         4.5000   -1.5780   -0.3970 c3        1 M91      0.042000
     37 C30         5.0720   -3.4570    1.1090 c         1 M91      0.691700
     38 C31         6.0980   -4.3770    1.5990 cc        1 M91     -0.255200
     39 C32         7.3810   -4.3000    1.1590 cd        1 M91     -0.036000
     40 C33         7.7460   -3.3120    0.1970 cd        1 M91     -0.254000
     41 C34         6.7880   -2.4490   -0.2770 cc        1 M91      0.018600
     42 H1         -7.3920   -3.0120   -0.3710 h1        1 M91      0.007700
     43 HN1        -6.4740   -5.0150    0.5480 hn        1 M91      0.353300
     44 HN1A       -6.2560   -5.0940   -1.0710 hn        1 M91      0.353300
     45 H2         -4.5640   -2.7600   -1.6410 hc        1 M91      0.064950
     46 H2A        -6.1190   -3.0830   -2.5210 hc        1 M91      0.064950
     47 H3         -6.2120   -2.8040    1.8200 hc        1 M91      0.064950
     48 H3A        -4.6240   -2.5980    0.9730 hc        1 M91      0.064950
     49 HN3        -1.7840   -0.2090   -1.2450 hn        1 M91      0.350500
     50 H4         -5.4760   -0.6550   -2.5930 h1        1 M91      0.071200
     51 H4A        -7.0950   -0.9460   -1.7920 h1        1 M91      0.071200
     52 HN4         1.4130    0.1670    0.8970 hn        1 M91      0.345500
     53 H5         -5.5750   -0.3890    1.6130 h1        1 M91      0.071200
     54 H5A        -7.1490   -0.7870    0.7780 h1        1 M91      0.071200
     55 HO5         3.4580   -1.2950    1.8760 ho        1 M91      0.428000
     56 H7         -2.5510    2.0420   -0.2340 h1        1 M91      0.105700
     57 H9         -3.1170    1.5800    2.7650 hc        1 M91      0.082700
     58 H9A        -1.5760    2.4010    2.2850 hc        1 M91      0.082700
     59 H11        -5.0220    2.9180    3.0440 ha        1 M91      0.132000
     60 H12        -1.8410    4.3270    0.4750 ha        1 M91      0.132000
     61 H13        -6.2050    5.0900    2.7660 ha        1 M91      0.132500
     62 H14        -3.0320    6.4960    0.1930 ha        1 M91      0.132500
     63 H15        -5.2150    6.8830    1.3390 ha        1 M91      0.132000
     64 H16        -0.0810   -1.8210    0.4820 h1        1 M91      0.086700
     65 H17         0.2660   -3.2310   -1.4810 h1        1 M91      0.100700
     66 H17A       -0.4590   -2.0190   -2.6030 h1        1 M91      0.100700
     67 H18        -1.3470   -4.9270   -0.0630 h1        1 M91      0.071700
     68 H18A       -1.8300   -3.4960    0.9300 h1        1 M91      0.071700
     69 H18B       -3.1070   -4.5160    0.1380 h1        1 M91      0.071700
     70 H20         3.3550    0.5960   -1.3020 h1        1 M91      0.080700
     71 H21         2.2730    2.5030    0.3370 hc        1 M91      0.060200
     72 H21A        3.5540    1.9150    1.4710 hc        1 M91      0.060200
     73 H22         5.1940    2.1970   -0.5950 hc        1 M91      0.043700
     74 H23         3.8510    4.6040    0.8060 hc        1 M91      0.042950
     75 H23A        5.2040    3.5940    1.4570 hc        1 M91      0.042950
     76 H24         3.4290    2.4950   -2.3290 hc        1 M91      0.042950
     77 H24A        2.7980    3.9520   -1.4640 hc        1 M91      0.042950
     78 H25         6.0200    5.7380    0.4440 hc        1 M91      0.038950
     79 H25A        6.6870    4.2810   -0.3930 hc        1 M91      0.038950
     80 H26         5.6140    3.5990   -2.7000 hc        1 M91      0.038950
     81 H26A        4.2690    4.6270   -3.3350 hc        1 M91      0.038950
     82 H27         4.3400    6.0640   -1.3310 hc        1 M91      0.039200
     83 H27A        5.9890    5.9540   -2.0640 hc        1 M91      0.039200
     84 H28         5.2570    0.3160    0.4300 h1        1 M91      0.074700
     85 H29         4.8020   -1.2780   -1.4400 h1        1 M91      0.083200
     86 H29A        3.5110   -2.1220   -0.4650 h1        1 M91      0.083200
     87 H31         5.7570   -5.1100    2.3420 ha        1 M91      0.162000
     88 H32         8.1550   -4.9870    1.5330 ha        1 M91      0.139000
     89 H33         8.7810   -3.2440   -0.1580 ha        1 M91      0.150000
     90 H34         7.0290   -1.6680   -1.0210 h4        1 M91      0.151000
     91 O3         -0.6130    0.3320    1.6580 o         1 M91     -0.624100
     92 S1         -2.1320   -3.1110   -1.4250 ss        1 M91     -0.288200
     93 O4          1.7760   -1.0790   -2.0060 o         1 M91     -0.629100
     94 O6          3.8820   -3.4630    1.4920 o         1 M91     -0.666500
     95 C18        -2.0790   -4.0940    0.0260 c3        1 M91     -0.052000
@<TRIPOS>BOND
     1    1    2 1   
     2    1    4 1   
     3    1    7 1   
     4    1   42 1   
     5    2   43 1   
     6    2   44 1   
     7    3   14 2   
     8    4    9 1   
     9    4   45 1   
    10    4   46 1   
    11    5    9 1   
    12    5   11 1   
    13    5   14 1   
    14    6   14 1   
    15    6   15 1   
    16    7   11 1   
    17    7   47 1   
    18    7   48 1   
    19    8   16 1   
    20    8   24 1   
    21    8   49 1   
    22    9   50 1   
    23    9   51 1   
    24   10   26 1   
    25   10   27 1   
    26   10   52 1   
    27   11   53 1   
    28   11   54 1   
    29   12   36 1   
    30   12   37 1   
    31   12   41 1   
    32   13   35 1   
    33   13   55 1   
    34   15   16 1   
    35   15   17 1   
    36   15   56 1   
    37   16   91 2   
    38   17   18 1   
    39   17   57 1   
    40   17   58 1   
    41   18   19 ar  
    42   18   20 ar  
    43   19   21 ar  
    44   19   59 1   
    45   20   22 ar  
    46   20   60 1   
    47   21   23 ar  
    48   21   61 1   
    49   22   23 ar  
    50   22   62 1   
    51   23   63 1   
    52   24   25 1   
    53   24   26 1   
    54   24   64 1   
    55   25   65 1   
    56   25   66 1   
    57   25   92 1   
    58   26   93 2   
    59   27   28 1   
    60   27   35 1   
    61   27   70 1   
    62   28   29 1   
    63   28   71 1   
    64   28   72 1   
    65   29   30 1   
    66   29   31 1   
    67   29   73 1   
    68   30   32 1   
    69   30   74 1   
    70   30   75 1   
    71   31   33 1   
    72   31   76 1   
    73   31   77 1   
    74   32   34 1   
    75   32   78 1   
    76   32   79 1   
    77   33   34 1   
    78   33   80 1   
    79   33   81 1   
    80   34   82 1   
    81   34   83 1   
    82   35   36 1   
    83   35   84 1   
    84   36   85 1   
    85   36   86 1   
    86   37   38 1   
    87   37   94 2   
    88   38   39 2   
    89   38   87 1   
    90   39   40 1   
    91   39   88 1   
    92   40   41 2   
    93   40   89 1   
    94   41   90 1   
    95   67   95 1   
    96   68   95 1   
    97   69   95 1   
    98   92   95 1   
@<TRIPOS>SUBSTRUCTURE
     1 M91         1 TEMP              0 ****  ****    0 ROOT
