@<TRIPOS>MOLECULE
M94
   45    47     1     0     0
SMALL
bcc


@<TRIPOS>ATOM
      1 C30         0.9300   -1.3850   -0.2900 c3        1 M94      0.078100
      2 N29         2.2130   -0.6760   -0.0890 n4        1 M94     -0.759000
      3 C28         2.5160   -0.4610    1.3620 c3        1 M94      0.097800
      4 C27         3.8450    0.2610    1.5810 c3        1 M94     -0.050100
      5 C26         4.4550   -0.8290    3.7350 ca        1 M94     -0.165000
      6 C25         4.1120    0.3330    3.0450 ca        1 M94     -0.093300
      7 C24         4.0410    1.5580    3.7170 ca        1 M94     -0.153000
      8 C23         4.3160    1.6160    5.0830 ca        1 M94     -0.078000
      9 C22         4.6540    0.4660    5.7930 ca        1 M94     -0.181000
     10 C21         4.7210   -0.7600    5.1160 ca        1 M94      0.151100
     11 O12         5.0300   -1.9690    5.6910 os        1 M94     -0.321900
     12 C11         5.3440   -1.9420    7.0970 c3        1 M94      0.175700
     13 C10         6.6170   -5.5430    7.0760 ca        1 M94      0.441600
     14 C09         6.3040   -4.2080    6.6550 ca        1 M94     -0.153300
     15 C08         5.6560   -3.3440    7.5070 ca        1 M94     -0.089300
     16 C07         5.2890   -3.7500    8.8160 ca        1 M94     -0.144000
     17 C06         5.5840   -5.0190    9.2490 ca        1 M94     -0.084000
     18 C05         6.2460   -5.9360    8.3970 ca        1 M94     -0.182300
     19 C04         6.5670   -7.2610    8.8090 ca        1 M94     -0.053000
     20 C03         7.2020   -8.1100    7.9490 ca        1 M94     -0.271300
     21 C02         7.5380   -7.6390    6.6130 ca        1 M94      0.655200
     22 N02         8.0980   -8.5530    5.7160 nh        1 M94     -0.933500
     23 N01         7.2640   -6.3840    6.2020 nb        1 M94     -0.743000
     24 H301        0.7500   -1.5210   -1.3910 hx        1 M94      0.110700
     25 H302        0.0930   -0.7820    0.1560 hx        1 M94      0.110700
     26 H303        0.9720   -2.3890    0.2120 hx        1 M94      0.110700
     27 H29         2.1820    0.2350   -0.5610 hn        1 M94      0.452800
     28 H281        1.6710    0.1400    1.8060 hx        1 M94      0.114700
     29 H282        2.5420   -1.4720    1.8650 hx        1 M94      0.114700
     30 H271        4.6820   -0.2960    1.0790 hc        1 M94      0.071200
     31 H272        3.8040    1.2930    1.1420 hc        1 M94      0.071200
     32 H24         3.7830    2.4780    3.1720 ha        1 M94      0.137000
     33 H23         4.2690    2.5840    5.6080 ha        1 M94      0.151000
     34 H22         4.8690    0.5320    6.8700 ha        1 M94      0.156000
     35 H111        6.2350   -1.2770    7.2600 h1        1 M94      0.054700
     36 H112        4.4590   -1.5410    7.6610 h1        1 M94      0.054700
     37 H07         4.7700   -3.0390    9.4760 ha        1 M94      0.135000
     38 H06         5.3080   -5.3440   10.2640 ha        1 M94      0.140000
     39 H04         6.2950   -7.5830    9.8270 ha        1 M94      0.144000
     40 H03         7.4540   -9.1390    8.2420 ha        1 M94      0.149000
     41 H021        8.4880   -8.1820    4.8790 hn        1 M94      0.413300
     42 H022        8.6290   -9.2780    6.1400 hn        1 M94      0.413300
     43 H26         4.5390   -1.7990    3.2250 ha        1 M94      0.144000
     44 H292        2.9760   -1.2210   -0.5100 hn        1 M94      0.452800
     45 H09         6.5820   -3.8850    5.6390 ha        1 M94      0.154000
@<TRIPOS>BOND
     1    1    2 1   
     2    1   24 1   
     3    1   25 1   
     4    1   26 1   
     5    2    3 1   
     6    2   27 1   
     7    2   44 1   
     8    3    4 1   
     9    3   28 1   
    10    3   29 1   
    11    4    6 1   
    12    4   30 1   
    13    4   31 1   
    14    5    6 ar  
    15    5   10 ar  
    16    5   43 1   
    17    6    7 ar  
    18    7    8 ar  
    19    7   32 1   
    20    8    9 ar  
    21    8   33 1   
    22    9   10 ar  
    23    9   34 1   
    24   10   11 1   
    25   11   12 1   
    26   12   15 1   
    27   12   35 1   
    28   12   36 1   
    29   13   14 ar  
    30   13   18 ar  
    31   13   23 ar  
    32   14   15 ar  
    33   14   45 1   
    34   15   16 ar  
    35   16   17 ar  
    36   16   37 1   
    37   17   18 ar  
    38   17   38 1   
    39   18   19 ar  
    40   19   20 ar  
    41   19   39 1   
    42   20   21 ar  
    43   20   40 1   
    44   21   22 1   
    45   21   23 ar  
    46   22   41 1   
    47   22   42 1   
@<TRIPOS>SUBSTRUCTURE
     1 M94         1 TEMP              0 ****  ****    0 ROOT
