@<TRIPOS>MOLECULE
M94
   45    47     1     0     0
SMALL
bcc


@<TRIPOS>ATOM
      1 C30         1.0970   -1.3150   -0.4600 c3        1 M94      0.078100
      2 N29         2.3680   -0.6140   -0.1710 ny        1 M94     -0.759000
      3 C28         2.5910   -0.4370    1.2990 c3        1 M94      0.097800
      4 C27         3.9050    0.2810    1.6080 c3        1 M94     -0.050100
      5 C26         4.4140   -0.8430    3.7720 ca        1 M94     -0.164000
      6 C25         4.0860    0.3270    3.0860 ca        1 M94     -0.094300
      7 C24         3.9530    1.5370    3.7760 ca        1 M94     -0.152000
      8 C23         4.1480    1.5720    5.1570 ca        1 M94     -0.078000
      9 C22         4.4690    0.4150    5.8620 ca        1 M94     -0.180000
     10 C21         4.6010   -0.7960    5.1670 ca        1 M94      0.151100
     11 O12         4.8950   -2.0110    5.7390 os        1 M94     -0.322900
     12 C11         5.2190   -1.9850    7.1420 c3        1 M94      0.175700
     13 C10         6.5370   -5.5750    7.0730 ca        1 M94      0.443600
     14 C09         6.1330   -4.2670    6.6430 ca        1 M94     -0.156300
     15 C08         5.6140   -3.3680    7.5440 ca        1 M94     -0.087300
     16 C07         5.4650   -3.7130    8.9140 ca        1 M94     -0.148000
     17 C06         5.8500   -4.9540    9.3540 ca        1 M94     -0.082000
     18 C05         6.3910   -5.9040    8.4540 ca        1 M94     -0.185300
     19 C04         6.8060   -7.2000    8.8750 ca        1 M94     -0.051000
     20 C03         7.3270   -8.0790    7.9690 ca        1 M94     -0.273300
     21 C02         7.4500   -7.6680    6.5790 ca        1 M94      0.660200
     22 N02         8.0740   -8.5430    5.6890 nv        1 M94     -0.938500
     23 N01         7.0430   -6.4550    6.1460 nb        1 M94     -0.747000
     24 H301        1.1120   -2.3320    0.0180 hx        1 M94      0.110700
     25 H302        0.9780   -1.4230   -1.5720 hx        1 M94      0.110700
     26 H303        0.2380   -0.7220   -0.0450 hx        1 M94      0.110700
     27 H29         3.1530   -1.1480   -0.5640 hn        1 M94      0.452800
     28 H281        1.7230    0.1520    1.7130 hx        1 M94      0.114200
     29 H282        2.5930   -1.4600    1.7770 hx        1 M94      0.114200
     30 H271        4.7700   -0.2680    1.1450 hc        1 M94      0.071200
     31 H272        3.8900    1.3210    1.1860 hc        1 M94      0.071200
     32 H24         3.7070    2.4620    3.2360 ha        1 M94      0.137000
     33 H23         4.0500    2.5270    5.6970 ha        1 M94      0.152000
     34 H22         4.6190    0.4620    6.9510 ha        1 M94      0.156000
     35 H111        4.3150   -1.6430    7.7140 h1        1 M94      0.055700
     36 H112        6.0720   -1.2730    7.3110 h1        1 M94      0.055700
     37 H07         5.0420   -2.9760    9.6120 ha        1 M94      0.135000
     38 H06         5.7450   -5.2310   10.4150 ha        1 M94      0.140000
     39 H04         6.6990   -7.4750    9.9370 ha        1 M94      0.144000
     40 H03         7.6640   -9.0800    8.2730 ha        1 M94      0.149000
     41 H021        8.0070   -9.5050    5.9250 hn        1 M94      0.415800
     42 H022        8.0090   -8.3340    4.7190 hn        1 M94      0.415800
     43 H26         4.5450   -1.8000    3.2480 ha        1 M94      0.144000
     44 H292        2.3620    0.3100   -0.6200 hn        1 M94      0.452800
     45 H09         6.2450   -3.9930    5.5820 ha        1 M94      0.154000
@<TRIPOS>BOND
     1    1    2 1   
     2    1   24 1   
     3    1   25 1   
     4    1   26 1   
     5    2    3 1   
     6    2   27 1   
     7    2   44 1   
     8    3    4 1   
     9    3   28 1   
    10    3   29 1   
    11    4    6 1   
    12    4   30 1   
    13    4   31 1   
    14    5    6 ar  
    15    5   10 ar  
    16    5   43 1   
    17    6    7 ar  
    18    7    8 ar  
    19    7   32 1   
    20    8    9 ar  
    21    8   33 1   
    22    9   10 ar  
    23    9   34 1   
    24   10   11 1   
    25   11   12 1   
    26   12   15 1   
    27   12   35 1   
    28   12   36 1   
    29   13   14 ar  
    30   13   18 ar  
    31   13   23 ar  
    32   14   15 ar  
    33   14   45 1   
    34   15   16 ar  
    35   16   17 ar  
    36   16   37 1   
    37   17   18 ar  
    38   17   38 1   
    39   18   19 ar  
    40   19   20 ar  
    41   19   39 1   
    42   20   21 ar  
    43   20   40 1   
    44   21   22 1   
    45   21   23 ar  
    46   22   41 1   
    47   22   42 1   
@<TRIPOS>SUBSTRUCTURE
     1 M94         1 TEMP              0 ****  ****    0 ROOT
