@<TRIPOS>MOLECULE
M95
   46    48     1     0     0
SMALL
bcc


@<TRIPOS>ATOM
      1 CAK         0.3400    0.3690    1.0540 ca        1 M95     -0.126500
      2 CAG         1.7250    0.5240    1.0590 ca        1 M95     -0.111500
      3 CAF         2.3700    1.0130    2.1960 ca        1 M95     -0.105000
      4 CAH         1.6270    1.3450    3.3290 ca        1 M95     -0.111500
      5 CAL         0.2410    1.1880    3.3290 ca        1 M95     -0.126500
      6 CAU        -0.4110    0.7040    2.1880 ca        1 M95     -0.153300
      7 CAP        -1.8850    0.5140    2.1810 c3        1 M95     -0.049100
      8 CAZ        -2.6190    1.7450    1.6250 c3        1 M95      0.084500
      9 CAO        -4.1310    1.4580    1.5080 c3        1 M95      0.108400
     10 OAC        -4.7350    1.4560    2.7820 oh        1 M95     -0.604800
     11 NAR        -2.3660    2.9480    2.4910 ny        1 M95     -0.654800
     12 CAT        -2.5460    4.2540    1.7670 c         1 M95      0.569300
     13 OAA        -1.8330    4.4540    0.7940 o         1 M95     -0.410100
     14 CAD        -3.6010    5.1550    2.2710 ce        1 M95     -0.193200
     15 CAE        -3.5290    5.9500    3.3420 cf        1 M95     -0.132600
     16 CAV        -2.3880    5.9760    4.3030 cd        1 M95      0.712500
     17 NAQ        -2.1860    7.1410    5.0270 na        1 M95     -0.692600
     18 CAX        -1.1400    7.1890    5.9640 ca        1 M95      0.158600
     19 CAM        -0.8900    8.3540    6.7210 ca        1 M95     -0.170000
     20 CAI         0.1500    8.3590    7.6420 ca        1 M95     -0.056000
     21 CAJ         0.9530    7.2280    7.8290 ca        1 M95     -0.144000
     22 CAN         0.7170    6.0770    7.0880 ca        1 M95     -0.038000
     23 CAY        -0.3240    6.0420    6.1520 ca        1 M95     -0.201600
     24 CAW        -0.5900    4.8320    5.3500 c         1 M95      0.722100
     25 OAB         0.0610    3.7770    5.4360 o         1 M95     -0.551100
     26 NAS        -1.6610    4.8810    4.4210 nc        1 M95     -0.800100
     27 H1         -0.1630   -0.0280    0.1590 ha        1 M95      0.139000
     28 H2          2.3090    0.2530    0.1660 ha        1 M95      0.153500
     29 H3          3.4650    1.1310    2.2000 ha        1 M95      0.151000
     30 H4          2.1280    1.7310    4.2310 ha        1 M95      0.153500
     31 H5         -0.3230    1.4360    4.2430 ha        1 M95      0.139000
     32 H6         -2.1550   -0.3550    1.5200 hc        1 M95      0.081200
     33 H7         -2.2610    0.2810    3.2130 hc        1 M95      0.081200
     34 H8         -2.2070    1.9800    0.5970 hx        1 M95      0.122700
     35 H9         -4.2700    0.4870    0.9640 h1        1 M95      0.082700
     36 H10        -4.6420    2.2800    0.9360 h1        1 M95      0.082700
     37 H11        -4.7390    0.5490    3.1160 ho        1 M95      0.432000
     38 H12        -1.3890    2.9010    2.8400 hn        1 M95      0.486800
     39 H13        -4.4910    5.1730    1.6090 ha        1 M95      0.196000
     40 H14        -4.3700    6.6330    3.5730 ha        1 M95      0.179000
     41 H15        -2.7540    7.9440    4.8860 hn        1 M95      0.469800
     42 H16        -1.5100    9.2540    6.5890 ha        1 M95      0.151000
     43 H17         0.3440    9.2690    8.2340 ha        1 M95      0.157000
     44 H18         1.7720    7.2530    8.5650 ha        1 M95      0.160000
     45 H19         1.3390    5.1750    7.2210 ha        1 M95      0.170000
     46 HAR2       -3.0020    2.9090    3.3010 hn        1 M95      0.486800
@<TRIPOS>BOND
     1    1    2 ar  
     2    1    6 ar  
     3    1   27 1   
     4    2    3 ar  
     5    2   28 1   
     6    3    4 ar  
     7    3   29 1   
     8    4    5 ar  
     9    4   30 1   
    10    5    6 ar  
    11    5   31 1   
    12    6    7 1   
    13    7    8 1   
    14    7   32 1   
    15    7   33 1   
    16    8    9 1   
    17    8   11 1   
    18    8   34 1   
    19    9   10 1   
    20    9   35 1   
    21    9   36 1   
    22   10   37 1   
    23   11   12 1   
    24   11   38 1   
    25   11   46 1   
    26   12   13 2   
    27   12   14 1   
    28   14   15 2   
    29   14   39 1   
    30   15   16 1   
    31   15   40 1   
    32   16   17 1   
    33   16   26 2   
    34   17   18 1   
    35   17   41 1   
    36   18   19 ar  
    37   18   23 ar  
    38   19   20 ar  
    39   19   42 1   
    40   20   21 ar  
    41   20   43 1   
    42   21   22 ar  
    43   21   44 1   
    44   22   23 ar  
    45   22   45 1   
    46   23   24 1   
    47   24   25 2   
    48   24   26 1   
@<TRIPOS>SUBSTRUCTURE
     1 M95         1 TEMP              0 ****  ****    0 ROOT
