@<TRIPOS>MOLECULE
M95
   46    48     1     0     0
SMALL
bcc


@<TRIPOS>ATOM
      1 CAK         0.3310    0.4340    0.9660 ca        1 M95     -0.126500
      2 CAG         1.7110    0.6240    0.9230 ca        1 M95     -0.111500
      3 CAF         2.3840    1.1190    2.0410 ca        1 M95     -0.105000
      4 CAH         1.6740    1.4210    3.2040 ca        1 M95     -0.111500
      5 CAL         0.2930    1.2290    3.2510 ca        1 M95     -0.126500
      6 CAU        -0.3870    0.7390    2.1290 ca        1 M95     -0.153300
      7 CAP        -1.8550    0.5120    2.1720 c3        1 M95     -0.049100
      8 CAZ        -2.6390    1.7290    1.6560 c3        1 M95      0.084500
      9 CAO        -4.1470    1.4040    1.5890 c3        1 M95      0.108400
     10 OAC        -4.7050    1.3740    2.8840 oh        1 M95     -0.604800
     11 NAR        -2.3860    2.9300    2.5250 n4        1 M95     -0.654800
     12 CAT        -2.6250    4.2370    1.8220 c         1 M95      0.569300
     13 OAA        -1.9520    4.4650    0.8270 o         1 M95     -0.410100
     14 CAD        -3.6830    5.1060    2.3720 ce        1 M95     -0.193200
     15 CAE        -3.5940    5.8930    3.4480 cf        1 M95     -0.132600
     16 CAV        -2.4210    5.9390    4.3680 cd        1 M95      0.712500
     17 NAQ        -2.2220    7.1010    5.0980 na        1 M95     -0.692600
     18 CAX        -1.1460    7.1670    5.9980 ca        1 M95      0.158600
     19 CAM        -0.8990    8.3310    6.7580 ca        1 M95     -0.170000
     20 CAI         0.1730    8.3530    7.6410 ca        1 M95     -0.056000
     21 CAJ         1.0100    7.2410    7.7880 ca        1 M95     -0.144000
     22 CAN         0.7770    6.0920    7.0440 ca        1 M95     -0.038000
     23 CAY        -0.2950    6.0390    6.1440 ca        1 M95     -0.201600
     24 CAW        -0.5580    4.8300    5.3400 c         1 M95      0.722100
     25 OAB         0.1220    3.7920    5.3910 o         1 M95     -0.551100
     26 NAS        -1.6620    4.8610    4.4500 nc        1 M95     -0.800100
     27 H1         -0.1930    0.0340    0.0850 ha        1 M95      0.139000
     28 H2          2.2700    0.3770    0.0070 ha        1 M95      0.153500
     29 H3          3.4750    1.2650    2.0080 ha        1 M95      0.151000
     30 H4          2.1970    1.8110    4.0910 ha        1 M95      0.153500
     31 H5         -0.2440    1.4530    4.1880 ha        1 M95      0.139000
     32 H6         -2.1260   -0.3580    1.5120 hc        1 M95      0.081200
     33 H7         -2.1880    0.2590    3.2150 hc        1 M95      0.081200
     34 H8         -2.2700    1.9840    0.6170 hx        1 M95      0.122700
     35 H9         -4.6980    2.2190    1.0440 h1        1 M95      0.082700
     36 H10        -4.2800    0.4360    1.0400 h1        1 M95      0.082700
     37 H11        -4.6740    0.4650    3.2080 ho        1 M95      0.432000
     38 H12        -2.9910    2.8670    3.3560 hn        1 M95      0.486800
     39 H13        -4.5960    5.1080    1.7420 ha        1 M95      0.196000
     40 H14        -4.4430    6.5510    3.7150 ha        1 M95      0.179000
     41 H15        -2.8150    7.8910    4.9840 hn        1 M95      0.469800
     42 H16        -1.5460    9.2160    6.6570 ha        1 M95      0.151000
     43 H17         0.3650    9.2630    8.2350 ha        1 M95      0.157000
     44 H18         1.8540    7.2800    8.4950 ha        1 M95      0.160000
     45 H19         1.4270    5.2050    7.1460 ha        1 M95      0.170000
     46 HAR2       -1.3960    2.9050    2.8390 hn        1 M95      0.486800
@<TRIPOS>BOND
     1    1    2 ar  
     2    1    6 ar  
     3    1   27 1   
     4    2    3 ar  
     5    2   28 1   
     6    3    4 ar  
     7    3   29 1   
     8    4    5 ar  
     9    4   30 1   
    10    5    6 ar  
    11    5   31 1   
    12    6    7 1   
    13    7    8 1   
    14    7   32 1   
    15    7   33 1   
    16    8    9 1   
    17    8   11 1   
    18    8   34 1   
    19    9   10 1   
    20    9   35 1   
    21    9   36 1   
    22   10   37 1   
    23   11   12 1   
    24   11   38 1   
    25   11   46 1   
    26   12   13 2   
    27   12   14 1   
    28   14   15 2   
    29   14   39 1   
    30   15   16 1   
    31   15   40 1   
    32   16   17 1   
    33   16   26 2   
    34   17   18 1   
    35   17   41 1   
    36   18   19 ar  
    37   18   23 ar  
    38   19   20 ar  
    39   19   42 1   
    40   20   21 ar  
    41   20   43 1   
    42   21   22 ar  
    43   21   44 1   
    44   22   23 ar  
    45   22   45 1   
    46   23   24 1   
    47   24   25 2   
    48   24   26 1   
@<TRIPOS>SUBSTRUCTURE
     1 M95         1 TEMP              0 ****  ****    0 ROOT
