@<TRIPOS>MOLECULE
M95
   46    48     1     0     0
SMALL
bcc


@<TRIPOS>ATOM
      1 CAK         0.3290    0.2740    1.1810 ca        1 M95     -0.126500
      2 CAG         1.7170    0.3870    1.2370 ca        1 M95     -0.111500
      3 CAF         2.3330    0.8790    2.3880 ca        1 M95     -0.105000
      4 CAH         1.5580    1.2560    3.4850 ca        1 M95     -0.111500
      5 CAL         0.1690    1.1420    3.4340 ca        1 M95     -0.126500
      6 CAU        -0.4540    0.6540    2.2790 ca        1 M95     -0.153300
      7 CAP        -1.9320    0.5080    2.2170 c3        1 M95     -0.049100
      8 CAZ        -2.6050    1.7490    1.6100 c3        1 M95      0.084500
      9 CAO        -4.1200    1.5040    1.4400 c3        1 M95      0.108400
     10 OAC        -4.7720    1.5460    2.6890 oh        1 M95     -0.604800
     11 NAR        -2.3490    2.9610    2.4620 n4        1 M95     -0.654800
     12 CAT        -2.4610    4.2570    1.7070 c         1 M95      0.569300
     13 OAA        -1.7050    4.4150    0.7590 o         1 M95     -0.410100
     14 CAD        -3.5060    5.1990    2.1510 ce        1 M95     -0.193200
     15 CAE        -3.4510    6.0140    3.2090 cf        1 M95     -0.132600
     16 CAV        -2.3490    6.0250    4.2130 cd        1 M95      0.712500
     17 NAQ        -2.1390    7.1970    4.9230 na        1 M95     -0.692600
     18 CAX        -1.1290    7.2330    5.8990 ca        1 M95      0.158600
     19 CAM        -0.8730    8.4050    6.6440 ca        1 M95     -0.170000
     20 CAI         0.1300    8.3970    7.6040 ca        1 M95     -0.056000
     21 CAJ         0.8890    7.2470    7.8440 ca        1 M95     -0.144000
     22 CAN         0.6470    6.0880    7.1170 ca        1 M95     -0.038000
     23 CAY        -0.3570    6.0660    6.1410 ca        1 M95     -0.201600
     24 CAW        -0.6290    4.8480    5.3530 c         1 M95      0.722100
     25 OAB        -0.0140    3.7770    5.4840 o         1 M95     -0.551100
     26 NAS        -1.6600    4.9110    4.3820 nc        1 M95     -0.800100
     27 H1         -0.1510   -0.1260    0.2750 ha        1 M95      0.139000
     28 H2          2.3270    0.0810    0.3730 ha        1 M95      0.153500
     29 H3          3.4300    0.9650    2.4330 ha        1 M95      0.151000
     30 H4          2.0360    1.6460    4.3980 ha        1 M95      0.153500
     31 H5         -0.4220    1.4240    4.3210 ha        1 M95      0.139000
     32 H6         -2.3540    0.3070    3.2390 hc        1 M95      0.081200
     33 H7         -2.2020   -0.3660    1.5630 hc        1 M95      0.081200
     34 H8         -2.1470    1.9500    0.5950 hx        1 M95      0.122700
     35 H9         -4.2680    0.5280    0.9090 h1        1 M95      0.082700
     36 H10        -4.5830    2.3300    0.8320 h1        1 M95      0.082700
     37 H11        -4.8170    0.6470    3.0400 ho        1 M95      0.432000
     38 H12        -1.3880    2.8920    2.8500 hn        1 M95      0.486800
     39 H13        -4.3690    5.2310    1.4540 ha        1 M95      0.196000
     40 H14        -4.2790    6.7260    3.3930 ha        1 M95      0.179000
     41 H15        -2.6760    8.0140    4.7430 hn        1 M95      0.469800
     42 H16        -1.4600    9.3200    6.4700 ha        1 M95      0.151000
     43 H17         0.3290    9.3130    8.1860 ha        1 M95      0.157000
     44 H18         1.6800    7.2610    8.6110 ha        1 M95      0.160000
     45 H19         1.2360    5.1710    7.2920 ha        1 M95      0.170000
     46 HAR2       -3.0170    2.9580    3.2470 hn        1 M95      0.486800
@<TRIPOS>BOND
     1    1    2 ar  
     2    1    6 ar  
     3    1   27 1   
     4    2    3 ar  
     5    2   28 1   
     6    3    4 ar  
     7    3   29 1   
     8    4    5 ar  
     9    4   30 1   
    10    5    6 ar  
    11    5   31 1   
    12    6    7 1   
    13    7    8 1   
    14    7   32 1   
    15    7   33 1   
    16    8    9 1   
    17    8   11 1   
    18    8   34 1   
    19    9   10 1   
    20    9   35 1   
    21    9   36 1   
    22   10   37 1   
    23   11   12 1   
    24   11   38 1   
    25   11   46 1   
    26   12   13 2   
    27   12   14 1   
    28   14   15 2   
    29   14   39 1   
    30   15   16 1   
    31   15   40 1   
    32   16   17 1   
    33   16   26 2   
    34   17   18 1   
    35   17   41 1   
    36   18   19 ar  
    37   18   23 ar  
    38   19   20 ar  
    39   19   42 1   
    40   20   21 ar  
    41   20   43 1   
    42   21   22 ar  
    43   21   44 1   
    44   22   23 ar  
    45   22   45 1   
    46   23   24 1   
    47   24   25 2   
    48   24   26 1   
@<TRIPOS>SUBSTRUCTURE
     1 M95         1 TEMP              0 ****  ****    0 ROOT
