@<TRIPOS>MOLECULE
M97
   44    49     1     0     0
SMALL
bcc


@<TRIPOS>ATOM
      1 C1          0.0490    0.1130    0.2990 c3        1 M97     -0.031500
      2 N1         -1.4540    3.2620   -0.9570 na        1 M97     -0.170400
      3 O1         -1.0900    0.3100    2.5000 o         1 M97     -0.542500
      4 C2          2.0110   -1.1600   -0.6830 cc        1 M97      0.014700
      5 N2          1.2310    0.2510    2.3920 n         1 M97     -0.607500
      6 O2          3.4450    0.1370    1.6550 o         1 M97     -0.563500
      7 C3          2.8710   -1.1640   -1.7710 cd        1 M97     -0.136200
      8 N3          3.0980   -2.5130   -2.2050 na        1 M97      0.086800
      9 C4         -0.5980    1.2120   -0.4200 cc        1 M97     -0.200400
     10 C5         -0.8100    2.5230    0.0250 cd        1 M97     -0.051100
     11 C6          1.5800    0.0510    0.0300 c3        1 M97     -0.112400
     12 C7         -0.0600    0.2500    1.8270 c         1 M97      0.688500
     13 C8          2.2340    0.1440    1.4240 c         1 M97      0.700500
     14 C9         -1.6980    2.4280   -2.0550 ca        1 M97     -0.048200
     15 C10        -1.1660    1.1190   -1.7500 ca        1 M97     -0.078800
     16 C11        -1.2930    0.0950   -2.6910 ca        1 M97     -0.108000
     17 C12        -1.9190    0.3650   -3.8970 ca        1 M97     -0.138000
     18 C13        -2.4260    1.6450   -4.1890 ca        1 M97     -0.109000
     19 C14        -2.3270    2.6890   -3.2830 ca        1 M97     -0.123000
     20 C15         2.3180   -4.7480   -1.4510 ca        1 M97     -0.060000
     21 C16         3.1000   -5.3200   -2.4860 ca        1 M97      0.042000
     22 C17         3.8380   -4.4890   -3.3250 ca        1 M97     -0.191000
     23 C18         3.8370   -3.0790   -3.1820 ca        1 M97      0.062700
     24 C19         2.3510   -3.3450   -1.3550 ca        1 M97     -0.048300
     25 C20         1.6450   -2.5560   -0.3780 ca        1 M97     -0.093000
     26 C21         0.8720   -3.2400    0.5340 ca        1 M97      0.027000
     27 C22         0.8140   -4.6600    0.4620 ca        1 M97     -0.129000
     28 C23         1.4990   -5.3990   -0.4820 ca        1 M97     -0.036000
     29 H1         -0.4390   -0.8590    0.0080 hc        1 M97      0.093700
     30 HN2         1.4120    0.3790    3.3590 hn        1 M97      0.360500
     31 H3          3.3610   -0.3340   -2.2920 h4        1 M97      0.217000
     32 H5         -0.5530    2.9730    0.9890 h4        1 M97      0.179000
     33 H6          1.8970    0.9660   -0.5490 hc        1 M97      0.125700
     34 H11        -0.9140   -0.9110   -2.4670 ha        1 M97      0.116000
     35 H12        -2.0340   -0.4340   -4.6460 ha        1 M97      0.134000
     36 H13        -2.9190    1.8160   -5.1590 ha        1 M97      0.144000
     37 H14        -2.7320    3.6840   -3.5130 ha        1 M97      0.147000
     38 H16         3.1230   -6.4160   -2.6200 ha        1 M97      0.187000
     39 H17         4.4540   -4.9190   -4.1340 ha        1 M97      0.197000
     40 H18         4.4290   -2.4200   -3.8490 h4        1 M97      0.212000
     41 H21         0.3000   -2.7150    1.3190 ha        1 M97      0.178000
     42 H22         0.1860   -5.1840    1.2050 ha        1 M97      0.178000
     43 H23         1.4250   -6.5000   -0.4990 ha        1 M97      0.175000
     44 HN1        -1.7760    4.1910   -0.8640 hn        1 M97      0.314700
@<TRIPOS>BOND
     1    1    9 1   
     2    1   11 1   
     3    1   12 1   
     4    1   29 1   
     5    2   10 1   
     6    2   14 1   
     7    2   44 1   
     8    3   12 2   
     9    4    7 2   
    10    4   11 1   
    11    4   25 1   
    12    5   12 1   
    13    5   13 1   
    14    5   30 1   
    15    6   13 2   
    16    7    8 1   
    17    7   31 1   
    18    8   23 1   
    19    8   24 2   
    20    9   10 2   
    21    9   15 1   
    22   10   32 1   
    23   11   13 1   
    24   11   33 1   
    25   14   15 ar  
    26   14   19 ar  
    27   15   16 ar  
    28   16   17 ar  
    29   16   34 1   
    30   17   18 ar  
    31   17   35 1   
    32   18   19 ar  
    33   18   36 1   
    34   19   37 1   
    35   20   21 ar  
    36   20   24 ar  
    37   20   28 ar  
    38   21   22 ar  
    39   21   38 1   
    40   22   23 ar  
    41   22   39 1   
    42   23   40 1   
    43   24   25 ar  
    44   25   26 ar  
    45   26   27 ar  
    46   26   41 1   
    47   27   28 ar  
    48   27   42 1   
    49   28   43 1   
@<TRIPOS>SUBSTRUCTURE
     1 M97         1 TEMP              0 ****  ****    0 ROOT
