@<TRIPOS>MOLECULE
M97
   44    49     1     0     0
SMALL
bcc


@<TRIPOS>ATOM
      1 C1          0.0480    0.1070    0.3050 c3        1 M97     -0.031500
      2 N1         -1.4620    3.2580   -0.9410 na        1 M97     -0.170400
      3 O1         -1.0920    0.2910    2.5060 o         1 M97     -0.542500
      4 C2          2.0130   -1.1580   -0.6800 cc        1 M97      0.014700
      5 N2          1.2290    0.2430    2.3970 n         1 M97     -0.607500
      6 O2          3.4430    0.1400    1.6600 o         1 M97     -0.563500
      7 C3          2.8730   -1.1570   -1.7680 cd        1 M97     -0.136200
      8 N3          3.1050   -2.5050   -2.2040 na        1 M97      0.086800
      9 C4         -0.6030    1.2070   -0.4110 cc        1 M97     -0.200400
     10 C5         -0.8140    2.5170    0.0380 cd        1 M97     -0.051100
     11 C6          1.5780    0.0510    0.0350 c3        1 M97     -0.112400
     12 C7         -0.0620    0.2380    1.8330 c         1 M97      0.688500
     13 C8          2.2320    0.1430    1.4300 c         1 M97      0.700500
     14 C9         -1.7100    2.4250   -2.0390 ca        1 M97     -0.048200
     15 C10        -1.1760    1.1160   -1.7380 ca        1 M97     -0.078800
     16 C11        -1.3070    0.0930   -2.6800 ca        1 M97     -0.108000
     17 C12        -1.9380    0.3640   -3.8840 ca        1 M97     -0.138000
     18 C13        -2.4470    1.6450   -4.1710 ca        1 M97     -0.109000
     19 C14        -2.3440    2.6870   -3.2640 ca        1 M97     -0.123000
     20 C15         2.3310   -4.7430   -1.4540 ca        1 M97     -0.060000
     21 C16         3.1160   -5.3110   -2.4900 ca        1 M97      0.042000
     22 C17         3.8520   -4.4770   -3.3270 ca        1 M97     -0.191000
     23 C18         3.8470   -3.0670   -3.1810 ca        1 M97      0.062700
     24 C19         2.3610   -3.3410   -1.3560 ca        1 M97     -0.048300
     25 C20         1.6510   -2.5560   -0.3780 ca        1 M97     -0.093000
     26 C21         0.8800   -3.2430    0.5330 ca        1 M97      0.027000
     27 C22         0.8260   -4.6630    0.4570 ca        1 M97     -0.129000
     28 C23         1.5140   -5.3990   -0.4870 ca        1 M97     -0.036000
     29 H1         -0.4380   -0.8660    0.0100 hc        1 M97      0.093700
     30 HN2         1.4100    0.3690    3.3650 hn        1 M97      0.360500
     31 H3          3.3610   -0.3250   -2.2860 h4        1 M97      0.217000
     32 H5         -0.5530    2.9660    1.0000 h4        1 M97      0.179000
     33 H6          1.8920    0.9670   -0.5420 hc        1 M97      0.125700
     34 H11        -0.9260   -0.9130   -2.4590 ha        1 M97      0.116000
     35 H12        -2.0560   -0.4330   -4.6320 ha        1 M97      0.134000
     36 H13        -2.9430    1.8170   -5.1390 ha        1 M97      0.144000
     37 H14        -2.7500    3.6830   -3.4910 ha        1 M97      0.147000
     38 H16         3.1420   -6.4070   -2.6260 ha        1 M97      0.187000
     39 H17         4.4700   -4.9030   -4.1370 ha        1 M97      0.197000
     40 H18         4.4370   -2.4040   -3.8470 h4        1 M97      0.212000
     41 H21         0.3060   -2.7220    1.3190 ha        1 M97      0.178000
     42 H22         0.2000   -5.1910    1.2000 ha        1 M97      0.178000
     43 H23         1.4440   -6.4990   -0.5060 ha        1 M97      0.175000
     44 HN1        -1.7830    4.1860   -0.8460 hn        1 M97      0.314700
@<TRIPOS>BOND
     1    1    9 1   
     2    1   11 1   
     3    1   12 1   
     4    1   29 1   
     5    2   10 1   
     6    2   14 1   
     7    2   44 1   
     8    3   12 2   
     9    4    7 2   
    10    4   11 1   
    11    4   25 1   
    12    5   12 1   
    13    5   13 1   
    14    5   30 1   
    15    6   13 2   
    16    7    8 1   
    17    7   31 1   
    18    8   23 1   
    19    8   24 2   
    20    9   10 2   
    21    9   15 1   
    22   10   32 1   
    23   11   13 1   
    24   11   33 1   
    25   14   15 ar  
    26   14   19 ar  
    27   15   16 ar  
    28   16   17 ar  
    29   16   34 1   
    30   17   18 ar  
    31   17   35 1   
    32   18   19 ar  
    33   18   36 1   
    34   19   37 1   
    35   20   21 ar  
    36   20   24 ar  
    37   20   28 ar  
    38   21   22 ar  
    39   21   38 1   
    40   22   23 ar  
    41   22   39 1   
    42   23   40 1   
    43   24   25 ar  
    44   25   26 ar  
    45   26   27 ar  
    46   26   41 1   
    47   27   28 ar  
    48   27   42 1   
    49   28   43 1   
@<TRIPOS>SUBSTRUCTURE
     1 M97         1 TEMP              0 ****  ****    0 ROOT
