@<TRIPOS>MOLECULE
M97
   44    49     1     0     0
SMALL
bcc


@<TRIPOS>ATOM
      1 C1          0.0480    0.1080    0.3070 c3        1 M97     -0.031500
      2 N1         -1.4630    3.2560   -0.9420 na        1 M97     -0.170400
      3 O1         -1.0910    0.2960    2.5080 o         1 M97     -0.542500
      4 C2          2.0130   -1.1570   -0.6790 cc        1 M97      0.014700
      5 N2          1.2300    0.2440    2.3990 ns        1 M97     -0.607500
      6 O2          3.4440    0.1380    1.6620 o         1 M97     -0.563500
      7 C3          2.8720   -1.1560   -1.7680 cd        1 M97     -0.136200
      8 N3          3.1030   -2.5030   -2.2050 na        1 M97      0.086800
      9 C4         -0.6030    1.2070   -0.4090 cc        1 M97     -0.200400
     10 C5         -0.8160    2.5170    0.0380 cd        1 M97     -0.051100
     11 C6          1.5780    0.0510    0.0370 c3        1 M97     -0.112400
     12 C7         -0.0620    0.2400    1.8360 c         1 M97      0.688500
     13 C8          2.2330    0.1420    1.4310 c         1 M97      0.700500
     14 C9         -1.7090    2.4230   -2.0400 ca        1 M97     -0.048200
     15 C10        -1.1740    1.1150   -1.7380 ca        1 M97     -0.078800
     16 C11        -1.3030    0.0910   -2.6790 ca        1 M97     -0.108000
     17 C12        -1.9330    0.3620   -3.8840 ca        1 M97     -0.138000
     18 C13        -2.4430    1.6410   -4.1730 ca        1 M97     -0.109000
     19 C14        -2.3420    2.6840   -3.2650 ca        1 M97     -0.123000
     20 C15         2.3290   -4.7420   -1.4560 ca        1 M97     -0.060000
     21 C16         3.1130   -5.3090   -2.4920 ca        1 M97      0.042000
     22 C17         3.8490   -4.4750   -3.3290 ca        1 M97     -0.191000
     23 C18         3.8440   -3.0650   -3.1830 ca        1 M97      0.062700
     24 C19         2.3590   -3.3400   -1.3560 ca        1 M97     -0.048300
     25 C20         1.6510   -2.5550   -0.3780 ca        1 M97     -0.093000
     26 C21         0.8800   -3.2430    0.5340 ca        1 M97      0.027000
     27 C22         0.8260   -4.6630    0.4570 ca        1 M97     -0.129000
     28 C23         1.5130   -5.3980   -0.4880 ca        1 M97     -0.036000
     29 H1         -0.4380   -0.8650    0.0130 hc        1 M97      0.093700
     30 HN2         1.4110    0.3700    3.3670 hn        1 M97      0.360500
     31 H3          3.3600   -0.3240   -2.2860 h4        1 M97      0.217000
     32 H5         -0.5560    2.9670    1.0010 h4        1 M97      0.179000
     33 H6          1.8930    0.9680   -0.5400 hc        1 M97      0.125700
     34 H11        -0.9220   -0.9150   -2.4570 ha        1 M97      0.116000
     35 H12        -2.0500   -0.4370   -4.6320 ha        1 M97      0.134000
     36 H13        -2.9380    1.8130   -5.1410 ha        1 M97      0.144000
     37 H14        -2.7480    3.6790   -3.4940 ha        1 M97      0.147000
     38 H16         3.1390   -6.4050   -2.6290 ha        1 M97      0.187000
     39 H17         4.4650   -4.9010   -4.1400 ha        1 M97      0.197000
     40 H18         4.4330   -2.4020   -3.8490 h4        1 M97      0.212000
     41 H21         0.3070   -2.7220    1.3200 ha        1 M97      0.178000
     42 H22         0.2000   -5.1910    1.2000 ha        1 M97      0.178000
     43 H23         1.4430   -6.4990   -0.5080 ha        1 M97      0.175000
     44 HN1        -1.7860    4.1850   -0.8470 hn        1 M97      0.314700
@<TRIPOS>BOND
     1    1    9 1   
     2    1   11 1   
     3    1   12 1   
     4    1   29 1   
     5    2   10 1   
     6    2   14 1   
     7    2   44 1   
     8    3   12 2   
     9    4    7 2   
    10    4   11 1   
    11    4   25 1   
    12    5   12 1   
    13    5   13 1   
    14    5   30 1   
    15    6   13 2   
    16    7    8 1   
    17    7   31 1   
    18    8   23 1   
    19    8   24 2   
    20    9   10 2   
    21    9   15 1   
    22   10   32 1   
    23   11   13 1   
    24   11   33 1   
    25   14   15 ar  
    26   14   19 ar  
    27   15   16 ar  
    28   16   17 ar  
    29   16   34 1   
    30   17   18 ar  
    31   17   35 1   
    32   18   19 ar  
    33   18   36 1   
    34   19   37 1   
    35   20   21 ar  
    36   20   24 ar  
    37   20   28 ar  
    38   21   22 ar  
    39   21   38 1   
    40   22   23 ar  
    41   22   39 1   
    42   23   40 1   
    43   24   25 ar  
    44   25   26 ar  
    45   26   27 ar  
    46   26   41 1   
    47   27   28 ar  
    48   27   42 1   
    49   28   43 1   
@<TRIPOS>SUBSTRUCTURE
     1 M97         1 TEMP              0 ****  ****    0 ROOT
