@<TRIPOS>MOLECULE
M97
   44    49     1     0     0
SMALL
bcc


@<TRIPOS>ATOM
      1 C1         -1.1320   -1.2380   -0.2220 c3        1 M97     -0.031500
      2 N1         -4.6410   -0.3790    0.6180 na        1 M97     -0.170400
      3 O1         -1.8030   -3.3060   -1.4260 o         1 M97     -0.542500
      4 C2          0.9800   -0.2690    0.7960 cc        1 M97      0.014700
      5 N2         -0.3870   -3.4370    0.4120 n         1 M97     -0.607500
      6 O2          0.9630   -2.9320    2.2500 o         1 M97     -0.563500
      7 C3          1.4130    0.7050    1.6830 cd        1 M97     -0.136200
      8 N3          2.5980    1.3350    1.1710 na        1 M97      0.086800
      9 C4         -2.4500   -0.6500    0.0260 cc        1 M97     -0.200400
     10 C5         -3.5940   -1.2850    0.5250 cd        1 M97     -0.051100
     11 C6         -0.1940   -1.1270    1.0140 c3        1 M97     -0.112400
     12 C7         -1.1940   -2.7470   -0.5140 c         1 M97      0.688500
     13 C8          0.2220   -2.5790    1.3310 c         1 M97      0.700500
     14 C9         -4.1980    0.8630    0.1490 ca        1 M97     -0.048200
     15 C10        -2.8100    0.7290   -0.2340 ca        1 M97     -0.078800
     16 C11        -2.1350    1.8380   -0.7480 ca        1 M97     -0.108000
     17 C12        -2.8120    3.0410   -0.8690 ca        1 M97     -0.138000
     18 C13        -4.1600    3.1640   -0.4850 ca        1 M97     -0.109000
     19 C14        -4.8710    2.0890    0.0240 ca        1 M97     -0.123000
     20 C15         3.9820    1.0560   -0.8740 ca        1 M97     -0.060000
     21 C16         4.8280    2.0830   -0.3840 ca        1 M97      0.042000
     22 C17         4.5380    2.6860    0.8360 ca        1 M97     -0.191000
     23 C18         3.4180    2.3080    1.6180 ca        1 M97      0.062700
     24 C19         2.8840    0.7220   -0.0600 ca        1 M97     -0.048300
     25 C20         1.9050   -0.2930   -0.3530 ca        1 M97     -0.093000
     26 C21         2.0610   -0.9890   -1.5310 ca        1 M97      0.027000
     27 C22         3.1600   -0.6710   -2.3780 ca        1 M97     -0.129000
     28 C23         4.0890    0.3050   -2.0800 ca        1 M97     -0.036000
     29 H1         -0.6630   -0.7360   -1.1140 hc        1 M97      0.093700
     30 HN2        -0.3110   -4.4260    0.4510 hn        1 M97      0.360500
     31 H3          1.0000    1.0230    2.6460 h4        1 M97      0.217000
     32 H5         -3.7310   -2.3330    0.8100 h4        1 M97      0.179000
     33 H6         -0.7820   -0.7470    1.8990 hc        1 M97      0.125700
     34 H11        -1.0870    1.7480   -1.0640 ha        1 M97      0.116000
     35 H12        -2.2950    3.9210   -1.2800 ha        1 M97      0.134000
     36 H13        -4.6610    4.1380   -0.6000 ha        1 M97      0.144000
     37 H14        -5.9260    2.1900    0.3150 ha        1 M97      0.147000
     38 H16         5.7100    2.3980   -0.9700 ha        1 M97      0.187000
     39 H17         5.1890    3.4860    1.2320 ha        1 M97      0.197000
     40 H18         3.1910    2.7870    2.5920 h4        1 M97      0.212000
     41 H21         1.3590   -1.7860   -1.8330 ha        1 M97      0.178000
     42 H22         3.2620   -1.2450   -3.3180 ha        1 M97      0.178000
     43 H23         4.9260    0.5150   -2.7670 ha        1 M97      0.175000
     44 HN1        -5.5690   -0.5930    0.8770 hn        1 M97      0.314700
@<TRIPOS>BOND
     1    1    9 1   
     2    1   11 1   
     3    1   12 1   
     4    1   29 1   
     5    2   10 1   
     6    2   14 1   
     7    2   44 1   
     8    3   12 2   
     9    4    7 2   
    10    4   11 1   
    11    4   25 1   
    12    5   12 1   
    13    5   13 1   
    14    5   30 1   
    15    6   13 2   
    16    7    8 1   
    17    7   31 1   
    18    8   23 1   
    19    8   24 2   
    20    9   10 2   
    21    9   15 1   
    22   10   32 1   
    23   11   13 1   
    24   11   33 1   
    25   14   15 ar  
    26   14   19 ar  
    27   15   16 ar  
    28   16   17 ar  
    29   16   34 1   
    30   17   18 ar  
    31   17   35 1   
    32   18   19 ar  
    33   18   36 1   
    34   19   37 1   
    35   20   21 ar  
    36   20   24 ar  
    37   20   28 ar  
    38   21   22 ar  
    39   21   38 1   
    40   22   23 ar  
    41   22   39 1   
    42   23   40 1   
    43   24   25 ar  
    44   25   26 ar  
    45   26   27 ar  
    46   26   41 1   
    47   27   28 ar  
    48   27   42 1   
    49   28   43 1   
@<TRIPOS>SUBSTRUCTURE
     1 M97         1 TEMP              0 ****  ****    0 ROOT
