@<TRIPOS>MOLECULE
M98
   56    59     1     0     0
SMALL
bcc


@<TRIPOS>ATOM
      1 F1          5.7870   -2.2650    1.2770 f         1 M98     -0.241300
      2 F2          4.5750   -3.1390    2.8500 f         1 M98     -0.241300
      3 C1          4.9680   -3.3160    1.5550 c3        1 M98      0.590700
      4 O1          3.8240   -3.2730    0.7270 os        1 M98     -0.376900
      5 C12         4.0660   -3.6570   -3.4370 cx        1 M98     -0.133400
      6 C13         2.9630   -4.1190   -2.5280 cx        1 M98     -0.133400
      7 C8          3.2150   -2.6440   -2.7150 cx        1 M98      0.067100
      8 O2          3.9080   -1.9510   -1.6920 os        1 M98     -0.300900
      9 C2          3.1310   -2.0780    0.5910 ca        1 M98      0.097100
     10 C3          3.0780   -1.4810   -0.6840 ca        1 M98      0.108100
     11 C4          2.2650   -0.3620   -0.8970 ca        1 M98     -0.136000
     12 C5          1.5260    0.1770    0.1610 ca        1 M98     -0.084300
     13 C6          1.5980   -0.4120    1.4300 ca        1 M98     -0.108000
     14 C7          2.3940   -1.5330    1.6490 ca        1 M98     -0.128000
     15 C9          0.6700    1.3830   -0.0850 c3        1 M98     -0.039700
     16 C10        -0.7730    1.0490    0.1320 cc        1 M98      0.402700
     17 C11        -2.6990    0.6480    1.1570 cd        1 M98      0.396200
     18 N1         -1.3780    0.9850    1.3290 nd        1 M98     -0.629000
     19 S1         -1.7940    0.7130   -1.1960 ss        1 M98     -0.000300
     20 C14        -3.1030    0.4530   -0.1710 cc        1 M98     -0.315700
     21 C15        -4.4760    0.1060   -0.5890 c3        1 M98      0.190100
     22 O3         -4.6070   -0.0960   -1.9800 oh        1 M98     -0.552800
     23 C16        -5.4900    1.2950   -0.2860 c3        1 M98      0.629900
     24 F5         -6.7580    1.0460   -0.7310 f         1 M98     -0.216133
     25 F6         -5.6190    1.5680    1.0490 f         1 M98     -0.216133
     26 F7         -5.1260    2.4750   -0.8700 f         1 M98     -0.216133
     27 C17        -4.9800   -1.2250    0.1300 c3        1 M98      0.629900
     28 F8         -4.2460   -2.3170   -0.2560 f         1 M98     -0.216133
     29 F9         -4.9340   -1.2060    1.4950 f         1 M98     -0.216133
     30 F10        -6.2730   -1.5460   -0.1840 f         1 M98     -0.216133
     31 C18         1.0810    2.5730    0.7870 c3        1 M98     -0.026100
     32 C19         2.3080    3.2460    0.2810 ca        1 M98     -0.036300
     33 C20         2.3040    3.9330   -0.9390 ca        1 M98     -0.178000
     34 C21         3.4700    4.5720   -1.3540 ca        1 M98     -0.084000
     35 C22         3.4720    3.2220    1.0570 ca        1 M98     -0.212300
     36 C23         4.6180    4.5330   -0.5640 ca        1 M98     -0.223300
     37 N2          4.6420    3.8620    0.6560 na        1 M98      0.257600
     38 H1          5.4380   -4.3260    1.3640 h3        1 M98      0.125700
     39 H122        5.1140   -3.7920   -3.1120 hc        1 M98      0.082450
     40 H131        3.2330   -4.5730   -1.5560 hc        1 M98      0.082450
     41 H132        2.0500   -4.5610   -2.9610 hc        1 M98      0.082450
     42 H8          2.4960   -1.9970   -3.2480 h1        1 M98      0.079700
     43 H4          2.2340    0.0900   -1.9000 ha        1 M98      0.144000
     44 H6          1.0150    0.0070    2.2660 ha        1 M98      0.156000
     45 H7          2.4510   -1.9950    2.6470 ha        1 M98      0.161000
     46 H9          0.7820    1.6930   -1.1670 hc        1 M98      0.067700
     47 H11        -3.3490    0.5570    2.0400 h4        1 M98      0.068100
     48 HO3        -4.0750   -0.8720   -2.2160 ho        1 M98      0.437000
     49 H181        0.2440    3.3250    0.7950 hc        1 M98      0.075200
     50 H182        1.2270    2.2250    1.8440 hc        1 M98      0.075200
     51 H20         1.3950    3.9740   -1.5540 ha        1 M98      0.142000
     52 H21         3.5060    5.1200   -2.3070 ha        1 M98      0.153000
     53 H22         3.5330    2.6950    2.0250 h4        1 M98      0.189000
     54 H23         5.5620    5.0250   -0.8520 h4        1 M98      0.187000
     55 O4          5.6480    3.8390    1.3500 o         1 M98     -0.281000
     56 H121        3.9490   -3.7510   -4.5300 hc        1 M98      0.082450
@<TRIPOS>BOND
     1    1    3 1   
     2    2    3 1   
     3    3    4 1   
     4    3   38 1   
     5    4    9 1   
     6    5    6 1   
     7    5    7 1   
     8    5   39 1   
     9    5   56 1   
    10    6    7 1   
    11    6   40 1   
    12    6   41 1   
    13    7    8 1   
    14    7   42 1   
    15    8   10 1   
    16    9   10 ar  
    17    9   14 ar  
    18   10   11 ar  
    19   11   12 ar  
    20   11   43 1   
    21   12   13 ar  
    22   12   15 1   
    23   13   14 ar  
    24   13   44 1   
    25   14   45 1   
    26   15   16 1   
    27   15   31 1   
    28   15   46 1   
    29   16   18 2   
    30   16   19 1   
    31   17   18 1   
    32   17   20 2   
    33   17   47 1   
    34   19   20 1   
    35   20   21 1   
    36   21   22 1   
    37   21   23 1   
    38   21   27 1   
    39   22   48 1   
    40   23   24 1   
    41   23   25 1   
    42   23   26 1   
    43   27   28 1   
    44   27   29 1   
    45   27   30 1   
    46   31   32 1   
    47   31   49 1   
    48   31   50 1   
    49   32   33 ar  
    50   32   35 ar  
    51   33   34 ar  
    52   33   51 1   
    53   34   36 ar  
    54   34   52 1   
    55   35   37 1   
    56   35   53 1   
    57   36   37 2   
    58   36   54 1   
    59   37   55 1   
@<TRIPOS>SUBSTRUCTURE
     1 M98         1 TEMP              0 ****  ****    0 ROOT
