@<TRIPOS>MOLECULE
M98
   56    55     1     0     0
SMALL
bcc


@<TRIPOS>ATOM
      1 F1          2.0200    0.9110   -1.9800 f         1 M98     -0.038000
      2 F2          3.8020    0.8500   -0.7770 f         1 M98     -0.191000
      3 C1          2.5370    0.4270   -0.6520 c2        1 M98      0.136000
      4 O1          1.8140    1.2330    0.1940 os        1 M98     -0.272000
      5 C12         2.6820   -0.1530    4.3250 c3        1 M98     -0.242000
      6 C13         2.9720   -0.0580    5.8030 c3        1 M98     -0.189000
      7 C8          2.3910    1.1980    3.7710 c1        1 M98     -0.008000
      8 O2          2.9580    1.3540    2.5780 os        1 M98     -0.137000
      9 C2          2.2550    2.4780    0.6510 c2        1 M98      0.070000
     10 C3          2.7130    2.5820    1.9240 c2        1 M98      0.063000
     11 C4          3.0990    3.8070    2.6800 c3        1 M98     -0.007000
     12 C5          2.0370    4.7800    2.8880 cv        1 M98     -0.765000
     13 C6          1.9720    4.4780   -0.9970 c1        1 M98     -0.187000
     14 C7          2.1040    3.5610   -0.2370 c1        1 M98     -0.152000
     15 C9          0.5680    4.4480    3.0320 cy        1 M98      0.019000
     16 C10         0.1660    5.9330    3.1140 cv        1 M98     -0.233000
     17 C11         2.1870    7.3480    1.7250 c1        1 M98     -0.468000
     18 N1         -0.9620    6.4720    3.2300 n2        1 M98     -0.136000
     19 S1          1.9480    6.3550    3.0000 s4        1 M98      1.244000
     20 C14         2.4050    8.1370    0.8430 c1        1 M98     -0.163000
     21 C15         2.6760    9.1040   -0.1910 c3        1 M98      0.129000
     22 O3          3.5960   10.1010    0.1960 oh        1 M98     -0.270000
     23 C16         1.3230    9.8350   -0.6190 c3        1 M98      0.422500
     24 F5          1.4500   10.6010   -1.7430 f         1 M98     -0.143000
     25 F6          0.2730    8.9960   -0.8640 f         1 M98     -0.143000
     26 F7          0.8920   10.6950    0.3580 f         1 M98     -0.143000
     27 C17         3.3600    8.4260   -1.4580 c3        1 M98      0.422500
     28 F8          4.4830    7.7140   -1.1440 f         1 M98     -0.143000
     29 F9          2.5370    7.5460   -2.1080 f         1 M98     -0.143000
     30 F10         3.7490    9.3290   -2.4050 f         1 M98     -0.143000
     31 C18         0.2430    3.6460    4.2760 c3        1 M98     -0.083000
     32 C19        -1.1190    3.2210    4.3300 c1        1 M98     -0.026000
     33 C20        -4.8490    1.3570   11.1830 c3        1 M98     -0.109000
     34 C21        -4.7240    1.5020    9.7690 c1        1 M98     -0.187000
     35 C22        -2.2610    2.8440    4.3850 c1        1 M98     -0.289000
     36 C23        -4.6210    1.6240    8.5830 c1        1 M98     -0.209000
     37 N2         -3.5870    2.4430    4.2730 n2        1 M98      0.316000
     38 H1          1.5820    1.5640   -2.2540 ha        1 M98      0.340000
     39 H122        3.0700   -1.0820    6.2360 hc        1 M98      0.079000
     40 H131        1.7450   -0.7560    4.1560 hc        1 M98      0.111500
     41 H132        2.1490    0.4790    6.3330 hc        1 M98      0.079000
     42 H8          3.9260    0.4940    5.9820 hc        1 M98      0.079000
     43 H4          3.4860    3.4750    3.6900 hc        1 M98      0.106000
     44 H6          3.9620    4.2870    2.1350 hc        1 M98      0.106000
     45 H7          1.8630    5.2980   -1.6640 ha        1 M98      0.236000
     46 H9          0.1350    3.9480    2.1260 hc        1 M98      0.125000
     47 H11        -1.0220    7.4680    3.2460 hn        1 M98      0.173000
     48 HO3         3.2960   10.4720    1.0400 ho        1 M98      0.242000
     49 H181        0.4890    4.2400    5.2000 hc        1 M98      0.150000
     50 H182        0.9230    2.7280    4.2780 hc        1 M98      0.150000
     51 H20        -5.2540    2.2960   11.6420 hc        1 M98      0.090333
     52 H21        -5.5450    0.5140   11.4320 hc        1 M98      0.090333
     53 H22        -3.8510    1.1400   11.6460 hc        1 M98      0.090333
     54 H23        -4.5300    1.7310    7.5300 ha        1 M98      0.233000
     55 O4         -4.1800    2.0900    5.2050 o         1 M98     -0.195000
     56 H121        3.5190   -0.6880    3.7990 hc        1 M98      0.111500
@<TRIPOS>BOND
     1    1    3 1   
     2    1   38 1   
     3    2    3 1   
     4    3    4 1   
     5    4    9 1   
     6    5    6 1   
     7    5    7 1   
     8    5   40 1   
     9    5   56 1   
    10    6   39 1   
    11    6   41 1   
    12    6   42 1   
    13    7    8 1   
    14    8   10 1   
    15    9   10 1   
    16    9   14 1   
    17   10   11 1   
    18   11   12 1   
    19   11   43 1   
    20   11   44 1   
    21   12   15 1   
    22   12   19 1   
    23   13   14 1   
    24   13   45 1   
    25   15   16 1   
    26   15   31 1   
    27   15   46 1   
    28   16   18 1   
    29   16   19 1   
    30   17   19 1   
    31   17   20 1   
    32   18   47 1   
    33   20   21 1   
    34   21   22 1   
    35   21   23 1   
    36   21   27 1   
    37   22   48 1   
    38   23   24 1   
    39   23   25 1   
    40   23   26 1   
    41   27   28 1   
    42   27   29 1   
    43   27   30 1   
    44   31   32 1   
    45   31   49 1   
    46   31   50 1   
    47   32   35 1   
    48   33   34 1   
    49   33   51 1   
    50   33   52 1   
    51   33   53 1   
    52   34   36 1   
    53   35   37 1   
    54   36   54 1   
    55   37   55 1   
@<TRIPOS>SUBSTRUCTURE
     1 M98         1 TEMP              0 ****  ****    0 ROOT
