@<TRIPOS>MOLECULE
M98
   56    54     1     0     0
SMALL
bcc


@<TRIPOS>ATOM
      1 F1          2.4350   -3.2690   -4.0860 f         1 M98     -0.162000
      2 F2          1.7270   -5.2490   -4.7090 f         1 M98     -0.162000
      3 C1          1.3870   -4.1090   -4.0860 c3        1 M98      0.334000
      4 O1          1.0110   -4.3940   -2.7500 os        1 M98     -0.252000
      5 C12         3.6530   -5.4390   -0.0300 cx        1 M98     -0.213000
      6 C13         4.0960   -4.3600    0.9450 cx        1 M98     -0.213000
      7 C8          2.7740   -4.2220    0.2070 cx        1 M98     -0.042000
      8 O2          2.7520   -3.2600   -0.8470 os        1 M98     -0.215000
      9 C2          0.6090   -3.2540   -2.0100 c2        1 M98      0.062000
     10 C3          1.4300   -2.7550   -1.0010 c2        1 M98      0.019000
     11 C4          1.0010   -1.6810   -0.2220 c2        1 M98     -0.128000
     12 C5         -0.2480   -1.1070   -0.4520 c1        1 M98     -0.084000
     13 C6         -1.0680   -1.6070   -1.4610 c1        1 M98     -0.099000
     14 C7         -0.6400   -2.6800   -2.2400 c2        1 M98     -0.120000
     15 C9         -0.6830    0.1120    0.3470 c3        1 M98      0.008000
     16 C10        -0.3130    1.3710   -0.4110 c2        1 M98     -0.269000
     17 C11         0.5680    2.9250   -2.0750 c1        1 M98     -0.046000
     18 N1          0.2090    1.4280   -1.7430 n2        1 M98     -0.117000
     19 S1         -0.3110    2.8100    0.1620 ss        1 M98      0.603000
     20 C14         0.2480    3.7360   -0.9190 c1        1 M98     -0.486000
     21 C15         0.3700    5.2630   -0.8270 c2        1 M98      0.131000
     22 O3          1.4260    5.7040   -1.6610 oh        1 M98     -0.279000
     23 C16         0.6600    5.6640    0.6170 c3        1 M98      0.384000
     24 F5         -0.4170    5.4110    1.3770 f         1 M98     -0.146500
     25 F6          1.7060    4.9580    1.0750 f         1 M98     -0.146500
     26 F7          0.9470    6.9750    0.6680 f         1 M98     -0.146500
     27 C17        -0.9390    5.9050   -1.2800 c3        1 M98      0.384000
     28 F8         -1.2560    5.4580   -2.5050 f         1 M98     -0.146500
     29 F9         -1.9170    5.5830   -0.4190 f         1 M98     -0.146500
     30 F10        -0.7940    7.2400   -1.3140 f         1 M98     -0.146500
     31 C18        -2.1880    0.0710    0.5570 c3        1 M98     -0.117000
     32 C19        -2.4960    0.0410    2.0680 c2        1 M98     -0.035000
     33 C20        -2.2590    1.1510    2.8350 c2        1 M98     -0.160000
     34 C21        -2.6490    1.1710    4.1490 c1        1 M98     -0.085000
     35 C22        -3.1330   -1.0650    2.6240 c1        1 M98     -0.207000
     36 C23        -3.2850    0.0650    4.7020 c1        1 M98     -0.194000
     37 O4         -4.3460   -1.9220    4.5860 o         1 M98     -0.383700
     38 N2         -3.5210   -1.0430    3.9350 n2        1 M98      0.303700
     39 H1          0.6340   -3.6910   -4.5550 h3        1 M98      0.163000
     40 H121        4.1300   -5.4600   -0.8870 hc        1 M98      0.124000
     41 H122        3.3390   -6.2760    0.3760 hc        1 M98      0.124000
     42 H131        4.0300   -4.5930    1.8960 hc        1 M98      0.124000
     43 H132        4.8210   -3.7760    0.6330 hc        1 M98      0.124000
     44 H8          1.9690   -4.3770    0.7440 h1        1 M98      0.127000
     45 H4          1.5790   -1.3290    0.4890 ha        1 M98      0.147000
     46 H6         -1.9470   -1.2040   -1.6230 ha        1 M98      0.158000
     47 H7         -1.2190   -3.0330   -2.9510 ha        1 M98      0.162000
     48 H9         -0.2310    0.1110    1.2180 hc        1 M98      0.107000
     49 H11         0.9430    3.2520   -2.9200 DU        1 M98      0.205000
     50 HO3         1.7160    6.4980   -1.3780 ho        1 M98      0.242000
     51 H181       -2.5970    0.8690    0.1550 hc        1 M98      0.116000
     52 H182       -2.5550   -0.7340    0.1330 hc        1 M98      0.116000
     53 H20        -1.8110    1.9300    2.4450 ha        1 M98      0.156000
     54 H21        -2.4800    1.9660    4.7000 ha        1 M98      0.157000
     55 H22        -3.3030   -1.8600    2.0760 ha        1 M98      0.182000
     56 H23        -3.5650    0.0790    5.6430 ha        1 M98      0.188000
@<TRIPOS>BOND
     1    1    3 1   
     2    2    3 1   
     3    3    4 1   
     4    3   39 1   
     5    4    9 1   
     6    5    6 1   
     7    5    7 1   
     8    5   40 1   
     9    5   41 1   
    10    6    7 1   
    11    6   42 1   
    12    6   43 1   
    13    7    8 1   
    14    7   44 1   
    15    8   10 1   
    16    9   10 1   
    17    9   14 1   
    18   10   11 1   
    19   11   12 1   
    20   11   45 1   
    21   12   15 1   
    22   13   14 1   
    23   13   46 1   
    24   14   47 1   
    25   15   16 1   
    26   15   31 1   
    27   15   48 1   
    28   16   18 1   
    29   16   19 1   
    30   17   18 1   
    31   17   20 1   
    32   19   20 1   
    33   21   22 1   
    34   21   23 1   
    35   21   27 1   
    36   22   50 1   
    37   23   24 1   
    38   23   25 1   
    39   23   26 1   
    40   27   28 1   
    41   27   29 1   
    42   27   30 1   
    43   31   32 1   
    44   31   51 1   
    45   31   52 1   
    46   32   33 1   
    47   32   35 1   
    48   33   34 1   
    49   33   53 1   
    50   34   54 1   
    51   35   55 1   
    52   36   38 1   
    53   36   56 1   
    54   37   38 2   
@<TRIPOS>SUBSTRUCTURE
     1 M98         1 TEMP              0 ****  ****    0 ROOT
