@<TRIPOS>MOLECULE
M99
   56    54     1     0     0
SMALL
bcc


@<TRIPOS>ATOM
      1 F1         -3.5200    4.4500    0.7180 f         1 M99     -0.158000
      2 F2         -5.5600    4.4180   -0.0900 f         1 M99     -0.158000
      3 C1         -4.6080    3.6880    0.5160 c3        1 M99      0.329000
      4 O1         -4.2660    2.5830   -0.3040 os        1 M99     -0.244000
      5 C12        -3.7300    3.2440   -4.0530 cx        1 M99     -0.215500
      6 C13        -2.2250    3.2880   -4.2610 cx        1 M99     -0.215500
      7 C8         -2.7940    3.0010   -2.8810 cx        1 M99     -0.046000
      8 O2         -2.6930    1.6490   -2.4400 os        1 M99     -0.180000
      9 C2         -2.9720    2.0570   -0.0510 c2        1 M99      0.024000
     10 C3         -2.1800    1.6190   -1.1110 c2        1 M99      0.074000
     11 C4         -0.9490    1.0160   -0.8560 c2        1 M99     -0.125000
     12 C5         -0.5110    0.8530    0.4560 c1        1 M99     -0.079000
     13 C6         -1.3030    1.2910    1.5140 c1        1 M99     -0.104000
     14 C7         -2.5330    1.8930    1.2610 c2        1 M99     -0.158000
     15 C9          0.7920    0.1160    0.7360 c3        1 M99      0.008000
     16 C10         0.5030   -1.3530    0.9640 c2        1 M99     -0.283000
     17 C11        -0.3220   -3.4650    1.8670 c1        1 M99     -0.076000
     18 N1         -0.2120   -1.9080    2.0740 n2        1 M99     -0.112000
     19 S1          0.8770   -2.5140    0.0100 ss        1 M99      0.646000
     20 C14         0.3370   -3.8060    0.6250 c1        1 M99     -0.529000
     21 C15         0.4620   -5.2120    0.0250 c2        1 M99      0.115000
     22 O3         -0.6440   -5.9970    0.4290 oh        1 M99     -0.280000
     23 C16         1.7530   -5.8610    0.5160 c3        1 M99      0.411500
     24 F5          1.7560   -7.1620    0.1800 f         1 M99     -0.144667
     25 F6          1.8330   -5.7440    1.8510 f         1 M99     -0.144667
     26 F7          2.8050   -5.2500   -0.0500 f         1 M99     -0.144667
     27 C17         0.4890   -5.1160   -1.4980 c3        1 M99      0.411500
     28 F8          1.6060   -4.4820   -1.8870 f         1 M99     -0.144667
     29 F9         -0.5850   -4.4300   -1.9220 f         1 M99     -0.144667
     30 F10         0.4680   -6.3510   -2.0260 f         1 M99     -0.144667
     31 C18         1.4500    0.7010    1.9740 c3        1 M99     -0.116000
     32 C19         2.8990    1.0990    1.6460 c2        1 M99     -0.037000
     33 C20         3.7910    0.1460    1.2270 c2        1 M99     -0.161000
     34 C21         5.1080    0.4740    1.0490 c1        1 M99     -0.084000
     35 C22         3.3350    2.3970    1.8900 c1        1 M99     -0.207000
     36 C23         5.5400    1.7730    1.2940 c1        1 M99     -0.194000
     37 O4          5.1840    3.9180    2.1100 o         1 M99     -0.382700
     38 N2          4.6500    2.7230    1.7120 n2        1 M99      0.303700
     39 H11        -4.9450    3.3640    1.3800 h3        1 M99      0.139000
     40 H121       -4.1880    4.1140   -4.0600 hc        1 M99      0.120000
     41 H122       -4.1860    2.4490   -4.4060 hc        1 M99      0.120000
     42 H131       -1.8380    4.1830   -4.3840 hc        1 M99      0.120000
     43 H132       -1.8380    2.5190   -4.7300 hc        1 M99      0.120000
     44 H88        -2.7260    3.7330   -2.2310 h1        1 M99      0.153000
     45 H44        -0.3910    0.7070   -1.6020 ha        1 M99      0.154000
     46 H66        -0.9940    1.1760    2.4380 ha        1 M99      0.157000
     47 H77        -3.0910    2.2020    2.0080 ha        1 M99      0.149000
     48 H99         1.3950    0.2150   -0.0330 hc        1 M99      0.110000
     49 H111       -0.7630   -4.0970    2.4760 DU        1 M99      0.196000
     50 H181        0.9510    1.4950    2.2650 hc        1 M99      0.114000
     51 H182        1.4490    0.0310    2.6940 hc        1 M99      0.114000
     52 H220        3.4860   -0.7680    1.0540 ha        1 M99      0.156000
     53 H221        5.7470   -0.2080    0.7490 ha        1 M99      0.157000
     54 H222        2.6980    3.0800    2.1890 ha        1 M99      0.183000
     55 H223        6.4850    2.0080    1.1670 ha        1 M99      0.188000
     56 HO1        -1.2850   -5.9480   -0.1890 ho        1 M99      0.239000
@<TRIPOS>BOND
     1    1    3 1   
     2    2    3 1   
     3    3    4 1   
     4    3   39 1   
     5    4    9 1   
     6    5    6 1   
     7    5    7 1   
     8    5   40 1   
     9    5   41 1   
    10    6    7 1   
    11    6   42 1   
    12    6   43 1   
    13    7    8 1   
    14    7   44 1   
    15    8   10 1   
    16    9   10 1   
    17    9   14 1   
    18   10   11 1   
    19   11   12 1   
    20   11   45 1   
    21   12   15 1   
    22   13   14 1   
    23   13   46 1   
    24   14   47 1   
    25   15   16 1   
    26   15   31 1   
    27   15   48 1   
    28   16   18 1   
    29   16   19 1   
    30   17   18 1   
    31   17   20 1   
    32   19   20 1   
    33   21   22 1   
    34   21   23 1   
    35   21   27 1   
    36   22   56 1   
    37   23   24 1   
    38   23   25 1   
    39   23   26 1   
    40   27   28 1   
    41   27   29 1   
    42   27   30 1   
    43   31   32 1   
    44   31   50 1   
    45   31   51 1   
    46   32   33 1   
    47   32   35 1   
    48   33   34 1   
    49   33   52 1   
    50   34   53 1   
    51   35   54 1   
    52   36   38 1   
    53   36   55 1   
    54   37   38 2   
@<TRIPOS>SUBSTRUCTURE
     1 M99         1 TEMP              0 ****  ****    0 ROOT
