@<TRIPOS>MOLECULE
M99
   56    59     1     0     0
SMALL
bcc


@<TRIPOS>ATOM
      1 F1         -1.2580    1.0830    4.0570 f         1 M99     -0.234300
      2 F2         -2.0110   -0.8830    3.5290 f         1 M99     -0.234300
      3 C1         -0.8700   -0.1360    3.5850 c3        1 M99      0.587700
      4 O1         -0.5600    0.1370    2.2200 os        1 M99     -0.367900
      5 C12         2.5170    2.1700    4.8950 cx        1 M99     -0.134400
      6 C13         1.8670    2.6880    3.6430 cx        1 M99     -0.134400
      7 C8          2.6720    1.4130    3.6020 cx        1 M99      0.069100
      8 O2          1.9520    0.1910    3.5740 os        1 M99     -0.331900
      9 C2          0.5730   -0.4730    1.7100 ca        1 M99      0.107100
     10 C3          1.8440   -0.3650    2.3040 ca        1 M99      0.066100
     11 C4          2.9650   -0.9140    1.6710 ca        1 M99     -0.115000
     12 C5          2.8210   -1.5680    0.4440 ca        1 M99     -0.089300
     13 C6          1.5520   -1.6730   -0.1420 ca        1 M99     -0.114000
     14 C7          0.4310   -1.1390    0.4840 ca        1 M99     -0.119000
     15 C9          4.0060   -2.1630   -0.2570 c3        1 M99     -0.036700
     16 C10         4.6080   -3.2570    0.5700 cc        1 M99      0.369700
     17 C11         5.7980   -4.2720    2.1400 cd        1 M99      0.383200
     18 N1          5.4410   -3.0590    1.6090 nd        1 M99     -0.629000
     19 S1          4.2600   -4.8890    0.2380 ss        1 M99      0.074700
     20 C14         5.2370   -5.3920    1.5040 cc        1 M99     -0.289700
     21 C15         5.4950   -6.7840    1.9140 c3        1 M99      0.204100
     22 O3          4.7840   -7.6620    1.0720 oh        1 M99     -0.556800
     23 C16         5.0150   -7.0450    3.4120 c3        1 M99      0.603900
     24 F5          3.7170   -6.6840    3.6400 f         1 M99     -0.217800
     25 F6          5.7530   -6.4040    4.3670 f         1 M99     -0.217800
     26 F7          5.0710   -8.3780    3.7350 f         1 M99     -0.217800
     27 C17         7.0440   -7.1440    1.7990 c3        1 M99      0.603900
     28 F8          7.8470   -6.5090    2.7040 f         1 M99     -0.217800
     29 F9          7.5780   -6.8670    0.5720 f         1 M99     -0.217800
     30 F10         7.2660   -8.4850    1.9830 f         1 M99     -0.217800
     31 C18         5.0630   -1.1110   -0.6020 c3        1 M99     -0.027100
     32 C19         4.6660   -0.2740   -1.7670 ca        1 M99     -0.035300
     33 C20         4.5730   -0.8210   -3.0520 ca        1 M99     -0.177000
     34 C21         4.2260    0.0120   -4.1130 ca        1 M99     -0.084000
     35 C22         4.4170    1.0900   -1.5770 ca        1 M99     -0.214300
     36 C23         3.9800    1.3670   -3.8980 ca        1 M99     -0.223300
     37 N2          4.0720    1.9330   -2.6300 na        1 M99      0.257600
     38 H11        -0.0420   -0.6130    4.1800 h3        1 M99      0.123700
     39 H122        1.8760    1.7440    5.6870 hc        1 M99      0.084700
     40 H131        0.7660    2.6180    3.5550 hc        1 M99      0.084700
     41 H132        2.2720    3.5870    3.1480 hc        1 M99      0.084700
     42 H88         3.6380    1.3530    3.0720 h1        1 M99      0.088700
     43 H44         3.9510   -0.8290    2.1540 ha        1 M99      0.164000
     44 H66         1.4330   -2.1830   -1.1110 ha        1 M99      0.138000
     45 H77        -0.5670   -1.2140    0.0240 ha        1 M99      0.161000
     46 H99         3.6550   -2.6310   -1.2250 hc        1 M99      0.065700
     47 H111        6.4780   -4.3090    3.0040 h4        1 M99      0.065100
     48 H181        6.0270   -1.6330   -0.8540 hc        1 M99      0.073700
     49 H182        5.2560   -0.4700    0.2990 hc        1 M99      0.073700
     50 H220        4.7780   -1.8870   -3.2210 ha        1 M99      0.144000
     51 H221        4.1420   -0.3820   -5.1370 ha        1 M99      0.154000
     52 H222        4.4760    1.5740   -0.5870 h4        1 M99      0.187000
     53 H223        3.7030    2.0630   -4.7080 h4        1 M99      0.187000
     54 HO1         4.9660   -8.5700    1.3680 ho        1 M99      0.446000
     55 O4          3.8620    3.1240   -2.4460 o         1 M99     -0.283000
     56 H121        3.4040    2.6840    5.3050 hc        1 M99      0.084700
@<TRIPOS>BOND
     1    1    3 1   
     2    2    3 1   
     3    3    4 1   
     4    3   38 1   
     5    4    9 1   
     6    5    6 1   
     7    5    7 1   
     8    5   39 1   
     9    5   56 1   
    10    6    7 1   
    11    6   40 1   
    12    6   41 1   
    13    7    8 1   
    14    7   42 1   
    15    8   10 1   
    16    9   10 ar  
    17    9   14 ar  
    18   10   11 ar  
    19   11   12 ar  
    20   11   43 1   
    21   12   13 ar  
    22   12   15 1   
    23   13   14 ar  
    24   13   44 1   
    25   14   45 1   
    26   15   16 1   
    27   15   31 1   
    28   15   46 1   
    29   16   18 2   
    30   16   19 1   
    31   17   18 1   
    32   17   20 2   
    33   17   47 1   
    34   19   20 1   
    35   20   21 1   
    36   21   22 1   
    37   21   23 1   
    38   21   27 1   
    39   22   54 1   
    40   23   24 1   
    41   23   25 1   
    42   23   26 1   
    43   27   28 1   
    44   27   29 1   
    45   27   30 1   
    46   31   32 1   
    47   31   48 1   
    48   31   49 1   
    49   32   33 ar  
    50   32   35 ar  
    51   33   34 ar  
    52   33   50 1   
    53   34   36 ar  
    54   34   51 1   
    55   35   37 1   
    56   35   52 1   
    57   36   37 2   
    58   36   53 1   
    59   37   55 1   
@<TRIPOS>SUBSTRUCTURE
     1 M99         1 TEMP              0 ****  ****    0 ROOT
