@<TRIPOS>MOLECULE
M99
   56    55     1     0     0
SMALL
bcc


@<TRIPOS>ATOM
      1 F1         -1.0380    0.1610    1.5970 f         1 M99     -0.136500
      2 F2         -0.8340   -1.0200   -0.1230 f         1 M99     -0.136500
      3 C1         -1.3210   -1.0210    1.0930 c1        1 M99      0.274000
      4 O1          1.1680   -0.6880    1.9750 oh        1 M99     -0.258000
      5 C12         1.6380    2.4250    5.0760 c3        1 M99     -0.224000
      6 C13         3.1040    2.4930    4.7430 c3        1 M99     -0.235000
      7 C8          3.7010    1.3280    4.0510 c1        1 M99     -0.033000
      8 O2          2.8360    0.3590    3.8120 os        1 M99     -0.130000
      9 C2          2.3800   -1.2930    2.2260 c2        1 M99      0.213000
     10 C3          3.2910   -0.7900    3.1090 c2        1 M99     -0.070000
     11 C4          4.5890   -1.3210    3.4650 c2        1 M99     -0.124000
     12 C5          5.4250   -1.8670    2.5730 c2        1 M99     -0.121000
     13 C6          2.6800   -3.5100    0.8910 c1        1 M99     -0.090000
     14 C7          2.5570   -2.4890    1.5040 c1        1 M99     -0.175000
     15 C9          6.8030   -2.3850    2.8210 c3        1 M99     -0.022000
     16 C10         6.8060   -3.8650    2.5850 c2        1 M99     -0.374000
     17 C11         6.1790   -6.0570    2.9390 c1        1 M99     -0.087000
     18 N1          6.0430   -4.7500    3.3270 n3        1 M99     -0.116000
     19 S1          7.6850   -4.6330    1.4280 ss        1 M99      0.789000
     20 C14         7.0800   -6.1490    1.8600 c2        1 M99     -0.630000
     21 C15         7.4100   -7.4250    1.2050 c3        1 M99      0.140000
     22 O3          8.6980   -7.4270    0.6190 oh        1 M99     -0.297000
     23 C16         6.4450   -7.7190   -0.0250 c3        1 M99      0.420000
     24 F5          6.5520   -6.7900   -1.0260 f         1 M99     -0.149667
     25 F6          5.1160   -7.7430    0.2930 f         1 M99     -0.149667
     26 F7          6.6890   -8.9210   -0.6320 f         1 M99     -0.149667
     27 C17         7.3480   -8.6460    2.2240 c3        1 M99      0.420000
     28 F8          6.1050   -9.0120    2.6440 f         1 M99     -0.149667
     29 F9          8.0960   -8.4320    3.3520 f         1 M99     -0.149667
     30 F10         7.8900   -9.7870    1.6840 f         1 M99     -0.149667
     31 C18         7.4290   -2.0870    4.1810 c3        1 M99     -0.142000
     32 C19         7.9790   -0.6650    4.3280 c3        1 M99     -0.060000
     33 C20         9.0190   -0.3180    3.3200 c2        1 M99      0.212000
     34 C21         9.8570   -1.1990    2.7970 c1        1 M99     -0.601000
     35 C22         6.8430    0.2920    4.4100 c2        1 M99     -0.354000
     36 C23        10.6890   -2.0080    2.2740 c1        1 M99      0.174000
     37 N2          6.3640    1.0690    3.4450 n3        1 M99      0.238000
     38 H11         1.0910    0.1140    2.5180 ho        1 M99      0.245000
     39 H122        1.0320    2.2690    4.1510 hc        1 M99      0.085667
     40 H131        1.3050    3.3730    5.5640 hc        1 M99      0.085667
     41 H132        3.3120    3.3790    4.0750 hc        1 M99      0.137500
     42 H88         3.7100    2.6460    5.6810 hc        1 M99      0.137500
     43 H44         4.8480   -1.2110    4.5320 ha        1 M99      0.142000
     44 H66         5.1180   -1.9490    1.5120 ha        1 M99      0.143000
     45 H77         2.7970   -4.4220    0.3540 ha        1 M99      0.245000
     46 H99         7.4690   -1.9050    2.0360 hc        1 M99      0.142000
     47 H111        5.4460   -4.4600    4.0660 hn        1 M99      0.266000
     48 H181        6.6810   -2.2710    4.9940 hc        1 M99      0.099500
     49 H182        8.2870   -2.7970    4.3360 hc        1 M99      0.099500
     50 H220        8.5190   -0.6260    5.3280 hc        1 M99      0.134000
     51 H221        9.0820    0.7560    3.0400 ha        1 M99      0.163000
     52 H222        6.2820    0.2850    5.3590 h4        1 M99      0.146000
     53 H223        5.3640    1.4400    3.6270 hn        1 M99      0.302000
     54 HO1         9.3440   -7.4100    1.3420 ho        1 M99      0.235000
     55 O4          6.8820    1.2860    2.3630 o         1 M99     -0.461000
     56 H121        1.4320    1.5760    5.7720 hc        1 M99      0.085667
@<TRIPOS>BOND
     1    1    3 1   
     2    2    3 1   
     3    4    9 1   
     4    4   38 1   
     5    5    6 1   
     6    5   39 1   
     7    5   40 1   
     8    5   56 1   
     9    6    7 1   
    10    6   41 1   
    11    6   42 1   
    12    7    8 1   
    13    8   10 1   
    14    9   10 1   
    15    9   14 1   
    16   10   11 1   
    17   11   12 1   
    18   11   43 1   
    19   12   15 1   
    20   12   44 1   
    21   13   14 1   
    22   13   45 1   
    23   15   16 1   
    24   15   31 1   
    25   15   46 1   
    26   16   18 1   
    27   16   19 1   
    28   17   18 1   
    29   17   20 1   
    30   18   47 1   
    31   19   20 1   
    32   20   21 1   
    33   21   22 1   
    34   21   23 1   
    35   21   27 1   
    36   22   54 1   
    37   23   24 1   
    38   23   25 1   
    39   23   26 1   
    40   27   28 1   
    41   27   29 1   
    42   27   30 1   
    43   31   32 1   
    44   31   48 1   
    45   31   49 1   
    46   32   33 1   
    47   32   35 1   
    48   32   50 1   
    49   33   34 1   
    50   33   51 1   
    51   34   36 1   
    52   35   37 1   
    53   35   52 1   
    54   37   53 1   
    55   37   55 1   
@<TRIPOS>SUBSTRUCTURE
     1 M99         1 TEMP              0 ****  ****    0 ROOT
