@<TRIPOS>MOLECULE
M9F
   48    44     1     0     0
SMALL
bcc


@<TRIPOS>ATOM
      1 CAU         0.0180   -0.3900    1.7350 c1        1 M9F      0.306000
      2 OAV         1.2320   -0.4140    1.7470 o         1 M9F     -0.392000
      3 O          -0.4480   -0.2050    8.3190 o         1 M9F     -0.583000
      4 CAT        -0.7510   -0.3820    3.0380 c3        1 M9F     -0.181000
      5 C           0.4740   -0.7440    7.6510 c1        1 M9F      0.306000
      6 CA          0.1360   -1.6650    6.5010 c2        1 M9F     -0.125000
      7 CB         -0.6350   -0.8980    5.4520 c3        1 M9F     -0.143000
      8 CAS         0.1240   -0.9320    4.1430 c3        1 M9F     -0.153000
      9 N          -0.6580   -2.7450    6.9770 n3        1 M9F     -0.324000
     10 OXT         1.6780   -0.5080    7.9360 o         1 M9F     -0.583000
     11 NAC        -0.6800   -0.4010    0.5000 n2        1 M9F     -0.370000
     12 CAD         0.0360   -0.5370   -0.7190 c3        1 M9F      0.010000
     13 CAG        -0.7740    0.0580   -1.8490 c1        1 M9F      0.276000
     14 OAH        -1.9590   -0.1920   -1.9430 o         1 M9F     -0.402000
     15 CAE         0.2880   -2.0020   -0.9950 c3        1 M9F     -0.252000
     16 SAF         1.8630   -2.1920   -1.7870 sh        1 M9F     -0.147000
     17 CAN         2.7740    1.9600   -5.9700 c3        1 M9F     -0.328000
     18 SAM         1.4960    0.9910   -5.2160 ss        1 M9F     -0.008000
     19 CAK         0.0780    2.0120   -4.9160 c3        1 M9F     -0.166000
     20 CAO        -0.6350    2.2830   -6.2230 c3        1 M9F     -0.208000
     21 CAJ        -0.8620    1.3040   -3.9660 c3        1 M9F     -0.078000
     22 CAP        -1.9680    2.2490   -3.5530 c2        1 M9F      0.332000
     23 OAR        -3.1690    1.9520   -3.7880 o         1 M9F     -0.558500
     24 OAQ        -1.6870    3.3390   -2.9900 o         1 M9F     -0.558500
     25 NAI        -0.1440    0.8840   -2.8150 n2        1 M9F     -0.320000
     26 HAT1       -1.0150    0.5340    3.2560 hc        1 M9F      0.106000
     27 HAT2       -1.5510   -0.9390    2.9480 hc        1 M9F      0.106000
     28 HA          0.9610   -2.0130    6.1100 h4        1 M9F      0.081000
     29 HB1C       -0.7450    0.0300    5.7410 hc        1 M9F      0.087000
     30 HB2C       -1.5150   -1.3070    5.3290 hc        1 M9F      0.087000
     31 HAS1        0.3720   -1.8550    3.9340 hc        1 M9F      0.083500
     32 HAS2        0.9320   -0.3870    4.2210 hc        1 M9F      0.083500
     33 HN1        -0.6970   -2.7160    7.8920 hn        1 M9F      0.125500
     34 HN2        -0.2830   -3.5390    6.7130 hn        1 M9F      0.125500
     35 HAC        -1.5900   -0.3410    0.4900 hn        1 M9F      0.238000
     36 HAD         0.8910   -0.0670   -0.6480 h1        1 M9F      0.142000
     37 HAE1       -0.4150   -2.3490   -1.5810 h1        1 M9F      0.122000
     38 HAE2        0.2840   -2.4990   -0.1530 h1        1 M9F      0.122000
     39 HAF         2.0390   -3.3290   -2.0420 hs        1 M9F      0.120000
     40 HAN1        3.5350    1.3830   -6.1900 h1        1 M9F      0.096333
     41 HAN2        3.0640    2.6600   -5.3480 h1        1 M9F      0.096333
     42 HAN3        2.4300    2.3740   -6.7890 h1        1 M9F      0.096333
     43 HAK         0.3640    2.8580   -4.5200 h1        1 M9F      0.112000
     44 HAO1       -1.0730    1.4630   -6.5320 hc        1 M9F      0.085000
     45 HAO2       -1.3080    2.9830   -6.0890 hc        1 M9F      0.085000
     46 HAO3        0.0150    2.5790   -6.8940 hc        1 M9F      0.085000
     47 HAJ        -1.2490    0.5240   -4.4120 h1        1 M9F      0.122000
     48 HAI         0.7280    1.1290   -2.7070 hn        1 M9F      0.245000
@<TRIPOS>BOND
     1    1    2 1   
     2    1    4 1   
     3    3    5 1   
     4    4    8 1   
     5    4   26 1   
     6    4   27 1   
     7    5   10 1   
     8    6    7 1   
     9    6    9 1   
    10    6   28 1   
    11    7    8 1   
    12    7   29 1   
    13    7   30 1   
    14    8   31 1   
    15    8   32 1   
    16    9   33 1   
    17    9   34 1   
    18   11   12 1   
    19   11   35 1   
    20   12   13 1   
    21   12   15 1   
    22   12   36 1   
    23   13   14 1   
    24   15   16 1   
    25   15   37 1   
    26   15   38 1   
    27   16   39 1   
    28   17   18 1   
    29   17   40 1   
    30   17   41 1   
    31   17   42 1   
    32   18   19 1   
    33   19   20 1   
    34   19   21 1   
    35   19   43 1   
    36   20   44 1   
    37   20   45 1   
    38   20   46 1   
    39   21   22 1   
    40   21   25 1   
    41   21   47 1   
    42   22   23 1   
    43   22   24 1   
    44   25   48 1   
@<TRIPOS>SUBSTRUCTURE
     1 M9F         1 TEMP              0 ****  ****    0 ROOT
