@<TRIPOS>MOLECULE
M9F
   48    47     1     0     0
SMALL
bcc


@<TRIPOS>ATOM
      1 CAU         1.4440   -0.6060    1.2830 c         1 M9F      0.661100
      2 OAV         1.1520   -0.6670    2.4980 o         1 M9F     -0.644100
      3 O           8.1730    0.0310   -1.5800 o         1 M9F     -0.848300
      4 CAT         2.7610   -1.1450    0.7590 c3        1 M9F     -0.150400
      5 C           7.4720   -0.2070   -0.5540 c         1 M9F      0.886600
      6 CA          6.0610    0.4630   -0.4510 c3        1 M9F      0.022500
      7 CB          5.0370   -0.6180   -0.1030 c3        1 M9F     -0.065400
      8 CAS         3.6990   -0.0420    0.3100 c3        1 M9F     -0.074400
      9 N           5.6900    1.2610   -1.6130 n3        1 M9F     -0.890800
     10 NAC         0.5790   -0.0260    0.3770 n         1 M9F     -0.562900
     11 CAD        -0.7750    0.3440    0.7060 c3        1 M9F      0.029700
     12 CAG        -1.7620   -0.0960   -0.4200 c         1 M9F      0.642100
     13 OAH        -1.3580   -0.1960   -1.6020 o         1 M9F     -0.658100
     14 CAE        -0.9680    1.8550    0.8830 c3        1 M9F      0.004700
     15 SAF        -0.4710    2.4740    2.4680 sh        1 M9F     -0.445900
     16 CAN        -5.9700    1.6440    0.6970 c3        1 M9F     -0.042000
     17 SAM        -4.9250    2.0420   -0.6570 ss        1 M9F     -0.389200
     18 CAK        -4.8030    0.5250   -1.6160 c3        1 M9F      0.038400
     19 CAO        -4.0800    0.9410   -2.8710 c3        1 M9F     -0.091100
     20 CAJ        -4.1220   -0.6750   -0.9340 c3        1 M9F     -0.036300
     21 CAP        -5.2370   -1.5240   -0.2110 c         1 M9F      0.911600
     22 OAR        -6.0220   -2.1540   -0.9660 o         1 M9F     -0.826300
     23 OAQ        -5.2930   -1.5110    1.0510 o         1 M9F     -0.826300
     24 NAI        -3.0470   -0.3280   -0.0380 n         1 M9F     -0.510900
     25 HAT1        3.2360   -1.7290    1.5910 hc        1 M9F      0.065700
     26 HAT2        2.5680   -1.8520   -0.0890 hc        1 M9F      0.065700
     27 HA          6.1200    1.1830    0.4180 h1        1 M9F      0.042700
     28 HB1C        4.8960   -1.3090   -0.9750 hc        1 M9F      0.047200
     29 HB2C        5.4730   -1.2230    0.7380 hc        1 M9F      0.047200
     30 HAS1        3.2450    0.5210   -0.5460 hc        1 M9F      0.046700
     31 HAS2        3.8480    0.6880    1.1480 hc        1 M9F      0.046700
     32 HN1         6.5230    1.7310   -1.9300 hn        1 M9F      0.329800
     33 HN2         5.4190    0.6390   -2.3550 hn        1 M9F      0.329800
     34 HAC         0.8070   -0.0350   -0.5930 hn        1 M9F      0.334500
     35 HAD        -1.0510   -0.1690    1.6790 h1        1 M9F      0.099700
     36 HAE1       -0.4270    2.4150    0.0820 h1        1 M9F      0.088700
     37 HAE2       -2.0580    2.1070    0.8050 h1        1 M9F      0.088700
     38 HAF         0.5180    1.6280    2.7540 hs        1 M9F      0.250800
     39 HAN1       -7.0410    1.7210    0.4090 h1        1 M9F      0.068700
     40 HAN2       -5.7770    0.6090    1.0780 h1        1 M9F      0.068700
     41 HAN3       -5.7510    2.3820    1.5000 h1        1 M9F      0.068700
     42 HAK        -5.8460    0.1950   -1.8650 h1        1 M9F      0.087700
     43 HAO1       -4.5090    1.8890   -3.2810 hc        1 M9F      0.041367
     44 HAO2       -2.9900    1.0910   -2.6710 hc        1 M9F      0.041367
     45 HAO3       -4.1830    0.1420   -3.6460 hc        1 M9F      0.041367
     46 HAJ        -3.6990   -1.3250   -1.7580 h1        1 M9F      0.074700
     47 HAI        -3.2980   -0.3050    0.9280 hn        1 M9F      0.336500
     48 OXT         7.8490   -0.9340    0.4080 o         1 M9F     -0.848300
@<TRIPOS>BOND
     1    1    2 2   
     2    1    4 1   
     3    1   10 1   
     4    3    5 1   
     5    4    8 1   
     6    4   25 1   
     7    4   26 1   
     8    5    6 1   
     9    5   48 1   
    10    6    7 1   
    11    6    9 1   
    12    6   27 1   
    13    7    8 1   
    14    7   28 1   
    15    7   29 1   
    16    8   30 1   
    17    8   31 1   
    18    9   32 1   
    19    9   33 1   
    20   10   11 1   
    21   10   34 1   
    22   11   12 1   
    23   11   14 1   
    24   11   35 1   
    25   12   13 2   
    26   12   24 1   
    27   14   15 1   
    28   14   36 1   
    29   14   37 1   
    30   15   38 1   
    31   16   17 1   
    32   16   39 1   
    33   16   40 1   
    34   16   41 1   
    35   17   18 1   
    36   18   19 1   
    37   18   20 1   
    38   18   42 1   
    39   19   43 1   
    40   19   44 1   
    41   19   45 1   
    42   20   21 1   
    43   20   24 1   
    44   20   46 1   
    45   21   22 1   
    46   21   23 1   
    47   24   47 1   
@<TRIPOS>SUBSTRUCTURE
     1 M9F         1 TEMP              0 ****  ****    0 ROOT
