@<TRIPOS>MOLECULE
M9F
   51    48     1     0     0
SMALL
bcc


@<TRIPOS>ATOM
      1 CAU        -1.0950   -1.3350    0.3320 c3        1 M9F      0.324300
      2 OAV        -1.1220   -2.5440   -0.3850 os        1 M9F     -0.315600
      3 O           1.4580    0.2400    0.9230 o         1 M9F     -0.772800
      4 CAT        -2.2770   -1.2030    1.2950 c3        1 M9F     -0.129400
      5 C           2.2420    0.2550   -0.0610 c         1 M9F      0.873600
      6 CA          3.7490    0.4530    0.2170 c2        1 M9F      0.166000
      7 CB         -3.1450   -0.0320    3.3090 c3        1 M9F     -0.095100
      8 CAS        -2.1790    0.0390    2.1530 c3        1 M9F     -0.093400
      9 N           4.2100    0.6340    1.4170 nh        1 M9F     -0.637600
     10 NAC        -1.0020   -0.1440   -0.6180 n4        1 M9F     -0.801000
     11 CAD        -0.7620   -0.5290   -2.0450 c3        1 M9F      0.069500
     12 CAG        -0.6980    0.7730   -2.8920 c         1 M9F      0.659100
     13 OAH        -1.6550    1.5720   -2.8170 o         1 M9F     -0.625100
     14 CAE        -1.8620   -1.4050   -2.6330 c3        1 M9F     -0.117300
     15 SAF        -2.4240   -2.6310   -1.4980 ss        1 M9F      0.075700
     16 CAN         3.9730    2.1640   -6.5630 c3        1 M9F     -0.055000
     17 SAM         3.0600    1.4660   -5.2350 ss        1 M9F     -0.204700
     18 CAK         1.6110    2.3140   -5.2940 c2        1 M9F     -0.141400
     19 CAO        -0.9040   -3.1120   -5.7580 c3        1 M9F     -0.116800
     20 CAJ         0.5100    2.0320   -4.5690 c2        1 M9F     -0.046400
     21 CAP        -2.7840    3.3140   -1.1150 c1        1 M9F      0.922000
     22 OAR        -3.1830    4.1670   -1.8310 o         1 M9F     -0.459500
     23 OAQ        -2.3830    2.4660   -0.3710 o         1 M9F     -0.459500
     24 NAI         0.4000    0.9490   -3.6860 n         1 M9F     -0.426100
     25 HAT1       -3.2470   -1.2230    0.7290 hc        1 M9F      0.091700
     26 HAT2       -2.2520   -2.1210    1.9440 hc        1 M9F      0.091700
     27 HA         -3.0830    0.9040    3.9160 hc        1 M9F      0.048033
     28 HB1C        4.4280    0.4370   -0.6650 h4        1 M9F      0.201000
     29 HB2C       -2.9060   -0.8980    3.9730 hc        1 M9F      0.048033
     30 HAS1       -4.1930   -0.1480    2.9430 hc        1 M9F      0.048033
     31 HAS2       -2.4070    0.9540    1.5410 hc        1 M9F      0.054200
     32 HN1         5.1830    0.7690    1.6210 hn        1 M9F      0.482800
     33 HN2         3.5730    0.6450    2.2020 hn        1 M9F      0.482800
     34 HAC        -1.8660    0.4150   -0.5650 hn        1 M9F      0.484800
     35 HAD        -0.2080    0.4450   -0.3010 hn        1 M9F      0.484800
     36 HAE1        0.2270   -1.0890   -2.0600 hx        1 M9F      0.150700
     37 HAE2       -2.7510   -0.7870   -2.9270 h1        1 M9F      0.121700
     38 HAF        -1.4640   -1.8800   -3.5710 h1        1 M9F      0.121700
     39 HAN1        4.9590    1.6430   -6.5570 h1        1 M9F      0.077367
     40 HAN2        4.1370    3.2560   -6.4310 h1        1 M9F      0.077367
     41 HAN3        3.4790    1.9940   -7.5450 h1        1 M9F      0.077367
     42 HAK         1.5520    3.1760   -5.9790 h4        1 M9F      0.166000
     43 HAO1       -1.3570   -3.8290   -5.0400 hc        1 M9F      0.029700
     44 HAO2        0.0370   -2.6990   -5.3330 hc        1 M9F      0.029700
     45 HAO3       -0.6750   -3.6410   -6.7100 hc        1 M9F      0.029700
     46 HAJ        -1.6180   -2.2840   -5.9620 hc        1 M9F      0.029700
     47 HAI        -0.4070    2.6520   -4.6420 h4        1 M9F      0.179000
     48 HN3        -1.1310    0.1490    2.5410 hc        1 M9F      0.054200
     49 HAC2       -0.1020   -1.3770    0.8980 hx        1 M9F      0.164700
     50 HAI2        1.1960    0.3580   -3.5510 hn        1 M9F      0.351500
     51 OXT         1.9110    0.1260   -1.2610 o         1 M9F     -0.772800
@<TRIPOS>BOND
     1    1    2 1   
     2    1    4 1   
     3    1   10 1   
     4    1   49 1   
     5    2   15 1   
     6    3    5 1   
     7    4    8 1   
     8    4   25 1   
     9    4   26 1   
    10    5    6 2   
    11    5   51 1   
    12    6    9 1   
    13    6   28 1   
    14    7    8 1   
    15    7   27 1   
    16    7   29 1   
    17    7   30 1   
    18    8   31 1   
    19    8   48 1   
    20    9   32 1   
    21    9   33 1   
    22   10   11 1   
    23   10   34 1   
    24   10   35 1   
    25   11   12 1   
    26   11   14 1   
    27   11   36 1   
    28   12   13 2   
    29   12   24 1   
    30   14   15 1   
    31   14   37 1   
    32   14   38 1   
    33   16   17 1   
    34   16   39 1   
    35   16   40 1   
    36   16   41 1   
    37   17   18 1   
    38   18   20 2   
    39   18   42 1   
    40   19   43 1   
    41   19   44 1   
    42   19   45 1   
    43   19   46 1   
    44   20   24 1   
    45   20   47 1   
    46   21   22 2   
    47   21   23 2   
    48   24   50 1   
@<TRIPOS>SUBSTRUCTURE
     1 M9F         1 TEMP              0 ****  ****    0 ROOT
