@<TRIPOS>MOLECULE
M9F
   51    47     1     0     0
SMALL
bcc


@<TRIPOS>ATOM
      1 CAU         0.2330   -0.1020   -0.7700 c3        1 M9F      0.322300
      2 OAV         1.5470    0.3780   -0.8690 os        1 M9F     -0.306600
      3 O           0.2530   -1.2620    9.6100 o         1 M9F     -0.450750
      4 CAT        -0.4000    0.5410    0.4760 c3        1 M9F     -0.094400
      5 C           0.1920   -1.1120    8.4350 c1        1 M9F      0.903000
      6 CA         -0.1340   -0.3160    4.2240 c2        1 M9F      0.428200
      7 CB         -0.5180    0.3980    2.9600 c3        1 M9F     -0.133700
      8 CAS         0.0560   -0.2220    1.7050 c3        1 M9F     -0.078400
      9 N           0.5420   -1.4000    4.2500 n2        1 M9F     -0.773100
     10 NAC        -0.5170    0.2880   -2.0480 n4        1 M9F     -0.812000
     11 CAD         0.3730    0.4760   -3.2440 c3        1 M9F      0.057500
     12 CAG        -0.4920    0.3910   -4.5360 c         1 M9F      0.646100
     13 OAH        -1.6030   -0.1750   -4.4780 o         1 M9F     -0.597100
     14 CAE         1.4780   -0.5650   -3.3380 c3        1 M9F     -0.128300
     15 SAF         2.4900   -0.6290   -1.8960 ss        1 M9F      0.115700
     16 CAN         1.4310    2.6810   -9.8500 c3        1 M9F     -0.053000
     17 SAM         1.3250    2.2810   -8.1440 ss        1 M9F     -0.197700
     18 CAK        -0.1330    1.4600   -8.0300 c2        1 M9F     -0.125400
     19 CAO        -1.7920   -2.8160   -2.3300 c3        1 M9F     -0.138800
     20 CAJ        -0.6250    0.9100   -6.9010 c2        1 M9F     -0.065400
     21 CAP        -0.8480    4.4650   -2.3740 c1        1 M9F      0.903000
     22 OAR        -1.0360    5.6310   -2.4000 o         1 M9F     -0.450750
     23 OAQ        -0.6550    3.2820   -2.3480 o         1 M9F     -0.450750
     24 NAI         0.0390    0.9510   -5.6620 n         1 M9F     -0.433100
     25 HAT1       -1.5180    0.5060    0.3980 hc        1 M9F      0.076700
     26 HAT2       -0.0770    1.6130    0.5450 hc        1 M9F      0.076700
     27 HA         -0.2690   -1.2950    1.6270 hc        1 M9F      0.074700
     28 HB1C       -0.5120    0.2110    5.1300 h4        1 M9F     -0.020200
     29 HB2C       -1.6400    0.4100    2.9030 hc        1 M9F      0.058200
     30 HAS1       -0.1710    1.4630    3.0500 hc        1 M9F      0.058200
     31 HAS2        1.1780   -0.2130    1.7560 hc        1 M9F      0.074700
     32 HN1        -0.4680   -3.1490    0.0420 ha        1 M9F      0.001500
     33 HN2         0.7270   -1.7710    5.1600 hn        1 M9F      0.410400
     34 HAC         0.2000   -1.2390   -0.7140 hx        1 M9F      0.130700
     35 HAD        -1.2140   -0.4460   -2.2660 hn        1 M9F      0.475300
     36 HAE1        0.8240    1.5130   -3.1410 hx        1 M9F      0.140700
     37 HAE2        2.1300   -0.3230   -4.2190 h1        1 M9F      0.120700
     38 HAF         1.0430   -1.5830   -3.5280 h1        1 M9F      0.120700
     39 HAN1        1.4650    1.7730  -10.4920 h1        1 M9F      0.082367
     40 HAN2        0.5880    3.3260  -10.1830 h1        1 M9F      0.082367
     41 HAN3        2.3890    3.2440   -9.9640 h1        1 M9F      0.082367
     42 HAK        -0.6800   -2.8510   -2.2940 hc        1 M9F      0.036450
     43 HAO1       -0.7440    1.3590   -8.9430 h4        1 M9F      0.173000
     44 HAO2       -2.1850   -2.3750   -1.3880 hc        1 M9F      0.036450
     45 HAO3       -2.1820   -3.8530   -2.4320 hc        1 M9F      0.036450
     46 HAJ        -2.1270   -2.2170   -3.2080 hc        1 M9F      0.036450
     47 HAI        -1.6000    0.3830   -6.8750 h4        1 M9F      0.186000
     48 HN3        -0.1760   -3.4150    0.5930 ha        1 M9F      0.001500
     49 HAC2       -1.0190    1.1720   -1.8940 hn        1 M9F      0.475300
     50 HAI2        0.9390    1.3790   -5.6250 hn        1 M9F      0.334500
     51 OXT         0.1290   -0.9580    7.2530 o         1 M9F     -0.450750
@<TRIPOS>BOND
     1    1    2 1   
     2    1    4 1   
     3    1   10 1   
     4    1   34 1   
     5    2   15 1   
     6    3    5 2   
     7    4    8 1   
     8    4   25 1   
     9    4   26 1   
    10    5   51 2   
    11    6    7 1   
    12    6    9 2   
    13    6   28 1   
    14    7    8 1   
    15    7   29 1   
    16    7   30 1   
    17    8   27 1   
    18    8   31 1   
    19    9   33 1   
    20   10   11 1   
    21   10   35 1   
    22   10   49 1   
    23   11   12 1   
    24   11   14 1   
    25   11   36 1   
    26   12   13 2   
    27   12   24 1   
    28   14   15 1   
    29   14   37 1   
    30   14   38 1   
    31   16   17 1   
    32   16   39 1   
    33   16   40 1   
    34   16   41 1   
    35   17   18 1   
    36   18   20 2   
    37   18   43 1   
    38   19   42 1   
    39   19   44 1   
    40   19   45 1   
    41   19   46 1   
    42   20   24 1   
    43   20   47 1   
    44   21   22 2   
    45   21   23 2   
    46   24   50 1   
    47   32   48 1   
@<TRIPOS>SUBSTRUCTURE
     1 M9F         1 TEMP              0 ****  ****    0 ROOT
