@<TRIPOS>MOLECULE
M9F
   51    48     1     0     0
SMALL
bcc


@<TRIPOS>ATOM
      1 CAU        -0.0800    3.6720   -1.4190 c1        1 M9F      0.605600
      2 OAV        -0.0470    3.4240   -2.5810 o         1 M9F     -0.391500
      3 O           2.6520    1.8010    3.1520 o         1 M9F     -0.453000
      4 CAT        -0.0600    3.9580   -0.1340 c2        1 M9F     -0.483300
      5 C           3.5590    1.8640    3.9300 c1        1 M9F      0.908000
      6 CA         -0.1350    2.4560    1.8310 c3        1 M9F      0.109800
      7 CB         -1.6650    4.3990    1.6880 c3        1 M9F     -0.096100
      8 CAS        -0.9550    3.3350    0.8710 c3        1 M9F      0.016500
      9 N           0.4750    1.2870    1.1580 nz        1 M9F     -0.859600
     10 NAC        -2.3750   -5.2540   -3.9890 n8        1 M9F     -0.885800
     11 CAD        -1.3380   -4.4530   -3.3810 c3        1 M9F      0.116500
     12 CAG        -1.5000   -2.9310   -3.6330 c         1 M9F      0.600100
     13 OAH        -2.4060   -2.4870   -4.3630 o         1 M9F     -0.596100
     14 CAE         0.0600   -4.8970   -3.8210 c3        1 M9F      0.003700
     15 SAF         1.3170   -4.4760   -2.6480 sh        1 M9F     -0.404900
     16 CAN         2.1040    1.5080   -4.1450 c3        1 M9F      0.007200
     17 SAM         1.4280   -0.0810   -4.3590 s4        1 M9F     -0.288600
     18 CAK        -0.3230    0.1800   -4.0710 c3        1 M9F      0.138600
     19 CAO        -0.9750   -0.1310   -5.3900 c3        1 M9F     -0.111100
     20 CAJ        -0.8640   -0.6690   -2.9090 c3        1 M9F     -0.013300
     21 CAP        -0.3310   -0.1040   -1.5710 c         1 M9F      0.896600
     22 OAR         0.6200    0.7460   -1.5880 o         1 M9F     -0.848800
     23 OAQ        -0.8530   -0.4920   -0.4930 o         1 M9F     -0.848800
     24 NAI        -0.5700   -2.0770   -3.0430 ns        1 M9F     -0.562900
     25 HAT1       -2.2560    5.0610    1.0100 hc        1 M9F      0.055367
     26 HAT2        0.6000    4.7690    0.2150 ha        1 M9F      0.192000
     27 HA          0.6940    3.0690    2.2880 hx        1 M9F      0.094200
     28 HB1C       -0.8030    2.0790    2.6560 hx        1 M9F      0.094200
     29 HB2C       -2.3620    3.9260    2.4210 hc        1 M9F      0.055367
     30 HAS1       -0.9300    5.0290    2.2440 hc        1 M9F      0.055367
     31 HAS2       -1.7330    2.6940    0.3640 hc        1 M9F      0.074700
     32 HN1         0.8540    1.5540    0.2280 hn        1 M9F      0.472800
     33 HN2         1.2220    0.8980    1.7310 hn        1 M9F      0.472800
     34 HAC         1.1560   -5.4590   -1.7720 hs        1 M9F      0.234800
     35 HAD        -2.3400   -5.1930   -4.9880 hn        1 M9F      0.372800
     36 HAE1       -1.4310   -4.6010   -2.2600 h1        1 M9F      0.088700
     37 HAE2        0.0720   -6.0000   -4.0100 h1        1 M9F      0.096700
     38 HAF         0.3540   -4.3860   -4.7710 h1        1 M9F      0.096700
     39 HAN1        1.8190    2.1440   -5.0190 h1        1 M9F      0.127700
     40 HAN2        1.7420    2.0210   -3.2150 h1        1 M9F      0.127700
     41 HAN3        3.2170    1.4440   -4.0990 h1        1 M9F      0.127700
     42 HAK         1.7910   -0.6140   -3.2040 hs        1 M9F      0.400000
     43 HAO1       -0.4930    1.2560   -3.7840 h1        1 M9F      0.131700
     44 HAO2       -0.7410    0.6550   -6.1480 hc        1 M9F      0.076033
     45 HAO3       -0.6570   -1.1300   -5.7800 hc        1 M9F      0.076033
     46 HAJ        -2.0880   -0.1800   -5.2550 hc        1 M9F      0.076033
     47 HAI        -1.9900   -0.5150   -2.9080 h1        1 M9F      0.116700
     48 HN3        -0.2370    0.5500    0.9710 hn        1 M9F      0.472800
     49 HAC2       -3.2780   -4.9560   -3.6730 hn        1 M9F      0.372800
     50 HAI2       -0.0180   -2.4760   -2.3040 hn        1 M9F      0.334500
     51 OXT         4.4560    1.9310    4.6970 o         1 M9F     -0.453000
@<TRIPOS>BOND
     1    1    2 2   
     2    1    4 2   
     3    3    5 2   
     4    4    8 1   
     5    4   26 1   
     6    5   51 2   
     7    6    8 1   
     8    6    9 1   
     9    6   27 1   
    10    6   28 1   
    11    7    8 1   
    12    7   25 1   
    13    7   29 1   
    14    7   30 1   
    15    8   31 1   
    16    9   32 1   
    17    9   33 1   
    18    9   48 1   
    19   10   11 1   
    20   10   35 1   
    21   10   49 1   
    22   11   12 1   
    23   11   14 1   
    24   11   36 1   
    25   12   13 2   
    26   12   24 1   
    27   14   15 1   
    28   14   37 1   
    29   14   38 1   
    30   15   34 1   
    31   16   17 1   
    32   16   39 1   
    33   16   40 1   
    34   16   41 1   
    35   17   18 1   
    36   17   42 1   
    37   18   19 1   
    38   18   20 1   
    39   18   43 1   
    40   19   44 1   
    41   19   45 1   
    42   19   46 1   
    43   20   21 1   
    44   20   24 1   
    45   20   47 1   
    46   21   22 1   
    47   21   23 1   
    48   24   50 1   
@<TRIPOS>SUBSTRUCTURE
     1 M9F         1 TEMP              0 ****  ****    0 ROOT
