@<TRIPOS>MOLECULE
M9M
   60    63     1     0     0
SMALL
bcc


@<TRIPOS>ATOM
      1 CAL        -0.1340    0.1750   -0.1130 c3        1 M9M     -0.107900
      2 CAN         1.3920    0.0840   -0.1350 c3        1 M9M      0.162300
      3 NBB         2.0320   -0.1050    1.1590 n3        1 M9M     -0.720600
      4 CAB         1.9930   -1.4740    1.6250 c3        1 M9M      0.151100
      5 CAO         1.5390    0.8530    2.1390 c3        1 M9M      0.162300
      6 CAM         0.0180    0.9700    2.2450 c3        1 M9M     -0.107900
      7 CBA        -0.6020    1.2300    0.8800 c3        1 M9M     -0.061700
      8 CAK        -2.1200    1.2460    0.9480 c3        1 M9M     -0.076400
      9 CAI        -2.6520    2.4990    1.6110 c3        1 M9M     -0.079400
     10 CAH        -4.1670    2.5060    1.6240 c3        1 M9M     -0.077400
     11 CAJ        -4.6990    3.7580    2.2950 c3        1 M9M     -0.035100
     12 CAW        -6.1870    3.7980    2.2840 ca        1 M9M     -0.074300
     13 CAG        -6.9090    3.5750    3.4590 ca        1 M9M     -0.117000
     14 CAD        -6.8790    4.0670    1.0990 ca        1 M9M     -0.122000
     15 CAE        -8.2690    4.1190    1.0650 ca        1 M9M     -0.130000
     16 CAZ        -9.0200    3.8950    2.2350 ca        1 M9M      0.015600
     17 CAY        -8.3040    3.6170    3.4290 ca        1 M9M      0.067100
     18 OAS        -8.9540    3.3000    4.6150 os        1 M9M     -0.313900
     19 CAP       -10.2350    3.9020    4.7560 c3        1 M9M      0.063400
     20 CAU       -11.0850    3.8530    3.4980 c         1 M9M      0.675500
     21 OAC       -12.3250    3.7810    3.5690 o         1 M9M     -0.620500
     22 NBC       -10.4320    3.9600    2.2670 n         1 M9M     -0.365000
     23 CAQ       -11.2030    3.9740    1.0450 c3        1 M9M      0.063700
     24 CAX       -11.3010    2.6480    0.3600 cc        1 M9M      0.283600
     25 CAF       -12.1670    1.5520    0.7920 cc        1 M9M     -0.343600
     26 CAV       -11.9530    0.5590   -0.1420 cd        1 M9M      0.263000
     27 CAA       -12.4490   -0.7960   -0.3640 c3        1 M9M     -0.139400
     28 OAT       -11.0050    1.0520   -1.0800 os        1 M9M     -0.120100
     29 NAR       -10.6420    2.2730   -0.7550 nd        1 M9M     -0.351300
     30 HAL1       -0.5730   -0.8190    0.1630 hc        1 M9M      0.044700
     31 HAL2       -0.4960    0.4330   -1.1410 hc        1 M9M      0.044700
     32 HAN1        1.8030    1.0450   -0.5580 h1        1 M9M      0.049950
     33 HAN2        1.7000   -0.7540   -0.8190 h1        1 M9M      0.049950
     34 HBA        -0.2460    2.2360    0.5170 hc        1 M9M      0.049700
     35 HAB1        2.4720   -2.1320    0.8530 h1        1 M9M      0.030367
     36 HAB2        2.5840   -1.5500    2.5750 h1        1 M9M      0.030367
     37 HAB3        0.9530   -1.8550    1.8210 h1        1 M9M      0.030367
     38 HAO1        1.9580    1.8570    1.8430 h1        1 M9M      0.049950
     39 HAO2        1.9580    0.5880    3.1480 h1        1 M9M      0.049950
     40 HAM1       -0.2320    1.8090    2.9430 hc        1 M9M      0.044700
     41 HAM2       -0.4070    0.0280    2.6780 hc        1 M9M      0.044700
     42 HAK1       -2.5340    1.1780   -0.0930 hc        1 M9M      0.042200
     43 HAK2       -2.4810    0.3430    1.5070 hc        1 M9M      0.042200
     44 HAI1       -2.2770    3.4040    1.0640 hc        1 M9M      0.040200
     45 HAI2       -2.2680    2.5650    2.6630 hc        1 M9M      0.040200
     46 HAH1       -4.5440    1.5990    2.1660 hc        1 M9M      0.046200
     47 HAH2       -4.5560    2.4500    0.5730 hc        1 M9M      0.046200
     48 HAJ1       -4.3200    3.8040    3.3500 hc        1 M9M      0.049700
     49 HAJ2       -4.3020    4.6640    1.7600 hc        1 M9M      0.049700
     50 HAG        -6.3990    3.3540    4.4080 ha        1 M9M      0.153000
     51 HAD        -6.3140    4.2390    0.1690 ha        1 M9M      0.140000
     52 HAE        -8.7670    4.3160    0.1030 ha        1 M9M      0.151000
     53 HAP1      -10.7300    3.3090    5.5720 h1        1 M9M      0.089700
     54 HAP2      -10.1170    4.9750    5.0650 h1        1 M9M      0.089700
     55 HAQ1      -10.7620    4.7450    0.3480 h1        1 M9M      0.086700
     56 HAQ2      -12.2570    4.2960    1.3030 h1        1 M9M      0.086700
     57 HAF       -12.8160    1.5640    1.6630 ha        1 M9M      0.188000
     58 HAA1      -11.6180   -1.5370   -0.2420 hc        1 M9M      0.066367
     59 HAA2      -12.8580   -0.8970   -1.4010 hc        1 M9M      0.066367
     60 HAA3      -13.2570   -1.0310    0.3720 hc        1 M9M      0.066367
@<TRIPOS>BOND
     1    1    2 1   
     2    1    7 1   
     3    1   30 1   
     4    1   31 1   
     5    2    3 1   
     6    2   32 1   
     7    2   33 1   
     8    3    4 1   
     9    3    5 1   
    10    4   35 1   
    11    4   36 1   
    12    4   37 1   
    13    5    6 1   
    14    5   38 1   
    15    5   39 1   
    16    6    7 1   
    17    6   40 1   
    18    6   41 1   
    19    7    8 1   
    20    7   34 1   
    21    8    9 1   
    22    8   42 1   
    23    8   43 1   
    24    9   10 1   
    25    9   44 1   
    26    9   45 1   
    27   10   11 1   
    28   10   46 1   
    29   10   47 1   
    30   11   12 1   
    31   11   48 1   
    32   11   49 1   
    33   12   13 ar  
    34   12   14 ar  
    35   13   17 ar  
    36   13   50 1   
    37   14   15 ar  
    38   14   51 1   
    39   15   16 ar  
    40   15   52 1   
    41   16   17 ar  
    42   16   22 1   
    43   17   18 1   
    44   18   19 1   
    45   19   20 1   
    46   19   53 1   
    47   19   54 1   
    48   20   21 2   
    49   20   22 1   
    50   22   23 1   
    51   23   24 1   
    52   23   55 1   
    53   23   56 1   
    54   24   25 1   
    55   24   29 2   
    56   25   26 2   
    57   25   57 1   
    58   26   27 1   
    59   26   28 1   
    60   27   58 1   
    61   27   59 1   
    62   27   60 1   
    63   28   29 1   
@<TRIPOS>SUBSTRUCTURE
     1 M9M         1 TEMP              0 ****  ****    0 ROOT
