@<TRIPOS>MOLECULE
MA
   16    15     1     0     0
SMALL
bcc


@<TRIPOS>ATOM
      1 N           2.1400    0.8760   -0.3770 n3        1 MA      -0.893800
      2 CA          1.1420   -0.1670   -0.3950 c3        1 MA       0.136500
      3 C          -0.2560    0.3190   -0.0130 c         1 MA       0.579100
      4 O          -0.5770    1.4070    0.4720 o         1 MA      -0.551000
      5 CB          1.4940   -1.3490    0.5080 c3        1 MA      -0.093100
      6 OXT        -1.2370   -0.5910   -0.2800 os        1 MA      -0.434900
      7 CH3        -2.5750   -0.2080    0.0430 c3        1 MA       0.124700
      8 HN          1.8360    1.6660   -0.9120 hn        1 MA       0.363300
      9 HNA         2.3380    1.1710    0.5590 hn        1 MA       0.363300
     10 HA          1.0670   -0.5400   -1.4620 h1        1 MA       0.090700
     11 HB          1.5610   -1.0340    1.5770 hc        1 MA       0.053367
     12 HBA         0.7000   -2.1280    0.4100 hc        1 MA       0.053367
     13 HBB         2.4740   -1.7850    0.2010 hc        1 MA       0.053367
     14 HH3        -2.6600   -0.0050    1.1370 h1        1 MA       0.051700
     15 HH3A       -2.8610    0.7010   -0.5380 h1        1 MA       0.051700
     16 HH3B       -3.1840   -1.0960   -0.2590 h1        1 MA       0.051700
@<TRIPOS>BOND
     1    1    2 1   
     2    1    8 1   
     3    1    9 1   
     4    2    3 1   
     5    2    5 1   
     6    2   10 1   
     7    3    4 2   
     8    3    6 1   
     9    5   11 1   
    10    5   12 1   
    11    5   13 1   
    12    6    7 1   
    13    7   14 1   
    14    7   15 1   
    15    7   16 1   
@<TRIPOS>SUBSTRUCTURE
     1 MA          1 TEMP              0 ****  ****    0 ROOT
