@<TRIPOS>MOLECULE
MA0
   31    32     1     0     0
SMALL
bcc


@<TRIPOS>ATOM
      1 C13         4.9200    1.3480    0.3720 c2        1 MA0     -0.029000
      2 C12         3.9090    0.7870   -0.3100 ce        1 MA0     -0.347600
      3 C11         2.7660    0.2210    0.3780 ce        1 MA0      0.402500
      4 N10         1.7260   -0.3400   -0.2020 nh        1 MA0     -0.089100
      5 C9          0.6100   -0.8840    0.6060 c3        1 MA0      0.053300
      6 C1          0.3310   -2.3910    0.3220 c3        1 MA0     -0.090400
      7 C2         -1.1050   -2.4960   -0.2040 c3        1 MA0     -0.039100
      8 C3         -1.6630   -1.1170   -0.1290 ca        1 MA0     -0.102300
      9 C8         -0.6970   -0.1900    0.3170 ca        1 MA0     -0.129300
     10 C7         -0.9990    1.1490    0.4900 ca        1 MA0     -0.129000
     11 C4         -2.9570   -0.6970   -0.4100 ca        1 MA0     -0.066000
     12 C5         -3.2850    0.6510   -0.2510 ca        1 MA0     -0.178000
     13 C6         -2.3160    1.5630    0.1950 ca        1 MA0      0.138100
     14 O6         -2.5690    2.8990    0.3700 oh        1 MA0     -0.486100
     15 C10         1.6050   -0.4440   -1.6460 c3        1 MA0     -0.047400
     16 H131        4.9500    1.4140    1.4710 ha        1 MA0      0.154500
     17 H132        5.7910    1.7810   -0.1490 ha        1 MA0      0.154500
     18 H12         3.9270    0.7460   -1.4140 ha        1 MA0      0.170000
     19 H11         2.7750    0.2650    1.4950 h4        1 MA0      0.057800
     20 H9          0.8800   -0.7500    1.6960 h1        1 MA0      0.095700
     21 H1C1        1.0520   -2.8280   -0.4100 hc        1 MA0      0.074200
     22 H1C2        0.4370   -2.9530    1.2840 hc        1 MA0      0.074200
     23 H2C1       -1.1200   -2.8760   -1.2580 hc        1 MA0      0.078200
     24 H2C2       -1.7040   -3.2070    0.4220 hc        1 MA0      0.078200
     25 H7         -0.2690    1.8850    0.8510 ha        1 MA0      0.152000
     26 H4         -3.7190   -1.4150   -0.7510 ha        1 MA0      0.159000
     27 H5         -4.3070    0.9980   -0.4700 ha        1 MA0      0.157000
     28 H6         -3.5060    3.0630    0.1770 ho        1 MA0      0.438000
     29 H101        2.4170   -1.1080   -2.0470 h1        1 MA0      0.098033
     30 H102        0.6010   -0.8830   -1.9030 h1        1 MA0      0.098033
     31 H103        1.6880    0.5750   -2.1120 h1        1 MA0      0.098033
@<TRIPOS>BOND
     1    1    2 2   
     2    1   16 1   
     3    1   17 1   
     4    2    3 1   
     5    2   18 1   
     6    3    4 2   
     7    3   19 1   
     8    4    5 1   
     9    4   15 1   
    10    5    6 1   
    11    5    9 1   
    12    5   20 1   
    13    6    7 1   
    14    6   21 1   
    15    6   22 1   
    16    7    8 1   
    17    7   23 1   
    18    7   24 1   
    19    8    9 ar  
    20    8   11 ar  
    21    9   10 ar  
    22   10   13 ar  
    23   10   25 1   
    24   11   12 ar  
    25   11   26 1   
    26   12   13 ar  
    27   12   27 1   
    28   13   14 1   
    29   14   28 1   
    30   15   29 1   
    31   15   30 1   
    32   15   31 1   
@<TRIPOS>SUBSTRUCTURE
     1 MA0         1 TEMP              0 ****  ****    0 ROOT
