@<TRIPOS>MOLECULE
MA0
   31    32     1     0     0
SMALL
bcc


@<TRIPOS>ATOM
      1 C13         0.0340   -0.1400   -0.2960 c2        1 MA0     -0.029000
      2 C12         1.3680    0.0010   -0.2450 ce        1 MA0     -0.347600
      3 C11         2.0830   -0.0920    1.0120 ce        1 MA0      0.402500
      4 N10         3.3850    0.0230    1.1600 nh        1 MA0     -0.089100
      5 C9          4.0090   -0.0940    2.4990 c3        1 MA0      0.053300
      6 C1          4.8520    1.1570    2.8890 c3        1 MA0     -0.090400
      7 C2          6.2960    0.6860    3.0980 c3        1 MA0     -0.039100
      8 C3          6.2630   -0.7940    2.9340 ca        1 MA0     -0.102300
      9 C8          4.9750   -1.2490    2.5820 ca        1 MA0     -0.129300
     10 C7          4.7010   -2.5930    2.4040 ca        1 MA0     -0.129000
     11 C4          7.3000   -1.7010    3.1110 ca        1 MA0     -0.066000
     12 C5          7.0520   -3.0630    2.9290 ca        1 MA0     -0.178000
     13 C6          5.7660   -3.5030    2.5810 ca        1 MA0      0.138100
     14 O6          5.4530   -4.8240    2.3850 oh        1 MA0     -0.486100
     15 C10         4.2780    0.2520    0.0360 c3        1 MA0     -0.047400
     16 H131       -0.5920   -0.3310    0.5910 ha        1 MA0      0.154500
     17 H132       -0.5130   -0.0710   -1.2520 ha        1 MA0      0.154500
     18 H12         1.9510    0.1910   -1.1650 ha        1 MA0      0.170000
     19 H11         1.4710   -0.2740    1.9290 h4        1 MA0      0.057800
     20 H9          3.1780   -0.2360    3.2510 h1        1 MA0      0.095700
     21 H1C1        4.8080    1.9610    2.1140 hc        1 MA0      0.074200
     22 H1C2        4.4360    1.5760    3.8400 hc        1 MA0      0.074200
     23 H2C1        6.6600    0.9710    4.1190 hc        1 MA0      0.078200
     24 H2C2        6.9840    1.1560    2.3490 hc        1 MA0      0.078200
     25 H7          3.7040   -2.9720    2.1450 ha        1 MA0      0.152000
     26 H4          8.3070   -1.3550    3.3930 ha        1 MA0      0.159000
     27 H5          7.8650   -3.7930    3.0660 ha        1 MA0      0.157000
     28 H6          6.2420   -5.3580    2.5680 ho        1 MA0      0.438000
     29 H101        5.3430    0.2320    0.3990 h1        1 MA0      0.098033
     30 H102        4.1390   -0.5550   -0.7340 h1        1 MA0      0.098033
     31 H103        4.0580    1.2530   -0.4240 h1        1 MA0      0.098033
@<TRIPOS>BOND
     1    1    2 2   
     2    1   16 1   
     3    1   17 1   
     4    2    3 1   
     5    2   18 1   
     6    3    4 2   
     7    3   19 1   
     8    4    5 1   
     9    4   15 1   
    10    5    6 1   
    11    5    9 1   
    12    5   20 1   
    13    6    7 1   
    14    6   21 1   
    15    6   22 1   
    16    7    8 1   
    17    7   23 1   
    18    7   24 1   
    19    8    9 ar  
    20    8   11 ar  
    21    9   10 ar  
    22   10   13 ar  
    23   10   25 1   
    24   11   12 ar  
    25   11   26 1   
    26   12   13 ar  
    27   12   27 1   
    28   13   14 1   
    29   14   28 1   
    30   15   29 1   
    31   15   30 1   
    32   15   31 1   
@<TRIPOS>SUBSTRUCTURE
     1 MA0         1 TEMP              0 ****  ****    0 ROOT
