@<TRIPOS>MOLECULE
MA0
   31    27     1     0     0
SMALL
bcc


@<TRIPOS>ATOM
      1 C13        -3.6630   -1.9850   -0.8680 c1        1 MA0     -0.145000
      2 C12        -2.3050   -2.1290   -1.0280 c1        1 MA0     -0.145000
      3 C11        -1.3990   -2.3020    0.2000 c1        1 MA0      0.133000
      4 N10        -0.3250   -1.5210    0.3540 n2        1 MA0     -0.072000
      5 C9         -0.0360   -0.5790   -0.5740 c2        1 MA0      0.018000
      6 C1          1.1590   -0.9960   -1.3380 c3        1 MA0     -0.167000
      7 C2          2.0420    0.1810   -1.4730 c3        1 MA0     -0.123000
      8 C3          1.4910    1.2670   -0.5940 c2        1 MA0     -0.094000
      9 C8          0.4310    0.7270    0.1420 c2        1 MA0     -0.118000
     10 C7         -0.2100    1.5010    1.1210 c1        1 MA0     -0.138000
     11 C4          1.9110    2.5820   -0.3530 c1        1 MA0     -0.066000
     12 C5          1.2740    3.3500    0.6190 c1        1 MA0     -0.179000
     13 C6          0.2080    2.8060    1.3590 c1        1 MA0      0.093000
     14 O6         -0.3750    3.5460    2.3890 oh        1 MA0     -0.240000
     15 C10         0.5310   -1.6850    1.5090 c3        1 MA0     -0.143000
     16 H131       -4.0550   -1.9930    0.0330 DU        1 MA0      0.142000
     17 H132       -4.2430   -1.8740   -1.6580 ha        1 MA0      0.168500
     18 H12        -1.9170   -2.1210   -1.9220 ha        1 MA0      0.168500
     19 H11        -1.6070   -2.9780    0.8660 ha        1 MA0      0.184000
     20 H9         -0.8730   -0.5370   -1.0570 ha        1 MA0      0.139000
     21 H1C1        1.6300   -1.6960   -0.8410 hc        1 MA0      0.109500
     22 H1C2        0.8820   -1.2980   -2.2330 hc        1 MA0      0.109500
     23 H2C1        2.0340    0.4820   -2.3940 hc        1 MA0      0.118000
     24 H2C2        2.9350   -0.0530   -1.1710 hc        1 MA0      0.118000
     25 H7         -0.9460    1.1250    1.6310 ha        1 MA0      0.155000
     26 H4          2.6480    2.9590   -0.8640 ha        1 MA0      0.159000
     27 H5          1.5680    4.2690    0.7880 ha        1 MA0      0.157000
     28 H6         -0.9610    4.1180    2.0460 ho        1 MA0      0.237000
     29 H101        0.8130   -2.6220    1.5760 h1        1 MA0      0.139000
     30 H102        1.3220   -1.1120    1.4140 h1        1 MA0      0.139000
     31 H103        0.0380   -1.4320    2.3210 h1        1 MA0      0.139000
@<TRIPOS>BOND
     1    1    2 1   
     2    1   17 1   
     3    2   18 1   
     4    3    4 1   
     5    3   19 1   
     6    4   15 1   
     7    5    6 1   
     8    5    9 1   
     9    5   20 1   
    10    6    7 1   
    11    6   21 1   
    12    6   22 1   
    13    7    8 1   
    14    7   23 1   
    15    7   24 1   
    16    8    9 1   
    17    8   11 1   
    18    9   10 1   
    19   10   25 1   
    20   11   26 1   
    21   12   13 1   
    22   12   27 1   
    23   13   14 1   
    24   14   28 1   
    25   15   29 1   
    26   15   30 1   
    27   15   31 1   
@<TRIPOS>SUBSTRUCTURE
     1 MA0         1 TEMP              0 ****  ****    0 ROOT
