@<TRIPOS>MOLECULE
MA1
   24    24     1     0     0
SMALL
bcc


@<TRIPOS>ATOM
      1 C1          1.3680   -0.6370   -1.0150 c3        1 MA1      0.225200
      2 C2         -0.0010   -0.8420   -1.6680 c3        1 MA1      0.089100
      3 C3         -1.0630    0.0150   -0.9520 c3        1 MA1      0.109100
      4 C4         -1.0460   -0.3030    0.5410 c3        1 MA1     -0.000600
      5 C5          0.3650   -0.1130    1.0930 c3        1 MA1      0.137100
      6 C6          0.4680   -0.5890    2.5460 c3        1 MA1      0.131400
      7 S1          1.9750    1.0230   -1.4030 sh        1 MA1     -0.453900
      8 O2         -0.0180   -0.5970   -3.0560 oh        1 MA1     -0.588800
      9 O3         -2.3580   -0.2930   -1.4440 oh        1 MA1     -0.606800
     10 S4         -2.1330    0.7570    1.4710 sh        1 MA1     -0.371900
     11 O5          1.3040   -0.9210    0.3650 os        1 MA1     -0.390600
     12 O6          1.5640    0.1000    3.1230 oh        1 MA1     -0.594800
     13 H1          2.1060   -1.3870   -1.4120 h2        1 MA1      0.106700
     14 H2         -0.2840   -1.9320   -1.5760 h1        1 MA1      0.103700
     15 H3         -0.8520    1.1100   -1.1250 h1        1 MA1      0.072700
     16 H4         -1.3710   -1.3660    0.6840 h1        1 MA1      0.090700
     17 H5          0.6810    0.9670    1.0070 h1        1 MA1      0.102700
     18 H61         0.6360   -1.6970    2.5800 h1        1 MA1      0.050200
     19 H62        -0.4820   -0.3250    3.0890 h1        1 MA1      0.050200
     20 HS1         3.2010    0.9100   -0.9090 hs        1 MA1      0.247800
     21 HO2         0.3970    0.2640   -3.2140 ho        1 MA1      0.422000
     22 HO3        -2.2830   -0.3570   -2.4070 ho        1 MA1      0.428000
     23 HS4        -3.2070    0.6670    0.6950 hs        1 MA1      0.234800
     24 HO6         1.6870   -0.2730    4.0040 ho        1 MA1      0.405000
@<TRIPOS>BOND
     1    1    2 1   
     2    1    7 1   
     3    1   11 1   
     4    1   13 1   
     5    2    3 1   
     6    2    8 1   
     7    2   14 1   
     8    3    4 1   
     9    3    9 1   
    10    3   15 1   
    11    4    5 1   
    12    4   10 1   
    13    4   16 1   
    14    5    6 1   
    15    5   11 1   
    16    5   17 1   
    17    6   12 1   
    18    6   18 1   
    19    6   19 1   
    20    7   20 1   
    21    8   21 1   
    22    9   22 1   
    23   10   23 1   
    24   12   24 1   
@<TRIPOS>SUBSTRUCTURE
     1 MA1         1 TEMP              0 ****  ****    0 ROOT
