@<TRIPOS>MOLECULE
MA2
   27    27     1     0     0
SMALL
bcc


@<TRIPOS>ATOM
      1 C1         -1.0070    0.7070   -1.5980 c3        1 MA2      0.303900
      2 C2          0.5080    0.7070   -1.5980 c3        1 MA2      0.061100
      3 C3          1.0710    0.7070   -0.2270 c3        1 MA2      0.116100
      4 C4          0.4940   -0.3800    0.6220 c3        1 MA2     -0.032600
      5 C5         -1.0270   -0.3770    0.6100 c3        1 MA2      0.122100
      6 C6         -1.5130    0.8380    1.3330 c3        1 MA2      0.105400
      7 C7          1.9360   -2.8260    1.3000 c3        1 MA2     -0.048000
      8 O1         -1.4530    0.5370   -2.8910 oh        1 MA2     -0.572800
      9 O2          0.9740   -0.4660   -2.2930 oh        1 MA2     -0.589800
     10 O3          0.7900    1.9870    0.3950 oh        1 MA2     -0.597800
     11 S4          1.0770   -1.9710    0.0060 ss        1 MA2     -0.277200
     12 O5         -1.5770   -0.3720   -0.7450 os        1 MA2     -0.448600
     13 O6         -2.8580    0.6500    1.7160 oh        1 MA2     -0.594800
     14 H1         -1.3220    1.5700   -1.2670 h2        1 MA2      0.090700
     15 H2          0.8240    1.5010   -2.0700 h1        1 MA2      0.090700
     16 H3          2.0380    0.5870   -0.2820 h1        1 MA2      0.056700
     17 H4          0.8040   -0.2630    1.5400 h1        1 MA2      0.101700
     18 H5         -1.3480   -1.1710    1.0770 h1        1 MA2      0.108700
     19 H61        -0.9660    0.9840    2.1280 h1        1 MA2      0.059200
     20 H62        -1.4480    1.6140    0.7450 h1        1 MA2      0.059200
     21 H71         2.7160   -2.3060    1.5730 h1        1 MA2      0.069033
     22 H72         2.2260   -3.7000    0.9760 h1        1 MA2      0.069033
     23 H73         1.3400   -2.9440    2.0640 h1        1 MA2      0.069033
     24 HO1        -2.2400    0.9340   -2.9880 ho        1 MA2      0.428000
     25 HO2         1.4830   -0.2220   -2.9780 ho        1 MA2      0.426000
     26 HO3         1.5480    2.4370    0.5030 ho        1 MA2      0.411000
     27 HO6        -3.0690    1.2350    2.3500 ho        1 MA2      0.416000
@<TRIPOS>BOND
     1    1    2 1   
     2    1    8 1   
     3    1   12 1   
     4    1   14 1   
     5    2    3 1   
     6    2    9 1   
     7    2   15 1   
     8    3    4 1   
     9    3   10 1   
    10    3   16 1   
    11    4    5 1   
    12    4   11 1   
    13    4   17 1   
    14    5    6 1   
    15    5   12 1   
    16    5   18 1   
    17    6   13 1   
    18    6   19 1   
    19    6   20 1   
    20    7   11 1   
    21    7   21 1   
    22    7   22 1   
    23    7   23 1   
    24    8   24 1   
    25    9   25 1   
    26   10   26 1   
    27   13   27 1   
@<TRIPOS>SUBSTRUCTURE
     1 MA2         1 TEMP              0 ****  ****    0 ROOT
