@<TRIPOS>MOLECULE
MA2
   27    27     1     0     0
SMALL
bcc


@<TRIPOS>ATOM
      1 C1         -1.7720    0.3390   -1.2790 c3        1 MA2      0.305900
      2 C2         -0.3760    0.4940   -1.9000 c3        1 MA2      0.091100
      3 C3          0.7040   -0.1210   -0.9880 c3        1 MA2      0.121100
      4 C4          0.5640    0.4180    0.4310 c3        1 MA2     -0.024600
      5 C5         -0.8550    0.1320    0.9270 c3        1 MA2      0.145100
      6 C6         -1.1110    0.7430    2.3090 c3        1 MA2      0.131400
      7 O1         -2.1140   -1.0280   -1.3170 oh        1 MA2     -0.642800
      8 O2         -0.3100   -0.0890   -3.1840 oh        1 MA2     -0.593800
      9 O3          1.9940    0.2080   -1.4790 oh        1 MA2     -0.592800
     10 S4          1.7520   -0.1920    1.6100 ss        1 MA2     -0.273200
     11 O5         -1.8300    0.7430    0.0690 os        1 MA2     -0.438600
     12 O6         -2.1270   -0.0400    2.9150 oh        1 MA2     -0.598800
     13 H1         -2.5360    0.9750   -1.8100 h2        1 MA2      0.085700
     14 H2         -0.1600    1.5870   -2.0650 h1        1 MA2      0.100700
     15 H3          0.5840   -1.2430   -0.9880 h1        1 MA2      0.054700
     16 H4          0.7370    1.5280    0.4160 h1        1 MA2      0.103700
     17 H5         -1.0430   -0.9780    0.9510 h1        1 MA2      0.078700
     18 H61        -0.1710    0.6910    2.9240 h1        1 MA2      0.049200
     19 H62        -1.4480    1.8090    2.2050 h1        1 MA2      0.049200
     20 H71         3.2050   -1.9880    1.6540 h1        1 MA2      0.069367
     21 H72         1.6460   -2.4760    0.8640 h1        1 MA2      0.069367
     22 H73         2.8620   -1.5060   -0.0650 h1        1 MA2      0.069367
     23 HO1        -2.9410   -1.1350   -0.8280 ho        1 MA2      0.434000
     24 HO2        -0.6560   -0.9900   -3.1140 ho        1 MA2      0.424000
     25 HO3         1.9600    0.0960   -2.4400 ho        1 MA2      0.421000
     26 HO6        -2.3450    0.3930    3.7490 ho        1 MA2      0.404000
     27 C7          2.4090   -1.6700    0.9400 c3        1 MA2     -0.044000
@<TRIPOS>BOND
     1    1    2 1   
     2    1    7 1   
     3    1   11 1   
     4    1   13 1   
     5    2    3 1   
     6    2    8 1   
     7    2   14 1   
     8    3    4 1   
     9    3    9 1   
    10    3   15 1   
    11    4    5 1   
    12    4   10 1   
    13    4   16 1   
    14    5    6 1   
    15    5   11 1   
    16    5   17 1   
    17    6   12 1   
    18    6   18 1   
    19    6   19 1   
    20    7   23 1   
    21    8   24 1   
    22    9   25 1   
    23   10   27 1   
    24   12   26 1   
    25   20   27 1   
    26   21   27 1   
    27   22   27 1   
@<TRIPOS>SUBSTRUCTURE
     1 MA2         1 TEMP              0 ****  ****    0 ROOT
