@<TRIPOS>MOLECULE
MA3
   27    27     1     0     0
SMALL
bcc


@<TRIPOS>ATOM
      1 C1          1.4910    0.5550    0.6100 c3        1 MA3      0.303900
      2 C2          0.3680    0.7170    1.6490 c3        1 MA3      0.093100
      3 C3         -0.8930   -0.0540    1.2170 c3        1 MA3      0.112100
      4 C4         -1.2700    0.3160   -0.2130 c3        1 MA3      0.003400
      5 C5         -0.0820    0.0580   -1.1330 c3        1 MA3      0.112100
      6 C6         -0.3550    0.5360   -2.5650 c3        1 MA3      0.136400
      7 O1          1.9220   -0.7930    0.6640 os        1 MA3     -0.460600
      8 O2          0.7830    0.2930    2.9290 oh        1 MA3     -0.592800
      9 O3         -1.9870    0.2890    2.0560 oh        1 MA3     -0.607800
     10 S4         -2.6320   -0.6520   -0.8290 sh        1 MA3     -0.374900
     11 O5          1.0660    0.8080   -0.7090 os        1 MA3     -0.446600
     12 O6          0.7180    0.2050   -3.4190 oh        1 MA3     -0.592800
     13 H1          2.3370    1.2770    0.7890 h2        1 MA3      0.089700
     14 H2          0.1290    1.8110    1.7670 h1        1 MA3      0.100700
     15 H3         -0.6960   -1.1620    1.2950 h1        1 MA3      0.068700
     16 H4         -1.5510    1.4000   -0.2450 h1        1 MA3      0.092700
     17 H5          0.1870   -1.0360   -1.1280 h1        1 MA3      0.084700
     18 H61        -1.2480   -0.0080   -2.9790 h1        1 MA3      0.066200
     19 H62        -0.5350    1.6430   -2.5720 h1        1 MA3      0.066200
     20 H71         3.2730   -2.1490    0.0430 h1        1 MA3      0.043367
     21 H72         2.9820   -0.7660   -1.1370 h1        1 MA3      0.043367
     22 H73         3.9680   -0.4790    0.3840 h1        1 MA3      0.043367
     23 HO2         1.1370   -0.6030    2.8390 ho        1 MA3      0.423000
     24 HO3        -1.6580    0.2580    2.9650 ho        1 MA3      0.426000
     25 HS4        -3.4560   -0.5150    0.2030 hs        1 MA3      0.234800
     26 HO6         1.5050    0.6370   -3.0650 ho        1 MA3      0.409000
     27 C7          3.1160   -1.0470   -0.0630 c3        1 MA3      0.121700
@<TRIPOS>BOND
     1    1    2 1   
     2    1    7 1   
     3    1   11 1   
     4    1   13 1   
     5    2    3 1   
     6    2    8 1   
     7    2   14 1   
     8    3    4 1   
     9    3    9 1   
    10    3   15 1   
    11    4    5 1   
    12    4   10 1   
    13    4   16 1   
    14    5    6 1   
    15    5   11 1   
    16    5   17 1   
    17    6   12 1   
    18    6   18 1   
    19    6   19 1   
    20    7   27 1   
    21    8   23 1   
    22    9   24 1   
    23   10   25 1   
    24   12   26 1   
    25   20   27 1   
    26   21   27 1   
    27   22   27 1   
@<TRIPOS>SUBSTRUCTURE
     1 MA3         1 TEMP              0 ****  ****    0 ROOT
