@<TRIPOS>MOLECULE
MA4
   79    81     1     0     0
SMALL
bcc


@<TRIPOS>ATOM
      1 C1          0.0800    0.1680   -0.0830 c3        1 MA4      0.336900
      2 C2          1.6170    0.0840   -0.0040 c3        1 MA4      0.098100
      3 C3          2.0680    0.2120    1.4570 c3        1 MA4      0.066100
      4 C4          1.5290    1.5360    2.0250 c3        1 MA4      0.126100
      5 C5         -0.0010    1.5470    1.8950 c3        1 MA4      0.102100
      6 C6         -0.5750    2.9100    2.2930 c3        1 MA4      0.140400
      7 O2          2.0190   -1.1550   -0.5550 oh        1 MA4     -0.576800
      8 O3          3.4840    0.2730    1.5380 oh        1 MA4     -0.607800
      9 O5         -0.4050    1.3420    0.5380 os        1 MA4     -0.449600
     10 O6         -1.9850    2.8970    2.2690 oh        1 MA4     -0.595800
     11 O1         -0.4610   -0.9280    0.6290 os        1 MA4     -0.431600
     12 O4          1.8340    1.6530    3.4020 oh        1 MA4     -0.592800
     13 C10        -3.7890   -3.3260    0.1750 c3        1 MA4      0.307900
     14 C20        -3.4430   -2.5000   -1.0760 c3        1 MA4      0.086100
     15 C30        -2.0170   -1.9350   -0.9610 c3        1 MA4      0.121100
     16 C40        -1.8420   -1.1920    0.3760 c3        1 MA4      0.126100
     17 C50        -2.2880   -2.0990    1.5400 c3        1 MA4      0.107100
     18 C60        -2.2880   -1.3460    2.8740 c3        1 MA4      0.140400
     19 O10        -5.1760   -3.5730    0.1360 os        1 MA4     -0.423600
     20 O20        -3.4570   -3.3200   -2.2320 oh        1 MA4     -0.604800
     21 O30        -1.8070   -0.9980   -2.0050 oh        1 MA4     -0.605800
     22 O50        -3.6330   -2.5410    1.3520 os        1 MA4     -0.446600
     23 O60        -2.7630   -2.1670    3.9180 oh        1 MA4     -0.594800
     24 C11        -5.6320   -4.4440    1.1790 c3        1 MA4      0.136400
     25 C21        -7.1260   -4.6100    0.9690 c3        1 MA4     -0.084400
     26 C31        -7.7070   -5.5200    2.0290 c3        1 MA4     -0.078400
     27 C41        -9.1980   -5.6970    1.8350 c3        1 MA4     -0.078400
     28 C51        -9.7840   -6.6050    2.8960 c3        1 MA4     -0.079400
     29 C61       -11.2740   -6.7840    2.6980 c3        1 MA4     -0.075400
     30 C12       -11.9000   -7.6600    3.7720 c3        1 MA4     -0.063700
     31 C22       -13.4110   -7.4670    3.7880 c3        1 MA4     -0.072900
     32 C32       -14.0690   -8.3420    4.8340 c3        1 MA4     -0.076400
     33 C42       -13.7180   -9.8020    4.6330 c3        1 MA4     -0.076400
     34 C52       -12.2170  -10.0040    4.6050 c3        1 MA4     -0.076400
     35 C62       -11.5630   -9.1290    3.5560 c3        1 MA4     -0.072900
     36 H11        -0.2820    0.2260   -1.1480 h2        1 MA4      0.126700
     37 H21         2.0410    0.9360   -0.6070 h1        1 MA4      0.062700
     38 H31         1.6720   -0.6550    2.0550 h1        1 MA4      0.081700
     39 H41         1.9810    2.3990    1.4610 h1        1 MA4      0.057700
     40 H51        -0.4450    0.7350    2.5350 h1        1 MA4      0.076700
     41 H61        -0.1790    3.7070    1.6100 h1        1 MA4      0.062200
     42 H62        -0.2910    3.1300    3.3570 h1        1 MA4      0.062200
     43 HO2         2.9740   -1.0940   -0.6810 ho        1 MA4      0.404000
     44 HO3         3.8020   -0.6370    1.5000 ho        1 MA4      0.411000
     45 HO6        -2.2510    2.6740    1.3680 ho        1 MA4      0.410000
     46 HO4         2.7920    1.5400    3.4780 ho        1 MA4      0.422000
     47 H101       -3.1870   -4.2730    0.2410 h2        1 MA4      0.055700
     48 H201       -4.1830   -1.6590   -1.1880 h1        1 MA4      0.078700
     49 H301       -1.2630   -2.7670   -1.0400 h1        1 MA4      0.070700
     50 H401       -2.4240   -0.2310    0.3610 h1        1 MA4      0.082700
     51 H501       -1.6070   -2.9930    1.6020 h1        1 MA4      0.066700
     52 H601       -2.9040   -0.4120    2.7930 h1        1 MA4      0.063700
     53 H602       -1.2290   -1.0950    3.1530 h1        1 MA4      0.063700
     54 HO20       -4.3570   -3.6610   -2.3140 ho        1 MA4      0.424000
     55 HO30       -1.9420   -1.4770   -2.8340 ho        1 MA4      0.425000
     56 HO60       -3.6700   -2.4150    3.6940 ho        1 MA4      0.412000
     57 H111       -5.0980   -5.4280    1.0990 h1        1 MA4      0.038700
     58 H112       -5.4090   -3.9790    2.1750 h1        1 MA4      0.038700
     59 H211       -7.3160   -5.0340   -0.0520 hc        1 MA4      0.055200
     60 H212       -7.6200   -3.6040    1.0070 hc        1 MA4      0.055200
     61 H311       -7.5090   -5.0890    3.0460 hc        1 MA4      0.042200
     62 H312       -7.2010   -6.5200    1.9880 hc        1 MA4      0.042200
     63 H411       -9.3970   -6.1280    0.8190 hc        1 MA4      0.041700
     64 H412       -9.7040   -4.6960    1.8750 hc        1 MA4      0.041700
     65 H511       -9.2730   -7.6030    2.8580 hc        1 MA4      0.040700
     66 H512       -9.5880   -6.1710    3.9120 hc        1 MA4      0.040700
     67 H611      -11.7680   -5.7750    2.7130 hc        1 MA4      0.040200
     68 H612      -11.4700   -7.2320    1.6880 hc        1 MA4      0.040200
     69 H121      -11.4940   -7.3470    4.7760 hc        1 MA4      0.048700
     70 H221      -13.6480   -6.3910    3.9980 hc        1 MA4      0.039200
     71 H222      -13.8260   -7.7130    2.7750 hc        1 MA4      0.039200
     72 H321      -15.1810   -8.2130    4.7840 hc        1 MA4      0.038450
     73 H322      -13.7380   -8.0160    5.8550 hc        1 MA4      0.038450
     74 H421      -14.1620  -10.1640    3.6690 hc        1 MA4      0.038200
     75 H422      -14.1650  -10.4140    5.4600 hc        1 MA4      0.038200
     76 H521      -11.7890   -9.7630    5.6130 hc        1 MA4      0.038450
     77 H522      -11.9870  -11.0800    4.3900 hc        1 MA4      0.038450
     78 H621      -10.4510   -9.2680    3.5940 hc        1 MA4      0.039200
     79 H622      -11.9080   -9.4440    2.5360 hc        1 MA4      0.039200
@<TRIPOS>BOND
     1    1    2 1   
     2    1    9 1   
     3    1   11 1   
     4    1   36 1   
     5    2    3 1   
     6    2    7 1   
     7    2   37 1   
     8    3    4 1   
     9    3    8 1   
    10    3   38 1   
    11    4    5 1   
    12    4   12 1   
    13    4   39 1   
    14    5    6 1   
    15    5    9 1   
    16    5   40 1   
    17    6   10 1   
    18    6   41 1   
    19    6   42 1   
    20    7   43 1   
    21    8   44 1   
    22   10   45 1   
    23   11   16 1   
    24   12   46 1   
    25   13   14 1   
    26   13   19 1   
    27   13   22 1   
    28   13   47 1   
    29   14   15 1   
    30   14   20 1   
    31   14   48 1   
    32   15   16 1   
    33   15   21 1   
    34   15   49 1   
    35   16   17 1   
    36   16   50 1   
    37   17   18 1   
    38   17   22 1   
    39   17   51 1   
    40   18   23 1   
    41   18   52 1   
    42   18   53 1   
    43   19   24 1   
    44   20   54 1   
    45   21   55 1   
    46   23   56 1   
    47   24   25 1   
    48   24   57 1   
    49   24   58 1   
    50   25   26 1   
    51   25   59 1   
    52   25   60 1   
    53   26   27 1   
    54   26   61 1   
    55   26   62 1   
    56   27   28 1   
    57   27   63 1   
    58   27   64 1   
    59   28   29 1   
    60   28   65 1   
    61   28   66 1   
    62   29   30 1   
    63   29   67 1   
    64   29   68 1   
    65   30   31 1   
    66   30   35 1   
    67   30   69 1   
    68   31   32 1   
    69   31   70 1   
    70   31   71 1   
    71   32   33 1   
    72   32   72 1   
    73   32   73 1   
    74   33   34 1   
    75   33   74 1   
    76   33   75 1   
    77   34   35 1   
    78   34   76 1   
    79   34   77 1   
    80   35   78 1   
    81   35   79 1   
@<TRIPOS>SUBSTRUCTURE
     1 MA4         1 TEMP              0 ****  ****    0 ROOT
