@<TRIPOS>MOLECULE
MA4
   79    81     1     0     0
SMALL
bcc


@<TRIPOS>ATOM
      1 C1          3.9480   -0.7130    3.4190 c3        1 MA4      0.295900
      2 C2          5.4140   -0.6860    3.7470 c3        1 MA4      0.131100
      3 C3          5.6690   -0.3520    5.1710 c3        1 MA4      0.105100
      4 C4          4.8850   -1.2150    6.0980 c3        1 MA4      0.093100
      5 C5          3.4300   -1.2360    5.7610 c3        1 MA4      0.082100
      6 C6          2.8470    0.1060    6.0670 c3        1 MA4      0.092400
      7 O2          5.9760   -1.9840    3.4690 oh        1 MA4     -0.600800
      8 O3          5.3110    1.0210    5.4000 oh        1 MA4     -0.601800
      9 O5          3.1820   -1.5590    4.3410 os        1 MA4     -0.439600
     10 O6          2.9270    0.3500    7.4870 oh        1 MA4     -0.590800
     11 O1          3.7820   -1.2190    2.0830 os        1 MA4     -0.434600
     12 O4          5.4000   -2.5630    6.0260 oh        1 MA4     -0.588800
     13 C10         1.9630    1.1930   -0.3930 c3        1 MA4      0.329900
     14 C20         3.0230    1.8720    0.2630 c3        1 MA4      0.126100
     15 C30         3.8220    0.9510    1.0720 c3        1 MA4      0.088100
     16 C40         3.0540   -0.4200    1.4060 c3        1 MA4      0.098100
     17 C50         2.8800   -0.9080   -0.0940 c3        1 MA4      0.112100
     18 C60         2.2570   -2.2120   -0.0900 c3        1 MA4      0.098400
     19 O10         0.7630    1.1100    0.6800 os        1 MA4     -0.450600
     20 O20         3.9060    2.5160   -0.7660 oh        1 MA4     -0.595800
     21 O30         4.1590    1.5890    2.2850 oh        1 MA4     -0.604800
     22 O50         2.0530    0.0100   -0.9200 os        1 MA4     -0.420600
     23 O60         1.5380   -2.3940   -1.2960 oh        1 MA4     -0.590800
     24 C11        -0.3670    1.9320    0.3520 c3        1 MA4      0.139400
     25 C21        -1.5830    1.0230   -0.0110 c3        1 MA4     -0.125400
     26 C31        -2.3220    1.6130   -1.2380 c3        1 MA4     -0.072400
     27 C41        -3.6660    0.8420   -1.4640 c3        1 MA4     -0.078400
     28 C51        -4.0360    0.9000   -2.9330 c3        1 MA4     -0.079400
     29 C61        -5.3290    0.0740   -3.1760 c3        1 MA4     -0.075400
     30 C12        -5.5820    0.0120   -4.4930 c3        1 MA4     -0.061700
     31 C22        -5.5660   -1.4960   -5.0360 c3        1 MA4     -0.071900
     32 C32        -5.8750   -1.5980   -6.5230 c3        1 MA4     -0.074900
     33 C42        -6.4970   -0.4790   -6.9820 c3        1 MA4     -0.074400
     34 C52        -7.4530    0.2280   -6.3040 c3        1 MA4     -0.074900
     35 C62        -7.1390    0.3160   -4.8300 c3        1 MA4     -0.071900
     36 H11         3.5990    0.1910    3.4580 h2        1 MA4      0.069700
     37 H21         5.8610   -0.0100    3.1720 h1        1 MA4      0.071700
     38 H31         6.6250   -0.4670    5.3590 h1        1 MA4      0.077700
     39 H41         4.9940   -0.8790    7.0190 h1        1 MA4      0.095700
     40 H51         2.9890   -1.9070    6.3170 h1        1 MA4      0.092700
     41 H61         1.9090    0.1280    5.7830 h1        1 MA4      0.064700
     42 H62         3.3490    0.7940    5.5900 h1        1 MA4      0.064700
     43 HO2         6.7550   -1.8870    3.0590 ho        1 MA4      0.432000
     44 HO3         6.0270    1.4680    5.7290 ho        1 MA4      0.419000
     45 HO6         2.0940    0.3930    7.8310 ho        1 MA4      0.403000
     46 HO4         5.7910   -2.7730    6.7970 ho        1 MA4      0.426000
     47 H101        1.6610    1.7930   -1.1180 h2        1 MA4      0.106700
     48 H201        2.6480    2.5670    0.8450 h1        1 MA4      0.076700
     49 H301        4.6420    0.7410    0.5890 h1        1 MA4      0.074700
     50 H401        2.1770   -0.2530    1.8410 h1        1 MA4      0.083700
     51 H501        3.7740   -0.9860   -0.5070 h1        1 MA4      0.082700
     52 H601        2.9550   -2.9140   -0.0110 h1        1 MA4      0.070200
     53 H602        1.6400   -2.2780    0.6720 h1        1 MA4      0.070200
     54 HO20        4.1240    3.3300   -0.5000 ho        1 MA4      0.423000
     55 HO30        4.5520    2.3530    2.1140 ho        1 MA4      0.414000
     56 HO60        1.2190   -3.2130   -1.3270 ho        1 MA4      0.397000
     57 H111       -0.5970    2.4950    1.1220 h1        1 MA4      0.047200
     58 H112       -0.1480    2.4950   -0.4050 h1        1 MA4      0.047200
     59 H211       -1.2670    0.1310   -0.2220 hc        1 MA4      0.068200
     60 H212       -2.1960    0.9800    0.7490 hc        1 MA4      0.068200
     61 H311       -1.7400    1.5200   -2.0560 hc        1 MA4      0.036200
     62 H312       -2.5140    2.5710   -1.0770 hc        1 MA4      0.036200
     63 H411       -4.3830    1.2620   -0.9270 hc        1 MA4      0.043700
     64 H412       -3.5570   -0.1010   -1.1880 hc        1 MA4      0.043700
     65 H511       -4.1870    1.8200   -3.1910 hc        1 MA4      0.039200
     66 H512       -3.3110    0.5300   -3.4640 hc        1 MA4      0.039200
     67 H611       -6.0800    0.5040   -2.7200 hc        1 MA4      0.039700
     68 H612       -5.2090   -0.8250   -2.8270 hc        1 MA4      0.039700
     69 H121       -4.9820    0.5880   -5.0100 hc        1 MA4      0.047700
     70 H221       -6.2490   -2.0280   -4.5290 hc        1 MA4      0.038700
     71 H222       -4.6840   -1.8800   -4.8720 hc        1 MA4      0.038700
     72 H321       -6.4630   -2.3830   -6.6800 hc        1 MA4      0.037200
     73 H322       -5.0240   -1.7240   -7.0240 hc        1 MA4      0.037200
     74 H421       -6.8980   -0.7280   -7.8230 hc        1 MA4      0.037700
     75 H422       -5.7810    0.1630   -7.1890 hc        1 MA4      0.037700
     76 H521       -7.5030    1.1480   -6.6790 hc        1 MA4      0.037200
     77 H522       -8.3160   -0.2100   -6.4200 hc        1 MA4      0.037200
     78 H621       -7.3590    1.2070   -4.5170 hc        1 MA4      0.038700
     79 H622       -7.7110   -0.3500   -4.3400 hc        1 MA4      0.038700
@<TRIPOS>BOND
     1    1    2 1   
     2    1    9 1   
     3    1   11 1   
     4    1   36 1   
     5    2    3 1   
     6    2    7 1   
     7    2   37 1   
     8    3    4 1   
     9    3    8 1   
    10    3   38 1   
    11    4    5 1   
    12    4   12 1   
    13    4   39 1   
    14    5    6 1   
    15    5    9 1   
    16    5   40 1   
    17    6   10 1   
    18    6   41 1   
    19    6   42 1   
    20    7   43 1   
    21    8   44 1   
    22   10   45 1   
    23   11   16 1   
    24   12   46 1   
    25   13   14 1   
    26   13   19 1   
    27   13   22 1   
    28   13   47 1   
    29   14   15 1   
    30   14   20 1   
    31   14   48 1   
    32   15   16 1   
    33   15   21 1   
    34   15   49 1   
    35   16   17 1   
    36   16   50 1   
    37   17   18 1   
    38   17   22 1   
    39   17   51 1   
    40   18   23 1   
    41   18   52 1   
    42   18   53 1   
    43   19   24 1   
    44   20   54 1   
    45   21   55 1   
    46   23   56 1   
    47   24   25 1   
    48   24   57 1   
    49   24   58 1   
    50   25   26 1   
    51   25   59 1   
    52   25   60 1   
    53   26   27 1   
    54   26   61 1   
    55   26   62 1   
    56   27   28 1   
    57   27   63 1   
    58   27   64 1   
    59   28   29 1   
    60   28   65 1   
    61   28   66 1   
    62   29   30 1   
    63   29   67 1   
    64   29   68 1   
    65   30   31 1   
    66   30   35 1   
    67   30   69 1   
    68   31   32 1   
    69   31   70 1   
    70   31   71 1   
    71   32   33 1   
    72   32   72 1   
    73   32   73 1   
    74   33   34 1   
    75   33   74 1   
    76   33   75 1   
    77   34   35 1   
    78   34   76 1   
    79   34   77 1   
    80   35   78 1   
    81   35   79 1   
@<TRIPOS>SUBSTRUCTURE
     1 MA4         1 TEMP              0 ****  ****    0 ROOT
