@<TRIPOS>MOLECULE
MA4
   79    75     1     0     0
SMALL
bcc


@<TRIPOS>ATOM
      1 C1         -0.5100    0.3340    1.3370 c3        1 MA4      0.062000
      2 C2          3.4850    1.0300    1.0080 c2        1 MA4      0.163000
      3 C3          3.3270   -0.4710    1.1360 c3        1 MA4     -0.076000
      4 C4          2.2650   -0.8410    2.1940 c3        1 MA4     -0.027000
      5 C5          1.0190   -1.4870    1.5720 c3        1 MA4     -0.043000
      6 C6         -3.2760    1.1420    3.0450 c1        1 MA4     -0.069500
      7 O2          2.5350    1.7800    0.7920 o         1 MA4     -0.281000
      8 O3          4.5710   -1.0730    1.4400 oh        1 MA4     -0.318000
      9 O5         -0.1600   -0.8460    2.0320 os        1 MA4     -0.291000
     10 O6         -4.3250    1.5680    2.4460 oh        1 MA4     -0.155000
     11 O1         -1.0430   -0.1020    0.1010 os        1 MA4     -0.319000
     12 O4          2.8580   -1.6830    3.1640 oh        1 MA4     -0.316000
     13 C10        -2.4370   -4.1210   -2.4650 c2        1 MA4      0.103000
     14 C20        -3.6800   -3.5170   -1.9600 c1        1 MA4     -0.025000
     15 C30        -2.9000   -0.2430   -1.3490 c3        1 MA4     -0.032500
     16 C40        -2.4470   -0.3640    0.1070 c3        1 MA4     -0.042000
     17 C50        -2.7100   -1.7600    0.6830 c3        1 MA4     -0.032500
     18 C60        -5.7010   -0.8160    2.4150 c1        1 MA4     -0.069500
     19 O20        -4.3250   -2.5630   -2.5170 oh        1 MA4     -0.109000
     20 O30        -2.2960   -1.2250   -2.1750 oh        1 MA4     -0.381500
     21 O50        -4.1000   -1.9980    0.8050 oh        1 MA4     -0.381500
     22 O60        -4.8700   -1.5340    3.0740 oh        1 MA4     -0.155000
     23 C21        -7.3730   -5.0560    0.3510 c3        1 MA4     -0.159000
     24 C31        -8.3870   -4.9560    1.4720 c3        1 MA4     -0.157000
     25 C41        -9.1650   -6.2440    1.6280 c3        1 MA4     -0.157000
     26 C51       -10.1690   -6.1430    2.7560 c3        1 MA4     -0.161000
     27 C61       -10.9550   -7.4280    2.9050 c3        1 MA4     -0.120000
     28 C12       -11.8980   -7.3780    4.1040 c3        1 MA4     -0.162000
     29 C22       -12.8890   -8.5330    4.0380 c3        1 MA4     -0.174000
     30 C32       -13.6150   -8.7070    5.3540 c3        1 MA4     -0.158000
     31 C42       -12.6360   -8.9790    6.4760 c3        1 MA4     -0.179000
     32 C52       -11.5840   -7.8910    6.5760 c3        1 MA4     -0.220000
     33 C62       -11.1550   -7.2370    5.3540 c1        1 MA4     -0.052000
     34 H11        -1.2590    0.8620    1.9960 h2        1 MA4      0.146500
     35 H21         0.3810    0.9660    1.0710 h2        1 MA4      0.146500
     36 H31         3.0620   -0.8890    0.1220 h1        1 MA4      0.142000
     37 H41         1.9560    0.0750    2.7780 h1        1 MA4      0.144000
     38 H51         1.0600   -1.4700    0.4520 h1        1 MA4      0.098500
     39 H61        -3.3870    0.2470    3.7040 ha        1 MA4      0.024000
     40 H62         0.9150   -2.5460    1.9350 h1        1 MA4      0.098500
     41 HO2         4.5300    1.3990    1.1090 h4        1 MA4      0.108000
     42 HO3         4.7770   -0.8770    2.3660 ho        1 MA4      0.219000
     43 HO6        -5.1640    1.0430    2.5950 ho        1 MA4      0.200500
     44 HO4         3.1000   -2.5100    2.7260 ho        1 MA4      0.209000
     45 H101       -4.4170   -2.3380   -0.0460 ho        1 MA4      0.230500
     46 H201       -2.6610    0.7810   -1.7400 h1        1 MA4      0.103750
     47 H301       -4.0030   -0.4440   -1.4210 h1        1 MA4      0.103750
     48 H401       -2.9900    0.4090    0.7240 h1        1 MA4      0.122000
     49 H501       -2.2280   -2.5380    0.0340 h1        1 MA4      0.103750
     50 H601       -6.3300   -1.2950    1.6340 ha        1 MA4      0.024000
     51 H602       -2.2980   -1.8190    1.7280 h1        1 MA4      0.103750
     52 HO20       -3.9480   -2.2100   -3.3570 ho        1 MA4      0.198000
     53 HO30       -1.3400   -1.0990   -2.1090 ho        1 MA4      0.230500
     54 HO60       -4.8080   -2.4840    2.8210 ho        1 MA4      0.200500
     55 H111       -1.5250   -3.7260   -1.9540 h4        1 MA4      0.107000
     56 H112       -5.8490   -3.8720   -0.6390 hc        1 MA4      0.073333
     57 H211       -7.2750   -2.9220   -0.0380 hc        1 MA4      0.073333
     58 H212       -6.0370   -3.5340    1.1320 hc        1 MA4      0.073333
     59 H311       -6.6680   -5.9030    0.5590 hc        1 MA4      0.080500
     60 H312       -7.9010   -5.2950   -0.6090 hc        1 MA4      0.080500
     61 H411       -9.0950   -4.1110    1.2640 hc        1 MA4      0.076500
     62 H412       -7.8620   -4.7170    2.4340 hc        1 MA4      0.076500
     63 H511       -9.6960   -6.4810    0.6690 hc        1 MA4      0.077000
     64 H512       -8.4560   -7.0890    1.8310 hc        1 MA4      0.077000
     65 H611       -9.6420   -5.9220    3.7230 hc        1 MA4      0.092000
     66 H612      -10.8730   -5.2920    2.5580 hc        1 MA4      0.092000
     67 H121      -10.2510   -8.2920    3.0260 hc        1 MA4      0.078000
     68 H221      -11.5600   -7.6150    1.9790 hc        1 MA4      0.078000
     69 H222      -12.4810   -6.4010    4.0500 hc        1 MA4      0.136000
     70 H321      -12.3430   -9.4790    3.7830 hc        1 MA4      0.083500
     71 H322      -13.6300   -8.3460    3.2180 hc        1 MA4      0.083500
     72 H421      -14.3400   -9.5590    5.2740 hc        1 MA4      0.080000
     73 H422      -14.2080   -7.7840    5.5850 hc        1 MA4      0.080000
     74 H521      -12.1340   -9.9660    6.2940 hc        1 MA4      0.081000
     75 H522      -13.1880   -9.0650    7.4470 hc        1 MA4      0.081000
     76 H621      -10.6630   -8.2990    7.0840 hc        1 MA4      0.134500
     77 H622      -11.9540   -7.0510    7.2370 hc        1 MA4      0.134500
     78 O10        -2.3880   -5.0690   -3.2520 o         1 MA4     -0.270000
     79 C11        -6.5930   -3.7770    0.1920 c3        1 MA4     -0.218000
@<TRIPOS>BOND
     1    1    9 1   
     2    1   11 1   
     3    1   34 1   
     4    1   35 1   
     5    2    3 1   
     6    2    7 1   
     7    2   41 1   
     8    3    4 1   
     9    3    8 1   
    10    3   36 1   
    11    4    5 1   
    12    4   12 1   
    13    4   37 1   
    14    5    9 1   
    15    5   38 1   
    16    5   40 1   
    17    6   10 1   
    18    6   39 1   
    19    8   42 1   
    20   10   43 1   
    21   11   16 1   
    22   12   44 1   
    23   13   14 1   
    24   13   55 1   
    25   13   78 1   
    26   14   19 1   
    27   15   16 1   
    28   15   20 1   
    29   15   46 1   
    30   15   47 1   
    31   16   17 1   
    32   16   48 1   
    33   17   21 1   
    34   17   49 1   
    35   17   51 1   
    36   18   22 1   
    37   18   50 1   
    38   19   52 1   
    39   20   53 1   
    40   21   45 1   
    41   22   54 1   
    42   23   24 1   
    43   23   59 1   
    44   23   60 1   
    45   23   79 1   
    46   24   25 1   
    47   24   61 1   
    48   24   62 1   
    49   25   26 1   
    50   25   63 1   
    51   25   64 1   
    52   26   27 1   
    53   26   65 1   
    54   26   66 1   
    55   27   28 1   
    56   27   67 1   
    57   27   68 1   
    58   28   29 1   
    59   28   33 1   
    60   28   69 1   
    61   29   30 1   
    62   29   70 1   
    63   29   71 1   
    64   30   31 1   
    65   30   72 1   
    66   30   73 1   
    67   31   32 1   
    68   31   74 1   
    69   31   75 1   
    70   32   33 1   
    71   32   76 1   
    72   32   77 1   
    73   56   79 1   
    74   57   79 1   
    75   58   79 1   
@<TRIPOS>SUBSTRUCTURE
     1 MA4         1 TEMP              0 ****  ****    0 ROOT
