@<TRIPOS>MOLECULE
MA4
   79    81     1     0     0
SMALL
bcc


@<TRIPOS>ATOM
      1 C1         -0.7140    0.3130   -5.4330 c3        1 MA4      0.298900
      2 C2         -0.6000   -0.5680   -6.6910 c3        1 MA4      0.094100
      3 C3          0.8600   -0.9400   -6.9830 c3        1 MA4      0.074100
      4 C4          1.7420    0.3200   -6.9610 c3        1 MA4      0.125100
      5 C5          1.5830    0.9910   -5.5880 c3        1 MA4      0.136100
      6 C6          2.4000    2.2790   -5.4870 c3        1 MA4      0.136400
      7 O2         -1.3870   -1.7350   -6.5850 oh        1 MA4     -0.592800
      8 O3          0.9920   -1.5070   -8.2760 oh        1 MA4     -0.607800
      9 O5          0.2150    1.3700   -5.3990 os        1 MA4     -0.424600
     10 O6          2.6660    2.4790   -4.1060 oh        1 MA4     -0.603800
     11 O1         -0.4440   -0.5200   -4.3120 os        1 MA4     -0.458600
     12 O4          3.1070   -0.0170   -7.1200 oh        1 MA4     -0.595800
     13 C10        -1.5510   -0.4470   -0.3220 c3        1 MA4      0.307900
     14 C20        -2.5260    0.2750   -1.2700 c3        1 MA4      0.086100
     15 C30        -2.2500   -0.1440   -2.7230 c3        1 MA4      0.121100
     16 C40        -0.7600    0.0690   -3.0500 c3        1 MA4      0.125100
     17 C50         0.1020   -0.6690   -2.0090 c3        1 MA4      0.108100
     18 C60         1.5980   -0.3990   -2.2100 c3        1 MA4      0.137400
     19 O10        -1.6580    0.1820    0.9350 os        1 MA4     -0.423600
     20 O20        -3.8620   -0.1040   -0.9890 oh        1 MA4     -0.604800
     21 O30        -3.0060    0.6670   -3.6050 oh        1 MA4     -0.603800
     22 O50        -0.2010   -0.1970   -0.6960 os        1 MA4     -0.444600
     23 O60         2.3530   -0.9110   -1.1340 oh        1 MA4     -0.595800
     24 C11        -0.8920   -0.4600    1.9640 c3        1 MA4      0.136400
     25 C21        -1.1450    0.3300    3.2350 c3        1 MA4     -0.084400
     26 C31        -0.3750   -0.2720    4.3890 c3        1 MA4     -0.078400
     27 C41        -0.6150    0.5030    5.6670 c3        1 MA4     -0.078400
     28 C51         0.1570   -0.0960    6.8240 c3        1 MA4     -0.079400
     29 C61        -0.0890    0.6790    8.1010 c3        1 MA4     -0.075400
     30 C12         0.7060    0.1260    9.2740 c3        1 MA4     -0.063700
     31 C22         0.7660    1.1560   10.3950 c3        1 MA4     -0.072900
     32 C32         1.5330    0.6290   11.5900 c3        1 MA4     -0.076400
     33 C42         0.9450   -0.6740   12.0920 c3        1 MA4     -0.076400
     34 C52         0.8690   -1.7030   10.9830 c3        1 MA4     -0.076400
     35 C62         0.1000   -1.1730    9.7910 c3        1 MA4     -0.072900
     36 H11        -1.7250    0.8080   -5.3570 h2        1 MA4      0.124700
     37 H21        -1.0340   -0.0060   -7.5660 h1        1 MA4      0.100700
     38 H31         1.2270   -1.6780   -6.2140 h1        1 MA4      0.062700
     39 H41         1.4250    1.0180   -7.7840 h1        1 MA4      0.058700
     40 H51         1.8900    0.2780   -4.7730 h1        1 MA4      0.081700
     41 H61         1.8210    3.1450   -5.9020 h1        1 MA4      0.048700
     42 H62         3.3630    2.1470   -6.0500 h1        1 MA4      0.048700
     43 HO2        -1.1750   -2.1560   -5.7400 ho        1 MA4      0.420000
     44 HO3         0.3070   -2.1860   -8.3520 ho        1 MA4      0.424000
     45 HO6         3.1460    3.3120   -4.0380 ho        1 MA4      0.404000
     46 HO4         3.1620   -0.5750   -7.9080 ho        1 MA4      0.426000
     47 H101       -1.7530   -1.5520   -0.2660 h2        1 MA4      0.053700
     48 H201       -2.4070    1.3890   -1.1580 h1        1 MA4      0.079700
     49 H301       -2.5300   -1.2240   -2.8710 h1        1 MA4      0.060700
     50 H401       -0.5200    1.1670   -3.0630 h1        1 MA4      0.097700
     51 H501       -0.1010   -1.7750   -2.0630 h1        1 MA4      0.058700
     52 H601        1.9520   -0.9650   -3.1130 h1        1 MA4      0.069700
     53 H602        1.7850    0.7000   -2.3450 h1        1 MA4      0.069700
     54 HO20       -4.0420    0.1760   -0.0820 ho        1 MA4      0.425000
     55 HO30       -3.9320    0.5710   -3.3430 ho        1 MA4      0.425000
     56 HO60        2.0670   -0.4440   -0.3380 ho        1 MA4      0.411000
     57 H111       -1.2350   -1.5230    2.0690 h1        1 MA4      0.039200
     58 H112        0.1930   -0.4450    1.6830 h1        1 MA4      0.039200
     59 H211       -0.8370    1.3960    3.0760 hc        1 MA4      0.054700
     60 H212       -2.2430    0.3320    3.4610 hc        1 MA4      0.054700
     61 H311       -0.6840   -1.3410    4.5330 hc        1 MA4      0.042200
     62 H312        0.7220   -0.2740    4.1510 hc        1 MA4      0.042200
     63 H411       -0.3070    1.5720    5.5210 hc        1 MA4      0.041200
     64 H412       -1.7110    0.5040    5.9050 hc        1 MA4      0.041200
     65 H511       -0.1490   -1.1660    6.9630 hc        1 MA4      0.040700
     66 H512        1.2530   -0.0930    6.5850 hc        1 MA4      0.040700
     67 H611        0.1980    1.7520    7.9380 hc        1 MA4      0.040200
     68 H612       -1.1830    0.6630    8.3480 hc        1 MA4      0.040200
     69 H121        1.7580   -0.0850    8.9320 hc        1 MA4      0.048700
     70 H221        1.2590    2.0900   10.0180 hc        1 MA4      0.039200
     71 H222       -0.2770    1.4270   10.7060 hc        1 MA4      0.039200
     72 H321        2.6060    0.4680   11.3030 hc        1 MA4      0.038450
     73 H322        1.5140    1.3910   12.4110 hc        1 MA4      0.038450
     74 H421        1.5730   -1.0710   12.9320 hc        1 MA4      0.038200
     75 H422       -0.0830   -0.4870   12.4990 hc        1 MA4      0.038200
     76 H521        1.9070   -1.9840   10.6640 hc        1 MA4      0.038450
     77 H522        0.3720   -2.6310   11.3660 hc        1 MA4      0.038450
     78 H621       -0.9680   -0.9950   10.0830 hc        1 MA4      0.039200
     79 H622        0.1040   -1.9400    8.9730 hc        1 MA4      0.039200
@<TRIPOS>BOND
     1    1    2 1   
     2    1    9 1   
     3    1   11 1   
     4    1   36 1   
     5    2    3 1   
     6    2    7 1   
     7    2   37 1   
     8    3    4 1   
     9    3    8 1   
    10    3   38 1   
    11    4    5 1   
    12    4   12 1   
    13    4   39 1   
    14    5    6 1   
    15    5    9 1   
    16    5   40 1   
    17    6   10 1   
    18    6   41 1   
    19    6   42 1   
    20    7   43 1   
    21    8   44 1   
    22   10   45 1   
    23   11   16 1   
    24   12   46 1   
    25   13   14 1   
    26   13   19 1   
    27   13   22 1   
    28   13   47 1   
    29   14   15 1   
    30   14   20 1   
    31   14   48 1   
    32   15   16 1   
    33   15   21 1   
    34   15   49 1   
    35   16   17 1   
    36   16   50 1   
    37   17   18 1   
    38   17   22 1   
    39   17   51 1   
    40   18   23 1   
    41   18   52 1   
    42   18   53 1   
    43   19   24 1   
    44   20   54 1   
    45   21   55 1   
    46   23   56 1   
    47   24   25 1   
    48   24   57 1   
    49   24   58 1   
    50   25   26 1   
    51   25   59 1   
    52   25   60 1   
    53   26   27 1   
    54   26   61 1   
    55   26   62 1   
    56   27   28 1   
    57   27   63 1   
    58   27   64 1   
    59   28   29 1   
    60   28   65 1   
    61   28   66 1   
    62   29   30 1   
    63   29   67 1   
    64   29   68 1   
    65   30   31 1   
    66   30   35 1   
    67   30   69 1   
    68   31   32 1   
    69   31   70 1   
    70   31   71 1   
    71   32   33 1   
    72   32   72 1   
    73   32   73 1   
    74   33   34 1   
    75   33   74 1   
    76   33   75 1   
    77   34   35 1   
    78   34   76 1   
    79   34   77 1   
    80   35   78 1   
    81   35   79 1   
@<TRIPOS>SUBSTRUCTURE
     1 MA4         1 TEMP              0 ****  ****    0 ROOT
