@<TRIPOS>MOLECULE
MA5
   67    69     1     0     0
SMALL
bcc


@<TRIPOS>ATOM
      1 C42         7.1380    0.7710    1.0220 c3        1 MA5     -0.073900
      2 C32         8.2370    1.6480    0.4610 c3        1 MA5     -0.076400
      3 C22         8.8310    1.0530   -0.7990 c3        1 MA5     -0.077400
      4 C12         7.7580    0.7810   -1.8330 c3        1 MA5     -0.076400
      5 C62         6.6600   -0.0980   -1.2700 c3        1 MA5     -0.073900
      6 C52         6.0520    0.5130   -0.0150 c3        1 MA5     -0.062700
      7 C61         4.9800   -0.3880    0.5760 c3        1 MA5     -0.082400
      8 C11         3.7090   -0.3520   -0.2540 c3        1 MA5      0.136400
      9 O10         2.7550   -1.1620    0.4480 os        1 MA5     -0.424600
     10 C10         1.5110   -1.2610   -0.2070 c3        1 MA5      0.307900
     11 C20         0.6590   -2.2620    0.5960 c3        1 MA5      0.086100
     12 O20         1.0970   -3.5880    0.3580 oh        1 MA5     -0.604800
     13 C30        -0.8040   -2.1950    0.1290 c3        1 MA5      0.121100
     14 O30        -1.6170   -2.9620    0.9990 oh        1 MA5     -0.603800
     15 O50         0.9830    0.0550   -0.1010 os        1 MA5     -0.444600
     16 C50        -0.3430    0.1600   -0.6210 c3        1 MA5      0.108100
     17 C60        -0.7170    1.6420   -0.5070 c3        1 MA5      0.137400
     18 O60         0.2810    2.4590   -1.0780 oh        1 MA5     -0.595800
     19 C40        -1.3010   -0.7380    0.1850 c3        1 MA5      0.125100
     20 O1         -2.5750   -0.6270   -0.4520 os        1 MA5     -0.458600
     21 C1         -3.6790   -0.9390    0.3880 c3        1 MA5      0.298900
     22 O5         -3.7770    0.0880    1.3450 os        1 MA5     -0.424600
     23 C5         -4.1080    1.3810    0.8270 c3        1 MA5      0.136100
     24 C6         -4.1320    2.3270    2.0270 c3        1 MA5      0.136400
     25 O6         -2.7960    2.7660    2.2210 oh        1 MA5     -0.603800
     26 C4         -5.4710    1.3150    0.1230 c3        1 MA5      0.125100
     27 O4         -5.7730    2.6140   -0.3520 oh        1 MA5     -0.595800
     28 C3         -5.3620    0.3170   -1.0420 c3        1 MA5      0.074100
     29 O3         -6.6460    0.2440   -1.6380 oh        1 MA5     -0.607800
     30 C2         -4.9180   -1.0570   -0.5200 c3        1 MA5      0.094100
     31 O2         -4.6960   -1.9380   -1.6000 oh        1 MA5     -0.592800
     32 H421        6.6860    1.2660    1.9210 hc        1 MA5      0.040200
     33 H422        7.5700   -0.2080    1.3570 hc        1 MA5      0.040200
     34 H321        7.8240    2.6660    0.2340 hc        1 MA5      0.040200
     35 H322        9.0420    1.7760    1.2310 hc        1 MA5      0.040200
     36 H221        9.5930    1.7560   -1.2250 hc        1 MA5      0.039700
     37 H222        9.3580    0.0960   -0.5480 hc        1 MA5      0.039700
     38 H121        7.3170    1.7530   -2.1790 hc        1 MA5      0.040200
     39 H122        8.2140    0.2810   -2.7270 hc        1 MA5      0.040200
     40 H621        7.0780   -1.1100   -1.0260 hc        1 MA5      0.040200
     41 H622        5.8610   -0.2390   -2.0440 hc        1 MA5      0.040200
     42 H52         5.5850    1.5010   -0.2910 hc        1 MA5      0.050700
     43 H611        4.7380   -0.0550    1.6200 hc        1 MA5      0.054700
     44 H612        5.3550   -1.4420    0.6420 hc        1 MA5      0.054700
     45 H111        3.8730   -0.7810   -1.2770 h1        1 MA5      0.039700
     46 H112        3.3100    0.6920   -0.3460 h1        1 MA5      0.039700
     47 H10         1.6180   -1.5640   -1.2850 h2        1 MA5      0.053700
     48 H20         0.7270   -2.0200    1.6930 h1        1 MA5      0.079700
     49 H3          2.0110   -3.6340    0.6680 ho        1 MA5      0.425000
     50 H30        -0.8920   -2.5950   -0.9190 h1        1 MA5      0.060700
     51 H2         -1.2510   -3.8570    1.0020 ho        1 MA5      0.425000
     52 H50        -0.3450   -0.1570   -1.7010 h1        1 MA5      0.058700
     53 H601       -1.6390    1.8330   -1.1190 h1        1 MA5      0.069700
     54 H602       -0.9000    1.9210    0.5650 h1        1 MA5      0.069700
     55 H60         1.0920    2.3130   -0.5740 ho        1 MA5      0.412000
     56 H40        -1.3700   -0.3940    1.2530 h1        1 MA5      0.097700
     57 H1         -3.5050   -1.8810    0.9830 h2        1 MA5      0.124700
     58 H5         -3.3140    1.7060    0.0990 h1        1 MA5      0.081700
     59 H61        -4.5030    1.7930    2.9420 h1        1 MA5      0.048700
     60 H62        -4.7960    3.2020    1.7910 h1        1 MA5      0.048700
     61 HO6        -2.8040    3.3310    3.0020 ho        1 MA5      0.404000
     62 H7         -6.2720    0.9780    0.8380 h1        1 MA5      0.058700
     63 HO4        -6.5470    2.5230   -0.9250 ho        1 MA5      0.426000
     64 H6         -4.6200    0.6940   -1.8010 h1        1 MA5      0.062700
     65 HO3        -6.6270   -0.5080   -2.2460 ho        1 MA5      0.424000
     66 H4         -5.7550   -1.5290    0.0700 h1        1 MA5      0.100700
     67 HO2        -3.8690   -1.6740   -2.0270 ho        1 MA5      0.420000
@<TRIPOS>BOND
     1    1    2 1   
     2    1    6 1   
     3    1   32 1   
     4    1   33 1   
     5    2    3 1   
     6    2   34 1   
     7    2   35 1   
     8    3    4 1   
     9    3   36 1   
    10    3   37 1   
    11    4    5 1   
    12    4   38 1   
    13    4   39 1   
    14    5    6 1   
    15    5   40 1   
    16    5   41 1   
    17    6    7 1   
    18    6   42 1   
    19    7    8 1   
    20    7   43 1   
    21    7   44 1   
    22    8    9 1   
    23    8   45 1   
    24    8   46 1   
    25    9   10 1   
    26   10   11 1   
    27   10   15 1   
    28   10   47 1   
    29   11   12 1   
    30   11   13 1   
    31   11   48 1   
    32   12   49 1   
    33   13   14 1   
    34   13   19 1   
    35   13   50 1   
    36   14   51 1   
    37   15   16 1   
    38   16   17 1   
    39   16   19 1   
    40   16   52 1   
    41   17   18 1   
    42   17   53 1   
    43   17   54 1   
    44   18   55 1   
    45   19   20 1   
    46   19   56 1   
    47   20   21 1   
    48   21   22 1   
    49   21   30 1   
    50   21   57 1   
    51   22   23 1   
    52   23   24 1   
    53   23   26 1   
    54   23   58 1   
    55   24   25 1   
    56   24   59 1   
    57   24   60 1   
    58   25   61 1   
    59   26   27 1   
    60   26   28 1   
    61   26   62 1   
    62   27   63 1   
    63   28   29 1   
    64   28   30 1   
    65   28   64 1   
    66   29   65 1   
    67   30   31 1   
    68   30   66 1   
    69   31   67 1   
@<TRIPOS>SUBSTRUCTURE
     1 MA5         1 TEMP              0 ****  ****    0 ROOT
