@<TRIPOS>MOLECULE
MA5
   67    69     1     0     0
SMALL
bcc


@<TRIPOS>ATOM
      1 C42         0.0450   -0.2520   -0.1450 c3        1 MA5     -0.073900
      2 C32         1.5400   -0.0120   -0.1510 c3        1 MA5     -0.076400
      3 C22         2.0330    0.4410    1.2080 c3        1 MA5     -0.077400
      4 C12         1.6340   -0.5420    2.2890 c3        1 MA5     -0.076400
      5 C62         0.1380   -0.7790    2.2940 c3        1 MA5     -0.073900
      6 C52        -0.3510   -1.2530    0.9330 c3        1 MA5     -0.062700
      7 C61        -1.8580   -1.4500    0.9230 c3        1 MA5     -0.082400
      8 C11        -2.2570   -2.7010    1.6840 c3        1 MA5      0.136400
      9 O10        -3.6770   -2.8260    1.5260 os        1 MA5     -0.424600
     10 C10        -4.2230   -3.9350    2.2010 c3        1 MA5      0.307900
     11 C20        -5.7520   -3.8460    2.0510 c3        1 MA5      0.086100
     12 O20        -6.2760   -2.8350    2.8920 oh        1 MA5     -0.604800
     13 C30        -6.4060   -5.1650    2.4970 c3        1 MA5      0.121100
     14 O30        -7.7770   -5.1440    2.1350 oh        1 MA5     -0.605800
     15 O50        -3.7120   -5.0440    1.4710 os        1 MA5     -0.446600
     16 C50        -4.2200   -6.2920    1.9440 c3        1 MA5      0.107100
     17 C60        -3.5140   -7.3640    1.1080 c3        1 MA5      0.140400
     18 O60        -2.1120   -7.2490    1.2170 oh        1 MA5     -0.594800
     19 C40        -5.7510   -6.3580    1.7770 c3        1 MA5      0.126100
     20 O1         -6.1310   -7.5900    2.3940 os        1 MA5     -0.431600
     21 C1         -7.4220   -8.0570    2.0530 c3        1 MA5      0.336900
     22 O5         -7.3400   -8.5750    0.7410 os        1 MA5     -0.449600
     23 C5         -6.4790   -9.7040    0.5640 c3        1 MA5      0.102100
     24 C6         -6.6410  -10.1190   -0.9010 c3        1 MA5      0.140400
     25 O6         -6.1890   -9.1050   -1.7710 oh        1 MA5     -0.595800
     26 C4         -6.8730  -10.8520    1.5060 c3        1 MA5      0.126100
     27 O4         -5.9200  -11.8840    1.3310 oh        1 MA5     -0.592800
     28 C3         -6.8560  -10.3360    2.9550 c3        1 MA5      0.066100
     29 O3         -7.2870  -11.4060    3.7810 oh        1 MA5     -0.607800
     30 C2         -7.8230   -9.1490    3.0650 c3        1 MA5      0.098100
     31 O2         -7.7890   -8.5820    4.3600 oh        1 MA5     -0.576800
     32 H421       -0.2760   -0.6360   -1.1480 hc        1 MA5      0.040450
     33 H422       -0.4920    0.7160    0.0340 hc        1 MA5      0.040450
     34 H321        1.7900    0.7650   -0.9190 hc        1 MA5      0.040200
     35 H322        2.0690   -0.9570   -0.4430 hc        1 MA5      0.040200
     36 H221        3.1490    0.5460    1.1880 hc        1 MA5      0.039700
     37 H222        1.6040    1.4500    1.4440 hc        1 MA5      0.039700
     38 H121        1.9530   -0.1490    3.2900 hc        1 MA5      0.040200
     39 H122        2.1660   -1.5150    2.1240 hc        1 MA5      0.040200
     40 H621       -0.1160   -1.5440    3.0720 hc        1 MA5      0.040450
     41 H622       -0.3920    0.1710    2.5690 hc        1 MA5      0.040450
     42 H52         0.1460   -2.2370    0.7000 hc        1 MA5      0.050700
     43 H611       -2.2210   -1.5420   -0.1350 hc        1 MA5      0.055200
     44 H612       -2.3670   -0.5590    1.3730 hc        1 MA5      0.055200
     45 H111       -1.7570   -3.6130    1.2640 h1        1 MA5      0.039200
     46 H112       -2.0150   -2.6140    2.7760 h1        1 MA5      0.039200
     47 H10        -3.9030   -3.9820    3.2790 h2        1 MA5      0.055700
     48 H20        -6.0120   -3.6310    0.9770 h1        1 MA5      0.078700
     49 H3         -5.8780   -2.0030    2.6020 ho        1 MA5      0.424000
     50 H30        -6.3090   -5.2880    3.6120 h1        1 MA5      0.070700
     51 H2         -8.1660   -4.3780    2.5780 ho        1 MA5      0.425000
     52 H50        -3.9550   -6.4150    3.0310 h1        1 MA5      0.066700
     53 H601       -3.7620   -8.3770    1.5260 h1        1 MA5      0.063700
     54 H602       -3.8350   -7.2940    0.0360 h1        1 MA5      0.063700
     55 H60        -1.8720   -6.3760    0.8800 ho        1 MA5      0.412000
     56 H40        -6.0440   -6.3610    0.6930 h1        1 MA5      0.082700
     57 H1         -8.1900   -7.2340    1.9990 h2        1 MA5      0.126700
     58 H5         -5.4180   -9.3910    0.7670 h1        1 MA5      0.076700
     59 H61        -5.9840  -11.0080   -1.1040 h1        1 MA5      0.062200
     60 H62        -7.7140  -10.3680   -1.1130 h1        1 MA5      0.062200
     61 HO6        -6.7180   -8.3180   -1.5870 ho        1 MA5      0.410000
     62 H7         -7.9000  -11.2360    1.2550 h1        1 MA5      0.057700
     63 HO4        -6.1190  -12.5530    2.0010 ho        1 MA5      0.422000
     64 H6         -5.8170  -10.0080    3.2370 h1        1 MA5      0.081700
     65 HO3        -6.9750  -11.2110    4.6730 ho        1 MA5      0.411000
     66 H4         -8.8670   -9.4870    2.8120 h1        1 MA5      0.062700
     67 HO2        -8.2350   -9.2140    4.9390 ho        1 MA5      0.404000
@<TRIPOS>BOND
     1    1    2 1   
     2    1    6 1   
     3    1   32 1   
     4    1   33 1   
     5    2    3 1   
     6    2   34 1   
     7    2   35 1   
     8    3    4 1   
     9    3   36 1   
    10    3   37 1   
    11    4    5 1   
    12    4   38 1   
    13    4   39 1   
    14    5    6 1   
    15    5   40 1   
    16    5   41 1   
    17    6    7 1   
    18    6   42 1   
    19    7    8 1   
    20    7   43 1   
    21    7   44 1   
    22    8    9 1   
    23    8   45 1   
    24    8   46 1   
    25    9   10 1   
    26   10   11 1   
    27   10   15 1   
    28   10   47 1   
    29   11   12 1   
    30   11   13 1   
    31   11   48 1   
    32   12   49 1   
    33   13   14 1   
    34   13   19 1   
    35   13   50 1   
    36   14   51 1   
    37   15   16 1   
    38   16   17 1   
    39   16   19 1   
    40   16   52 1   
    41   17   18 1   
    42   17   53 1   
    43   17   54 1   
    44   18   55 1   
    45   19   20 1   
    46   19   56 1   
    47   20   21 1   
    48   21   22 1   
    49   21   30 1   
    50   21   57 1   
    51   22   23 1   
    52   23   24 1   
    53   23   26 1   
    54   23   58 1   
    55   24   25 1   
    56   24   59 1   
    57   24   60 1   
    58   25   61 1   
    59   26   27 1   
    60   26   28 1   
    61   26   62 1   
    62   27   63 1   
    63   28   29 1   
    64   28   30 1   
    65   28   64 1   
    66   29   65 1   
    67   30   31 1   
    68   30   66 1   
    69   31   67 1   
@<TRIPOS>SUBSTRUCTURE
     1 MA5         1 TEMP              0 ****  ****    0 ROOT
