@<TRIPOS>MOLECULE
MA5
   67    69     1     0     0
SMALL
bcc


@<TRIPOS>ATOM
      1 C42        -0.0080   -0.3110   -0.2120 c3        1 MA5     -0.073900
      2 C32         1.4850   -0.0560   -0.2250 c3        1 MA5     -0.076400
      3 C22         1.9710    0.4520    1.1170 c3        1 MA5     -0.077400
      4 C12         1.5810   -0.4950    2.2330 c3        1 MA5     -0.076400
      5 C62         0.0870   -0.7470    2.2450 c3        1 MA5     -0.073900
      6 C52        -0.3950   -1.2760    0.9010 c3        1 MA5     -0.062700
      7 C61        -1.9000   -1.4880    0.8970 c3        1 MA5     -0.082400
      8 C11        -2.2870   -2.7150    1.7030 c3        1 MA5      0.136400
      9 O10        -3.7050   -2.8600    1.5490 os        1 MA5     -0.423600
     10 C10        -4.2430   -3.9470    2.2640 c3        1 MA5      0.307900
     11 C20        -5.7730   -3.8740    2.1120 c3        1 MA5      0.086100
     12 O20        -6.3030   -2.8430    2.9250 oh        1 MA5     -0.604800
     13 C30        -6.4130   -5.1850    2.5990 c3        1 MA5      0.121100
     14 O30        -7.7910   -5.1910    2.2640 oh        1 MA5     -0.605800
     15 O50        -3.7190   -5.0780    1.5750 os        1 MA5     -0.444600
     16 C50        -4.2260   -6.3130    2.0800 c3        1 MA5      0.107100
     17 C60        -3.5050   -7.4080    1.2870 c3        1 MA5      0.140400
     18 O60        -2.1070   -7.2790    1.4070 oh        1 MA5     -0.592800
     19 C40        -5.7540   -6.3840    1.8920 c3        1 MA5      0.128100
     20 O1         -6.1570   -7.6090    2.5040 os        1 MA5     -0.458600
     21 C1         -7.4200   -8.1040    2.0790 c3        1 MA5      0.302900
     22 O5         -7.2710   -8.5440    0.7510 os        1 MA5     -0.441600
     23 C5         -6.4180   -9.6770    0.5550 c3        1 MA5      0.098100
     24 C6         -6.4870   -9.9890   -0.9420 c3        1 MA5      0.140400
     25 O6         -5.9550   -8.9300   -1.7070 oh        1 MA5     -0.596800
     26 C4         -6.8970  -10.8680    1.3940 c3        1 MA5      0.129100
     27 O4         -5.9820  -11.9270    1.1790 oh        1 MA5     -0.594800
     28 C3         -6.9180  -10.4570    2.8750 c3        1 MA5      0.073100
     29 O3         -7.4210  -11.5660    3.6000 oh        1 MA5     -0.605800
     30 C2         -7.8110   -9.2230    3.0620 c3        1 MA5      0.095100
     31 O2         -7.7610   -8.7810    4.4020 oh        1 MA5     -0.590800
     32 H421       -0.3230   -0.7350   -1.2010 hc        1 MA5      0.040450
     33 H422       -0.5550    0.6580   -0.0690 hc        1 MA5      0.040450
     34 H321        2.0240   -1.0060   -0.4830 hc        1 MA5      0.040450
     35 H322        1.7280    0.6950   -1.0220 hc        1 MA5      0.040450
     36 H221        3.0860    0.5670    1.0940 hc        1 MA5      0.039700
     37 H222        1.5320    1.4640    1.3150 hc        1 MA5      0.039700
     38 H121        1.8940   -0.0630    3.2190 hc        1 MA5      0.040450
     39 H122        2.1230   -1.4680    2.1030 hc        1 MA5      0.040450
     40 H621       -0.1600   -1.4860    3.0500 hc        1 MA5      0.040450
     41 H622       -0.4520    0.2070    2.4840 hc        1 MA5      0.040450
     42 H52         0.1130   -2.2630    0.7050 hc        1 MA5      0.050700
     43 H611       -2.2610   -1.6220   -0.1570 hc        1 MA5      0.055700
     44 H612       -2.4190   -0.5870    1.3140 hc        1 MA5      0.055700
     45 H111       -2.0470   -2.5860    2.7920 h1        1 MA5      0.039200
     46 H112       -1.7780   -3.6370    1.3160 h1        1 MA5      0.039200
     47 H10        -3.9220   -3.9530    3.3420 h2        1 MA5      0.054700
     48 H20        -6.0360   -3.6930    1.0320 h1        1 MA5      0.079700
     49 H3         -5.9160   -2.0170    2.6070 ho        1 MA5      0.426000
     50 H30        -6.2950   -5.2790    3.7140 h1        1 MA5      0.062700
     51 H2         -8.1750   -4.3980    2.6630 ho        1 MA5      0.427000
     52 H50        -3.9750   -6.4010    3.1730 h1        1 MA5      0.062700
     53 H601       -3.8170   -7.3770    0.2090 h1        1 MA5      0.065200
     54 H602       -3.7510   -8.4080    1.7360 h1        1 MA5      0.065200
     55 H60        -1.8660   -6.4230    1.0310 ho        1 MA5      0.412000
     56 H40        -6.0290   -6.3870    0.8020 h1        1 MA5      0.087700
     57 H1         -8.2020   -7.2930    2.0330 h2        1 MA5      0.126700
     58 H5         -5.3670   -9.3980    0.8460 h1        1 MA5      0.074700
     59 H61        -5.8370  -10.8780   -1.1610 h1        1 MA5      0.064700
     60 H62        -7.5480  -10.1970   -1.2430 h1        1 MA5      0.064700
     61 HO6        -6.4910   -8.1490   -1.5190 ho        1 MA5      0.408000
     62 H7         -7.9280  -11.1870    1.0770 h1        1 MA5      0.059700
     63 HO4        -6.2150  -12.6220    1.8090 ho        1 MA5      0.426000
     64 H6         -5.8710  -10.2260    3.2240 h1        1 MA5      0.062700
     65 HO3        -7.6130  -11.2500    4.4930 ho        1 MA5      0.424000
     66 H4         -8.8900   -9.4990    2.8890 h1        1 MA5      0.102700
     67 HO2        -6.8910   -8.3820    4.5450 ho        1 MA5      0.419000
@<TRIPOS>BOND
     1    1    2 1   
     2    1    6 1   
     3    1   32 1   
     4    1   33 1   
     5    2    3 1   
     6    2   34 1   
     7    2   35 1   
     8    3    4 1   
     9    3   36 1   
    10    3   37 1   
    11    4    5 1   
    12    4   38 1   
    13    4   39 1   
    14    5    6 1   
    15    5   40 1   
    16    5   41 1   
    17    6    7 1   
    18    6   42 1   
    19    7    8 1   
    20    7   43 1   
    21    7   44 1   
    22    8    9 1   
    23    8   45 1   
    24    8   46 1   
    25    9   10 1   
    26   10   11 1   
    27   10   15 1   
    28   10   47 1   
    29   11   12 1   
    30   11   13 1   
    31   11   48 1   
    32   12   49 1   
    33   13   14 1   
    34   13   19 1   
    35   13   50 1   
    36   14   51 1   
    37   15   16 1   
    38   16   17 1   
    39   16   19 1   
    40   16   52 1   
    41   17   18 1   
    42   17   53 1   
    43   17   54 1   
    44   18   55 1   
    45   19   20 1   
    46   19   56 1   
    47   20   21 1   
    48   21   22 1   
    49   21   30 1   
    50   21   57 1   
    51   22   23 1   
    52   23   24 1   
    53   23   26 1   
    54   23   58 1   
    55   24   25 1   
    56   24   59 1   
    57   24   60 1   
    58   25   61 1   
    59   26   27 1   
    60   26   28 1   
    61   26   62 1   
    62   27   63 1   
    63   28   29 1   
    64   28   30 1   
    65   28   64 1   
    66   29   65 1   
    67   30   31 1   
    68   30   66 1   
    69   31   67 1   
@<TRIPOS>SUBSTRUCTURE
     1 MA5         1 TEMP              0 ****  ****    0 ROOT
