@<TRIPOS>MOLECULE
MA6
   41    43     1     0     0
SMALL
bcc


@<TRIPOS>ATOM
      1 C2         -1.4440   -1.0790    4.7530 ca        1 MA6      0.629900
      2 C4         -0.7840   -0.5060    2.6650 ca        1 MA6      0.423800
      3 C5          0.4550    0.0690    3.2190 ca        1 MA6     -0.159200
      4 P           0.6600    1.0670   -4.5460 p5        1 MA6      1.333900
      5 OP1         0.8740    0.7430   -5.9910 o         1 MA6     -0.929167
      6 OP2        -0.7260    1.5350   -4.1420 o         1 MA6     -0.929167
      7 OP3         1.7680    1.7310   -3.7820 o         1 MA6     -0.929167
      8 O5'         0.6070   -0.4990   -3.7720 os        1 MA6     -0.553200
      9 C5'         0.4850   -0.4340   -2.4130 c3        1 MA6      0.228400
     10 C4'        -0.9720   -0.7320   -1.9830 c3        1 MA6      0.049100
     11 O4'        -0.9840   -1.4680   -0.7320 os        1 MA6     -0.432600
     12 C1'        -1.6680   -0.7540    0.2820 c3        1 MA6      0.215800
     13 N9         -0.7150   -0.2870    1.2850 na        1 MA6     -0.256000
     14 N3         -1.7480   -1.0890    3.4380 nb        1 MA6     -0.695000
     15 N1         -0.3460   -0.5900    5.3930 nb        1 MA6     -0.791000
     16 C6          0.6240    0.0060    4.6350 ca        1 MA6      0.680200
     17 N6          1.7500    0.6290    5.2430 nh        1 MA6     -0.728300
     18 C9          1.6770    0.8520    6.6680 c3        1 MA6      0.179100
     19 C10         3.0450    0.1570    4.8090 c3        1 MA6      0.179100
     20 N7          1.2290    0.5900    2.1750 nc        1 MA6     -0.581100
     21 C8          0.5220    0.3540    1.0540 cd        1 MA6      0.460700
     22 C2'        -2.4680    0.4080   -0.3990 c3        1 MA6      0.102100
     23 O2'        -3.8360    0.0620   -0.3850 oh        1 MA6     -0.615800
     24 C3'        -1.8350    0.5310   -1.8030 c3        1 MA6      0.128100
     25 O3'        -2.8630    0.5810   -2.7630 oh        1 MA6     -0.682800
     26 H2         -2.1990   -1.5450    5.4190 h5        1 MA6      0.030100
     27 H5'         0.7970    0.5810   -2.0300 h1        1 MA6     -0.002300
     28 H5''        1.1350   -1.2230   -1.9310 h1        1 MA6     -0.002300
     29 H4'        -1.4430   -1.4250   -2.7320 h1        1 MA6      0.080700
     30 H1'        -2.3640   -1.4840    0.7890 h2        1 MA6      0.093700
     31 H91         2.5310    1.5200    6.9580 h1        1 MA6      0.035700
     32 H92         0.7130    1.3680    6.9180 h1        1 MA6      0.035700
     33 H93         1.7440   -0.0950    7.2710 h1        1 MA6      0.035700
     34 H101        3.0440   -0.0940    3.7180 h1        1 MA6      0.035700
     35 H102        3.7850    0.9830    4.9850 h1        1 MA6      0.035700
     36 H103        3.3790   -0.7490    5.3860 h1        1 MA6      0.035700
     37 H8          0.8370    0.6080    0.0220 h5        1 MA6      0.126800
     38 H2'        -2.3940    1.3690    0.1750 h1        1 MA6      0.067700
     39 HO2'       -4.0650   -0.2720   -1.2630 ho        1 MA6      0.431000
     40 H3'        -1.2050    1.4620   -1.8740 h1        1 MA6      0.116700
     41 HO3'       -2.4320    0.9200   -3.5860 ho        1 MA6      0.516000
@<TRIPOS>BOND
     1    1   14 ar  
     2    1   15 ar  
     3    1   26 1   
     4    2    3 ar  
     5    2   13 1   
     6    2   14 ar  
     7    3   16 ar  
     8    3   20 1   
     9    4    5 1   
    10    4    6 1   
    11    4    7 1   
    12    4    8 1   
    13    8    9 1   
    14    9   10 1   
    15    9   27 1   
    16    9   28 1   
    17   10   11 1   
    18   10   24 1   
    19   10   29 1   
    20   11   12 1   
    21   12   13 1   
    22   12   22 1   
    23   12   30 1   
    24   13   21 1   
    25   15   16 ar  
    26   16   17 1   
    27   17   18 1   
    28   17   19 1   
    29   18   31 1   
    30   18   32 1   
    31   18   33 1   
    32   19   34 1   
    33   19   35 1   
    34   19   36 1   
    35   20   21 2   
    36   21   37 1   
    37   22   23 1   
    38   22   24 1   
    39   22   38 1   
    40   23   39 1   
    41   24   25 1   
    42   24   40 1   
    43   25   41 1   
@<TRIPOS>SUBSTRUCTURE
     1 MA6         1 TEMP              0 ****  ****    0 ROOT
