@<TRIPOS>MOLECULE
MA9
   54    57     1     0     0
SMALL
bcc


@<TRIPOS>ATOM
      1 C5         -0.3500    0.3560    0.0670 ca        1 MA9     -0.380500
      2 C6          0.4530   -0.7160   -0.3380 ca        1 MA9      0.007000
      3 C7          0.9090   -1.6530    0.5860 ca        1 MA9     -0.157000
      4 C8          0.5620   -1.5380    1.9320 ca        1 MA9     -0.016000
      5 C10        -0.6580   -0.3460    3.7650 cp        1 MA9      0.530800
      6 C15        -2.7750    4.5070    5.9600 c3        1 MA9     -0.078400
      7 C17        -3.0710    6.0030    7.9720 ca        1 MA9     -0.163300
      8 C21        -3.5020    8.6480    8.8930 ca        1 MA9      0.151900
      9 C24        -3.8460    6.2610    9.1290 ca        1 MA9      0.094900
     10 C26        -1.7510    3.8610    8.1160 c3        1 MA9      0.108500
     11 C28        -1.7360    2.3810    7.6380 c3        1 MA9      0.172800
     12 F25        -4.3850    5.2230    9.8230 f         1 MA9     -0.152900
     13 C23        -4.0720    7.5680    9.5840 ca        1 MA9     -0.164000
     14 F22        -3.7090    9.9090    9.3170 f         1 MA9     -0.086900
     15 C19        -2.7010    8.4010    7.7430 ca        1 MA9      0.107900
     16 F          -2.1380    9.4300    7.0780 f         1 MA9     -0.092900
     17 C18        -2.5030    7.0830    7.2990 ca        1 MA9     -0.110000
     18 C16        -2.9420    4.6010    7.4720 c3        1 MA9     -0.028400
     19 C14        -2.7050    3.0470    5.5150 c3        1 MA9      0.161800
     20 N27        -1.8210    3.9080    9.6150 nz        1 MA9     -0.838600
     21 N          -1.6270    2.3270    6.1910 nh        1 MA9     -0.727300
     22 C12        -1.3700    1.0260    5.6410 ca        1 MA9      0.622200
     23 C11        -0.9300    0.9400    4.2930 ca        1 MA9     -0.358600
     24 N29        -1.5000   -0.0990    6.4140 nb        1 MA9     -0.755000
     25 C30        -1.1820   -1.2710    5.8110 ca        1 MA9      0.668900
     26 N31        -0.7770   -1.4640    4.5330 nb        1 MA9     -0.686000
     27 C9         -0.2510   -0.4760    2.3560 cp        1 MA9     -0.199500
     28 C32        -0.7040    0.4560    1.4160 ca        1 MA9     -0.003000
     29 S          -0.9420    1.4890   -1.0330 sy        1 MA9      1.397300
     30 O          -1.4680    0.8460   -2.1550 o         1 MA9     -0.652800
     31 O4         -1.7680    2.3930   -0.3420 o         1 MA9     -0.652800
     32 C           0.4970    2.2650   -1.4540 c3        1 MA9     -0.364300
     33 H6          0.7140   -0.8280   -1.4060 ha        1 MA9      0.154000
     34 H7          1.5390   -2.4930    0.2530 ha        1 MA9      0.156000
     35 H8          0.9240   -2.2880    2.6550 ha        1 MA9      0.162000
     36 H151       -1.8470    5.0440    5.6310 hc        1 MA9      0.082700
     37 H152       -3.6540    4.9930    5.4610 hc        1 MA9      0.082700
     38 H26        -0.7850    4.3700    7.8200 hx        1 MA9      0.124700
     39 H281       -2.6690    1.8700    8.0170 h1        1 MA9      0.070700
     40 H282       -0.8370    1.8610    8.0770 h1        1 MA9      0.070700
     41 H23        -4.7020    7.7500   10.4700 ha        1 MA9      0.192000
     42 H18        -1.8950    6.9300    6.3910 ha        1 MA9      0.175000
     43 H16        -3.8920    4.0460    7.7420 hc        1 MA9      0.089700
     44 H141       -3.7050    2.5570    5.6990 h1        1 MA9      0.072700
     45 H142       -2.5050    3.0190    4.4060 h1        1 MA9      0.072700
     46 H271       -1.0410    3.3850   10.0210 hn        1 MA9      0.462800
     47 H272       -2.7090    3.5010    9.9350 hn        1 MA9      0.462800
     48 H11        -0.7840    1.8380    3.6800 ha        1 MA9      0.168000
     49 H30        -1.2780   -2.1840    6.4400 h5        1 MA9      0.069100
     50 H32        -1.3730    1.2810    1.7250 ha        1 MA9      0.159000
     51 H1          0.3280    3.0100   -2.2760 h1        1 MA9      0.118700
     52 H2          0.9560    2.8360   -0.6110 h1        1 MA9      0.118700
     53 H3          1.2850    1.5680   -1.8320 h1        1 MA9      0.118700
     54 H273       -1.7880    4.8850    9.9250 hn        1 MA9      0.462800
@<TRIPOS>BOND
     1    1    2 ar  
     2    1   28 ar  
     3    1   29 1   
     4    2    3 ar  
     5    2   33 1   
     6    3    4 ar  
     7    3   34 1   
     8    4   27 ar  
     9    4   35 1   
    10    5   23 ar  
    11    5   26 ar  
    12    5   27 1   
    13    6   18 1   
    14    6   19 1   
    15    6   36 1   
    16    6   37 1   
    17    7    9 ar  
    18    7   17 ar  
    19    7   18 1   
    20    8   13 ar  
    21    8   14 1   
    22    8   15 ar  
    23    9   12 1   
    24    9   13 ar  
    25   10   11 1   
    26   10   18 1   
    27   10   20 1   
    28   10   38 1   
    29   11   21 1   
    30   11   39 1   
    31   11   40 1   
    32   13   41 1   
    33   15   16 1   
    34   15   17 ar  
    35   17   42 1   
    36   18   43 1   
    37   19   21 1   
    38   19   44 1   
    39   19   45 1   
    40   20   46 1   
    41   20   47 1   
    42   20   54 1   
    43   21   22 1   
    44   22   23 ar  
    45   22   24 ar  
    46   23   48 1   
    47   24   25 ar  
    48   25   26 ar  
    49   25   49 1   
    50   27   28 ar  
    51   28   50 1   
    52   29   30 2   
    53   29   31 2   
    54   29   32 1   
    55   32   51 1   
    56   32   52 1   
    57   32   53 1   
@<TRIPOS>SUBSTRUCTURE
     1 MA9         1 TEMP              0 ****  ****    0 ROOT
