@<TRIPOS>MOLECULE
MA9
   54    57     1     0     0
SMALL
bcc


@<TRIPOS>ATOM
      1 C5         -0.3390    0.3680    0.0640 ca        1 MA9     -0.380500
      2 C6          0.4680   -0.7020   -0.3420 ca        1 MA9      0.007000
      3 C7          0.9270   -1.6380    0.5810 ca        1 MA9     -0.157000
      4 C8          0.5780   -1.5270    1.9270 ca        1 MA9     -0.016000
      5 C10        -0.6470   -0.3420    3.7610 cp        1 MA9      0.530800
      6 C15        -2.7790    4.5030    5.9620 c3        1 MA9     -0.078400
      7 C17        -3.0830    5.9940    7.9760 ca        1 MA9     -0.163300
      8 C21        -3.5210    8.6360    8.9020 ca        1 MA9      0.151900
      9 C24        -3.8600    6.2480    9.1320 ca        1 MA9      0.094900
     10 C26        -1.7580    3.8550    8.1180 c3        1 MA9      0.108500
     11 C28        -1.7380    2.3760    7.6370 c3        1 MA9      0.172800
     12 F25        -4.3980    5.2080    9.8220 f         1 MA9     -0.152900
     13 C23        -4.0900    7.5530    9.5880 ca        1 MA9     -0.164000
     14 F22        -3.7310    9.8960    9.3280 f         1 MA9     -0.086900
     15 C19        -2.7160    8.3930    7.7520 ca        1 MA9      0.107900
     16 F          -2.1540    9.4250    7.0910 f         1 MA9     -0.092900
     17 C18        -2.5150    7.0770    7.3060 ca        1 MA9     -0.110000
     18 C16        -2.9500    4.5930    7.4730 c3        1 MA9     -0.028400
     19 C14        -2.7050    3.0440    5.5140 c3        1 MA9      0.161800
     20 N27        -1.8320    3.8980    9.6170 n4        1 MA9     -0.838600
     21 N          -1.6260    2.3250    6.1900 nh        1 MA9     -0.727300
     22 C12        -1.3650    1.0250    5.6390 ca        1 MA9      0.622200
     23 C11        -0.9230    0.9430    4.2910 ca        1 MA9     -0.358600
     24 N29        -1.4920   -0.1010    6.4090 nb        1 MA9     -0.756000
     25 C30        -1.1700   -1.2710    5.8050 ca        1 MA9      0.668900
     26 N31        -0.7640   -1.4600    4.5270 nb        1 MA9     -0.686000
     27 C9         -0.2390   -0.4680    2.3520 cp        1 MA9     -0.199500
     28 C32        -0.6940    0.4640    1.4130 ca        1 MA9     -0.003000
     29 S          -0.9340    1.5000   -1.0340 sy        1 MA9      1.397300
     30 O          -1.4580    0.8570   -2.1580 o         1 MA9     -0.652800
     31 O4         -1.7630    2.4010   -0.3430 o         1 MA9     -0.652800
     32 C           0.5030    2.2810   -1.4550 c3        1 MA9     -0.364300
     33 H6          0.7300   -0.8120   -1.4100 ha        1 MA9      0.154000
     34 H7          1.5590   -2.4760    0.2480 ha        1 MA9      0.156000
     35 H8          0.9420   -2.2770    2.6490 ha        1 MA9      0.162000
     36 H151       -1.8520    5.0420    5.6350 hc        1 MA9      0.082700
     37 H152       -3.6590    4.9870    5.4610 hc        1 MA9      0.082700
     38 H26        -0.7920    4.3670    7.8250 hx        1 MA9      0.124700
     39 H281       -2.6710    1.8610    8.0130 h1        1 MA9      0.070700
     40 H282       -0.8390    1.8580    8.0770 h1        1 MA9      0.070700
     41 H23        -4.7220    7.7330   10.4740 ha        1 MA9      0.192000
     42 H18        -1.9050    6.9260    6.3990 ha        1 MA9      0.175000
     43 H16        -3.8990    4.0360    7.7400 hc        1 MA9      0.089700
     44 H141       -2.5030    3.0180    4.4050 h1        1 MA9      0.072700
     45 H142       -3.7040    2.5510    5.6960 h1        1 MA9      0.072700
     46 H271       -1.8010    4.8750    9.9290 hn        1 MA9      0.462800
     47 H272       -1.0510    3.3770   10.0240 hn        1 MA9      0.462800
     48 H11        -0.7800    1.8430    3.6790 ha        1 MA9      0.168000
     49 H30        -1.2640   -2.1850    6.4320 h5        1 MA9      0.069100
     50 H32        -1.3660    1.2870    1.7230 ha        1 MA9      0.159000
     51 H1          1.2910    1.5870   -1.8370 h1        1 MA9      0.118700
     52 H2          0.9620    2.8490   -0.6090 h1        1 MA9      0.118700
     53 H3          0.3310    3.0280   -2.2730 h1        1 MA9      0.118700
     54 H273       -2.7190    3.4890    9.9340 hn        1 MA9      0.462800
@<TRIPOS>BOND
     1    1    2 ar  
     2    1   28 ar  
     3    1   29 1   
     4    2    3 ar  
     5    2   33 1   
     6    3    4 ar  
     7    3   34 1   
     8    4   27 ar  
     9    4   35 1   
    10    5   23 ar  
    11    5   26 ar  
    12    5   27 1   
    13    6   18 1   
    14    6   19 1   
    15    6   36 1   
    16    6   37 1   
    17    7    9 ar  
    18    7   17 ar  
    19    7   18 1   
    20    8   13 ar  
    21    8   14 1   
    22    8   15 ar  
    23    9   12 1   
    24    9   13 ar  
    25   10   11 1   
    26   10   18 1   
    27   10   20 1   
    28   10   38 1   
    29   11   21 1   
    30   11   39 1   
    31   11   40 1   
    32   13   41 1   
    33   15   16 1   
    34   15   17 ar  
    35   17   42 1   
    36   18   43 1   
    37   19   21 1   
    38   19   44 1   
    39   19   45 1   
    40   20   46 1   
    41   20   47 1   
    42   20   54 1   
    43   21   22 1   
    44   22   23 ar  
    45   22   24 ar  
    46   23   48 1   
    47   24   25 ar  
    48   25   26 ar  
    49   25   49 1   
    50   27   28 ar  
    51   28   50 1   
    52   29   30 2   
    53   29   31 2   
    54   29   32 1   
    55   32   51 1   
    56   32   52 1   
    57   32   53 1   
@<TRIPOS>SUBSTRUCTURE
     1 MA9         1 TEMP              0 ****  ****    0 ROOT
