@<TRIPOS>MOLECULE
MA9
   53    56     1     0     0
SMALL
bcc


@<TRIPOS>ATOM
      1 C5          3.6850   -6.2160   -2.0680 ca        1 MA9     -0.391500
      2 C6          4.9750   -6.7480   -1.9340 ca        1 MA9     -0.008000
      3 C7          5.6950   -6.5800   -0.7550 ca        1 MA9     -0.162000
      4 C8          5.1360   -5.8790    0.3130 ca        1 MA9     -0.022000
      5 C10         3.2350   -4.6050    1.3210 cp        1 MA9      0.506800
      6 C15        -0.7460   -0.5810    0.5060 c3        1 MA9     -0.077400
      7 C17        -1.8430    1.5180    1.2550 ca        1 MA9     -0.076300
      8 C21        -3.0740    3.9220    0.4190 ca        1 MA9      0.118900
      9 C24        -3.1850    1.8030    1.5950 ca        1 MA9      0.140900
     10 C26         0.0220    0.5160    2.6140 c3        1 MA9      0.170500
     11 C28         0.6340   -0.8550    3.0350 c3        1 MA9      0.147800
     12 F25        -3.9090    0.9260    2.3320 f         1 MA9     -0.134900
     13 C23        -3.7990    2.9960    1.1790 ca        1 MA9     -0.182000
     14 F22        -3.6560    5.0730    0.0130 f         1 MA9     -0.119900
     15 C19        -1.7240    3.6470    0.0750 ca        1 MA9      0.082900
     16 F          -1.0160    4.5360   -0.6580 f         1 MA9     -0.123900
     17 C18        -1.1290    2.4490    0.5000 ca        1 MA9     -0.113000
     18 C16        -1.1960    0.2470    1.7020 c3        1 MA9     -0.021400
     19 C14        -0.1020   -1.8900    0.9570 c3        1 MA9      0.185800
     20 N27        -0.3100    1.3590    3.7410 n3        1 MA9     -0.901800
     21 N           0.9970   -1.6750    1.8910 nh        1 MA9     -0.733300
     22 C12         1.7940   -2.8210    2.1480 ca        1 MA9      0.659200
     23 C11         2.3830   -3.5170    1.0460 ca        1 MA9     -0.379600
     24 N29         2.0690   -3.2160    3.4350 nb        1 MA9     -0.746000
     25 C30         2.9150   -4.2640    3.5720 ca        1 MA9      0.661900
     26 N31         3.5140   -4.9900    2.5980 nb        1 MA9     -0.714000
     27 C9          3.8450   -5.3430    0.2010 cp        1 MA9     -0.178500
     28 C32         3.1280   -5.5250   -0.9870 ca        1 MA9     -0.002000
     29 S           2.8070   -6.4400   -3.4790 sy        1 MA9      1.398300
     30 O           3.1280   -7.6730   -4.0600 o         1 MA9     -0.656300
     31 O4          1.4520   -6.1590   -3.2460 o         1 MA9     -0.656300
     32 C           3.4670   -5.2020   -4.4280 c3        1 MA9     -0.358300
     33 H6          5.4110   -7.3220   -2.7710 ha        1 MA9      0.153000
     34 H7          6.7050   -7.0070   -0.6620 ha        1 MA9      0.148000
     35 H8          5.7100   -5.7530    1.2460 ha        1 MA9      0.159000
     36 H151       -0.0240    0.0080   -0.1170 hc        1 MA9      0.060200
     37 H152       -1.6300   -0.8310   -0.1350 hc        1 MA9      0.060200
     38 H26         0.7970    1.0750    2.0100 h1        1 MA9      0.072700
     39 H281        1.5680   -0.6510    3.6310 h1        1 MA9      0.053200
     40 H282       -0.0990   -1.3910    3.7050 h1        1 MA9      0.053200
     41 H23        -4.8440    3.2050    1.4530 ha        1 MA9      0.170000
     42 H18        -0.0780    2.2560    0.2350 ha        1 MA9      0.159000
     43 H16        -1.9480   -0.3590    2.2870 hc        1 MA9      0.069700
     44 H141       -0.8980   -2.5410    1.4250 h1        1 MA9      0.048200
     45 H142        0.2890   -2.4260    0.0480 h1        1 MA9      0.048200
     46 H271        0.4870    1.4810    4.3330 hn        1 MA9      0.355800
     47 H272       -1.0630    0.9720    4.2760 hn        1 MA9      0.355800
     48 H11         2.2060   -3.2000    0.0110 ha        1 MA9      0.158000
     49 H30         3.1350   -4.5720    4.6180 h5        1 MA9      0.056100
     50 H32         2.0950   -5.1400   -1.0740 ha        1 MA9      0.161000
     51 H1          4.5780   -5.2660   -4.5230 h1        1 MA9      0.114367
     52 H2          3.0620   -5.2370   -5.4720 h1        1 MA9      0.114367
     53 H3          3.2370   -4.1810   -4.0380 h1        1 MA9      0.114367
@<TRIPOS>BOND
     1    1    2 ar  
     2    1   28 ar  
     3    1   29 1   
     4    2    3 ar  
     5    2   33 1   
     6    3    4 ar  
     7    3   34 1   
     8    4   27 ar  
     9    4   35 1   
    10    5   23 ar  
    11    5   26 ar  
    12    5   27 1   
    13    6   18 1   
    14    6   19 1   
    15    6   36 1   
    16    6   37 1   
    17    7    9 ar  
    18    7   17 ar  
    19    7   18 1   
    20    8   13 ar  
    21    8   14 1   
    22    8   15 ar  
    23    9   12 1   
    24    9   13 ar  
    25   10   11 1   
    26   10   18 1   
    27   10   20 1   
    28   10   38 1   
    29   11   21 1   
    30   11   39 1   
    31   11   40 1   
    32   13   41 1   
    33   15   16 1   
    34   15   17 ar  
    35   17   42 1   
    36   18   43 1   
    37   19   21 1   
    38   19   44 1   
    39   19   45 1   
    40   20   46 1   
    41   20   47 1   
    42   21   22 1   
    43   22   23 ar  
    44   22   24 ar  
    45   23   48 1   
    46   24   25 ar  
    47   25   26 ar  
    48   25   49 1   
    49   27   28 ar  
    50   28   50 1   
    51   29   30 2   
    52   29   31 2   
    53   29   32 1   
    54   32   51 1   
    55   32   52 1   
    56   32   53 1   
@<TRIPOS>SUBSTRUCTURE
     1 MA9         1 TEMP              0 ****  ****    0 ROOT
