@<TRIPOS>MOLECULE
MA9
   54    57     1     0     0
SMALL
bcc


@<TRIPOS>ATOM
      1 C5         -0.4120    0.3340    0.0630 ca        1 MA9     -0.380500
      2 C6          0.4020   -0.7280   -0.3500 ca        1 MA9      0.007000
      3 C7          0.8950   -1.6470    0.5730 ca        1 MA9     -0.157000
      4 C8          0.5750   -1.5270    1.9250 ca        1 MA9     -0.016000
      5 C10        -0.6270   -0.3400    3.7730 cp        1 MA9      0.530800
      6 C15        -2.7830    4.4950    5.9720 c3        1 MA9     -0.078400
      7 C17        -3.0620    6.0030    7.9760 ca        1 MA9     -0.163300
      8 C21        -3.5200    8.6490    8.8840 ca        1 MA9      0.151900
      9 C24        -3.8160    6.2580    9.1480 ca        1 MA9      0.094900
     10 C26        -1.7010    3.8870    8.1100 c3        1 MA9      0.108500
     11 C28        -1.6700    2.4030    7.6440 c3        1 MA9      0.172800
     12 F25        -4.3210    5.2170    9.8620 f         1 MA9     -0.152900
     13 C23        -4.0550    7.5650    9.5960 ca        1 MA9     -0.164000
     14 F22        -3.7400    9.9090    9.3010 f         1 MA9     -0.086900
     15 C19        -2.7400    8.4050    7.7180 ca        1 MA9      0.107900
     16 F          -2.2100    9.4380    7.0330 f         1 MA9     -0.092900
     17 C18        -2.5280    7.0870    7.2820 ca        1 MA9     -0.110000
     18 C16        -2.9190    4.5990    7.4860 c3        1 MA9     -0.028400
     19 C14        -2.6960    3.0320    5.5380 c3        1 MA9      0.161800
     20 N27        -1.7400    3.9460    9.6100 n4        1 MA9     -0.838600
     21 N          -1.5910    2.3380    6.1960 nh        1 MA9     -0.727300
     22 C12        -1.3230    1.0360    5.6520 ca        1 MA9      0.622200
     23 C11        -0.9100    0.9450    4.2960 ca        1 MA9     -0.358600
     24 N29        -1.4160   -0.0830    6.4380 nb        1 MA9     -0.755000
     25 C30        -1.0900   -1.2550    5.8380 ca        1 MA9      0.668900
     26 N31        -0.7100   -1.4520    4.5530 nb        1 MA9     -0.686000
     27 C9         -0.2490   -0.4750    2.3570 cp        1 MA9     -0.199500
     28 C32        -0.7380    0.4400    1.4190 ca        1 MA9     -0.003000
     29 S          -1.0480    1.4460   -1.0330 sy        1 MA9      1.397300
     30 O          -1.5860    0.7830   -2.1380 o         1 MA9     -0.652800
     31 O4         -1.8750    2.3410   -0.3330 o         1 MA9     -0.652800
     32 C           0.3680    2.2440   -1.4930 c3        1 MA9     -0.364300
     33 H6          0.6410   -0.8450   -1.4220 ha        1 MA9      0.154000
     34 H7          1.5320   -2.4790    0.2340 ha        1 MA9      0.156000
     35 H8          0.9650   -2.2640    2.6460 ha        1 MA9      0.162000
     36 H151       -3.6810    4.9600    5.4870 hc        1 MA9      0.082700
     37 H152       -1.8720    5.0450    5.6170 hc        1 MA9      0.082700
     38 H26        -0.7510    4.4100    7.7880 hx        1 MA9      0.124700
     39 H281       -2.5850    1.8780    8.0480 h1        1 MA9      0.070700
     40 H282       -0.7520    1.9030    8.0680 h1        1 MA9      0.070700
     41 H23        -4.6690    7.7440   10.4940 ha        1 MA9      0.192000
     42 H18        -1.9370    6.9360    6.3620 ha        1 MA9      0.175000
     43 H16        -3.8530    4.0300    7.7810 hc        1 MA9      0.089700
     44 H141       -2.5200    2.9980    4.4250 h1        1 MA9      0.072700
     45 H142       -3.6830    2.5260    5.7480 h1        1 MA9      0.072700
     46 H271       -2.6130    3.5260    9.9530 hn        1 MA9      0.462800
     47 H272       -1.7170    4.9260    9.9110 hn        1 MA9      0.462800
     48 H11        -0.7940    1.8410    3.6720 ha        1 MA9      0.168000
     49 H30        -1.1570   -2.1640    6.4770 h5        1 MA9      0.069100
     50 H32        -1.4150    1.2560    1.7350 ha        1 MA9      0.159000
     51 H1          0.1670    2.9770   -2.3170 h1        1 MA9      0.118700
     52 H2          1.1590    1.5580   -1.8820 h1        1 MA9      0.118700
     53 H3          0.8340    2.8300   -0.6640 h1        1 MA9      0.118700
     54 H273       -0.9420    3.4400   10.0030 hn        1 MA9      0.462800
@<TRIPOS>BOND
     1    1    2 ar  
     2    1   28 ar  
     3    1   29 1   
     4    2    3 ar  
     5    2   33 1   
     6    3    4 ar  
     7    3   34 1   
     8    4   27 ar  
     9    4   35 1   
    10    5   23 ar  
    11    5   26 ar  
    12    5   27 1   
    13    6   18 1   
    14    6   19 1   
    15    6   36 1   
    16    6   37 1   
    17    7    9 ar  
    18    7   17 ar  
    19    7   18 1   
    20    8   13 ar  
    21    8   14 1   
    22    8   15 ar  
    23    9   12 1   
    24    9   13 ar  
    25   10   11 1   
    26   10   18 1   
    27   10   20 1   
    28   10   38 1   
    29   11   21 1   
    30   11   39 1   
    31   11   40 1   
    32   13   41 1   
    33   15   16 1   
    34   15   17 ar  
    35   17   42 1   
    36   18   43 1   
    37   19   21 1   
    38   19   44 1   
    39   19   45 1   
    40   20   46 1   
    41   20   47 1   
    42   20   54 1   
    43   21   22 1   
    44   22   23 ar  
    45   22   24 ar  
    46   23   48 1   
    47   24   25 ar  
    48   25   26 ar  
    49   25   49 1   
    50   27   28 ar  
    51   28   50 1   
    52   29   30 2   
    53   29   31 2   
    54   29   32 1   
    55   32   51 1   
    56   32   52 1   
    57   32   53 1   
@<TRIPOS>SUBSTRUCTURE
     1 MA9         1 TEMP              0 ****  ****    0 ROOT
