@<TRIPOS>MOLECULE
MA9
   53    46     1     0     0
SMALL
bcc


@<TRIPOS>ATOM
      1 C5          3.6060   -3.3410   -2.7530 c1        1 MA9     -0.834000
      2 C6          3.7370   -2.8120   -4.0270 c2        1 MA9     -0.009000
      3 C7          2.7750   -1.9430   -4.5190 c1        1 MA9     -0.160000
      4 C8          1.6810   -1.6040   -3.7370 c1        1 MA9     -0.050000
      5 C10         0.4900   -1.7420   -1.6540 c1        1 MA9      0.068000
      6 C15        -1.2360    3.2760    0.7250 c3        1 MA9     -0.156000
      7 C17        -2.9850    2.6950    2.3470 c1        1 MA9     -0.080000
      8 C21        -5.6570    2.0660    2.7440 c1        1 MA9      0.067000
      9 C24        -3.9300    3.0490    1.3960 c2        1 MA9      0.094000
     10 C26        -0.6360    2.0830    2.7200 c3        1 MA9     -0.020000
     11 C28        -0.5990    0.8210    1.8840 c3        1 MA9     -0.053000
     12 F25        -4.2290    4.0840    0.5980 f         1 MA9     -0.099000
     13 C23        -5.2660    2.7340    1.5950 c1        1 MA9     -0.181000
     14 F22        -6.9500    1.7830    2.9470 f         1 MA9     -0.083000
     15 C19        -4.7130    1.7120    3.6950 c1        1 MA9      0.067000
     16 F          -5.0990    1.1210    4.8340 f         1 MA9     -0.083000
     17 C18        -3.3770    2.0270    3.4970 c1        1 MA9     -0.125000
     18 C16        -1.6300    3.1500    2.2110 c2        1 MA9     -0.106000
     19 C14        -1.1700    1.9560   -0.0130 c3        1 MA9     -0.053000
     20 N27         0.6790    2.6580    2.7340 n3        1 MA9     -0.337000
     21 N          -0.3630    1.0420    0.5730 n3        1 MA9     -0.228000
     22 C12        -0.4440   -0.1870   -0.1370 c2        1 MA9      0.135000
     23 C11         0.5740   -0.5660   -0.9640 c2        1 MA9     -0.251000
     24 N29        -1.5250   -0.9690   -0.0030 n1        1 MA9     -0.215000
     25 C30        -1.6080   -2.1420   -0.6920 c1        1 MA9     -0.001000
     26 N31        -0.5920   -2.5220   -1.5180 n1        1 MA9     -0.179000
     27 C9          1.5500   -2.1340   -2.4620 c1        1 MA9     -0.070000
     28 C32         2.5120   -3.0030   -1.9700 c1        1 MA9      0.023000
     29 S           4.7950   -4.5130   -2.1540 ss        1 MA9      2.861000
     30 O           4.3180   -5.1840   -0.9760 o         1 MA9     -0.933500
     31 O4          4.9440   -5.6160   -3.0620 o         1 MA9     -0.933500
     32 C           6.3480   -3.7120   -1.8530 c2        1 MA9     -0.938000
     33 H6          4.5070   -3.0500   -4.5770 ha        1 MA9      0.161000
     34 H7          2.8680   -1.5700   -5.4160 ha        1 MA9      0.146000
     35 H8          1.0040   -0.9930   -4.0830 ha        1 MA9      0.140000
     36 H151       -1.8910    3.8490    0.2780 hc        1 MA9      0.098000
     37 H152       -0.3590    3.7050    0.6720 hc        1 MA9      0.098000
     38 H26        -0.8800    1.8430    3.6340 h1        1 MA9      0.108000
     39 H281       -1.4600    0.3630    1.9730 h1        1 MA9      0.104500
     40 H282        0.1050    0.2360    2.2340 h1        1 MA9      0.104500
     41 H23        -5.9310    2.9830    0.9250 ha        1 MA9      0.172000
     42 H18        -2.7130    1.7780    4.1670 ha        1 MA9      0.166000
     43 H16        -1.4980    3.9980    2.6780 ha        1 MA9      0.104000
     44 H141       -2.0750    1.5830   -0.0670 h1        1 MA9      0.086000
     45 H142       -0.8450    2.1220   -0.9220 h1        1 MA9      0.086000
     46 H271        1.2380    2.1540    2.2120 hn        1 MA9      0.151500
     47 H272        0.6430    3.5120    2.4060 hn        1 MA9      0.151500
     48 H11         1.3610    0.0020   -1.0620 ha        1 MA9      0.156000
     49 H30        -2.3960   -2.7110   -0.5940 ha        1 MA9      0.197000
     50 H32         2.4190   -3.3760   -1.0730 ha        1 MA9      0.172000
     51 H1          6.1950   -2.8710   -1.3740 ha        1 MA9      0.153333
     52 H2          6.7900   -3.5250   -2.7080 ha        1 MA9      0.153333
     53 H3          6.9180   -4.2980   -1.3110 ha        1 MA9      0.153333
@<TRIPOS>BOND
     1    1    2 1   
     2    1   28 1   
     3    2    3 1   
     4    2   33 1   
     5    3   34 1   
     6    4   27 1   
     7    4   35 1   
     8    5   23 1   
     9    6   18 1   
    10    6   19 1   
    11    6   36 1   
    12    6   37 1   
    13    7    9 1   
    14    7   17 1   
    15    8   14 1   
    16    8   15 1   
    17    9   12 1   
    18    9   13 1   
    19   10   11 1   
    20   10   18 1   
    21   10   20 1   
    22   10   38 1   
    23   11   21 1   
    24   11   39 1   
    25   11   40 1   
    26   13   41 1   
    27   15   16 1   
    28   17   42 1   
    29   18   43 1   
    30   19   21 1   
    31   19   44 1   
    32   19   45 1   
    33   20   46 1   
    34   20   47 1   
    35   21   22 1   
    36   22   23 1   
    37   22   24 1   
    38   23   48 1   
    39   25   26 1   
    40   25   49 1   
    41   28   50 1   
    42   29   30 1   
    43   29   31 1   
    44   32   51 1   
    45   32   52 1   
    46   32   53 1   
@<TRIPOS>SUBSTRUCTURE
     1 MA9         1 TEMP              0 ****  ****    0 ROOT
