@<TRIPOS>MOLECULE
MAA
   15    14     1     0     0
SMALL
bcc


@<TRIPOS>ATOM
      1 N          -1.2880   -0.6950   -0.3510 n3        1 MAA     -0.821200
      2 CM         -2.6000   -0.1960   -0.0540 c3        1 MAA      0.169100
      3 CA         -0.2280    0.3010   -0.4310 c3        1 MAA      0.032500
      4 CB         -0.5220    1.6690    0.1750 c3        1 MAA     -0.091100
      5 C           1.1160   -0.1910    0.2150 c         1 MAA      0.911600
      6 O           1.0640   -1.0490    1.1410 o         1 MAA     -0.841800
      7 OXT         2.1770    0.3280   -0.2270 o         1 MAA     -0.841800
      8 H          -1.0210   -1.3900    0.3310 hn        1 MAA      0.378800
      9 HM1        -2.6960    0.3280    0.9390 h1        1 MAA      0.001367
     10 HM2        -2.9120    0.5290   -0.8510 h1        1 MAA      0.001367
     11 HM3        -3.3200   -1.0580   -0.0560 h1        1 MAA      0.001367
     12 HA         -0.0300    0.4500   -1.5330 h1        1 MAA      0.040700
     13 HB1        -0.7510    1.5820    1.2640 hc        1 MAA      0.019367
     14 HB2         0.3870    2.3070    0.0540 hc        1 MAA      0.019367
     15 HB3        -1.3830    2.1680   -0.3310 hc        1 MAA      0.019367
@<TRIPOS>BOND
     1    1    2 1   
     2    1    3 1   
     3    1    8 1   
     4    2    9 1   
     5    2   10 1   
     6    2   11 1   
     7    3    4 1   
     8    3    5 1   
     9    3   12 1   
    10    4   13 1   
    11    4   14 1   
    12    4   15 1   
    13    5    6 1   
    14    5    7 1   
@<TRIPOS>SUBSTRUCTURE
     1 MAA         1 TEMP              0 ****  ****    0 ROOT
