@<TRIPOS>MOLECULE
MAB
   45    46     1     0     0
SMALL
bcc


@<TRIPOS>ATOM
      1 C1A         0.2630    0.5890    3.8440 c3        1 MAB      0.318900
      2 C2A         1.1290    1.0360    2.6480 c3        1 MAB      0.054100
      3 C3A         0.2610    1.2900    1.4070 c3        1 MAB      0.135100
      4 C4A        -0.6070    0.0420    1.1620 c3        1 MAB      0.095100
      5 C5A        -1.4970   -0.1800    2.3950 c3        1 MAB      0.107100
      6 C6A        -2.3820   -1.4200    2.2410 c3        1 MAB      0.139400
      7 O2A         2.0640    0.0270    2.2960 oh        1 MAB     -0.608800
      8 O3A         1.0520    1.6230    0.2910 oh        1 MAB     -0.586800
      9 O4A        -1.4600    0.2920    0.0460 os        1 MAB     -0.411600
     10 O5A        -0.6690   -0.4370    3.5310 os        1 MAB     -0.459600
     11 O6A        -3.2950   -1.5320    3.3080 oh        1 MAB     -0.591800
     12 C1B        -1.1010   -0.3090   -1.1840 c3        1 MAB      0.322900
     13 C2B        -1.5320    0.6640   -2.2990 c3        1 MAB      0.092100
     14 C3B        -0.9520    0.1750   -3.6360 c3        1 MAB      0.080100
     15 C4B         0.5690   -0.0340   -3.5190 c3        1 MAB      0.085100
     16 C5B         0.8940   -0.9560   -2.3360 c3        1 MAB      0.113100
     17 C6B         2.4010   -0.9980   -2.0620 c3        1 MAB      0.137400
     18 O2B        -1.1010    1.9890   -2.0600 oh        1 MAB     -0.600800
     19 O3B        -1.2210    1.0860   -4.6810 oh        1 MAB     -0.594800
     20 O4B         1.0840   -0.6550   -4.6840 oh        1 MAB     -0.594800
     21 O5B         0.3120   -0.4340   -1.1370 os        1 MAB     -0.472600
     22 O6B         2.6980   -1.8320   -0.9640 oh        1 MAB     -0.592800
     23 O1A         1.0590   -0.0280    4.8230 oh        1 MAB     -0.597800
     24 H1A        -0.2510    1.4650    4.3280 h2        1 MAB      0.083700
     25 H2A         1.6780    1.9770    2.9290 h1        1 MAB      0.069700
     26 H3A        -0.3910    2.1940    1.5710 h1        1 MAB      0.093700
     27 H4A         0.0490   -0.8570    1.0050 h1        1 MAB      0.090700
     28 H5A        -2.1320    0.7270    2.5930 h1        1 MAB      0.071700
     29 H6A2       -3.0110   -1.3090    1.3180 h1        1 MAB      0.060700
     30 H6A1       -1.7420   -2.3400    2.1720 h1        1 MAB      0.060700
     31 H2O1        2.6690   -0.0620    3.0450 ho        1 MAB      0.422000
     32 H3O1        1.6010    0.8520    0.0820 ho        1 MAB      0.423000
     33 H6A        -2.7760   -1.5900    4.1220 ho        1 MAB      0.413000
     34 H1B        -1.5870   -1.3180   -1.2840 h2        1 MAB      0.060700
     35 H2B        -2.6550    0.7160   -2.3590 h1        1 MAB      0.096700
     36 H3B        -1.4490   -0.7840   -3.9530 h1        1 MAB      0.088700
     37 H4B         1.0670    0.9670   -3.3750 h1        1 MAB      0.057700
     38 H5B         0.4970   -1.9910   -2.5230 h1        1 MAB      0.073700
     39 H6B2        2.7840    0.0410   -1.8830 h1        1 MAB      0.065700
     40 H6B1        2.9180   -1.4600   -2.9450 h1        1 MAB      0.065700
     41 H2O2       -0.3740    1.9590   -1.4170 ho        1 MAB      0.439000
     42 H3O2       -1.0590    1.9770   -4.3380 ho        1 MAB      0.426000
     43 H4O1        0.6880   -0.1930   -5.4370 ho        1 MAB      0.426000
     44 H6B         2.2800   -1.4400   -0.1840 ho        1 MAB      0.411000
     45 H1O1        1.1450   -0.9650    4.5940 ho        1 MAB      0.431000
@<TRIPOS>BOND
     1    1    2 1   
     2    1   10 1   
     3    1   23 1   
     4    1   24 1   
     5    2    3 1   
     6    2    7 1   
     7    2   25 1   
     8    3    4 1   
     9    3    8 1   
    10    3   26 1   
    11    4    5 1   
    12    4    9 1   
    13    4   27 1   
    14    5    6 1   
    15    5   10 1   
    16    5   28 1   
    17    6   11 1   
    18    6   29 1   
    19    6   30 1   
    20    7   31 1   
    21    8   32 1   
    22    9   12 1   
    23   11   33 1   
    24   12   13 1   
    25   12   21 1   
    26   12   34 1   
    27   13   14 1   
    28   13   18 1   
    29   13   35 1   
    30   14   15 1   
    31   14   19 1   
    32   14   36 1   
    33   15   16 1   
    34   15   20 1   
    35   15   37 1   
    36   16   17 1   
    37   16   21 1   
    38   16   38 1   
    39   17   22 1   
    40   17   39 1   
    41   17   40 1   
    42   18   41 1   
    43   19   42 1   
    44   20   43 1   
    45   22   44 1   
    46   23   45 1   
@<TRIPOS>SUBSTRUCTURE
     1 MAB         1 TEMP              0 ****  ****    0 ROOT
