@<TRIPOS>MOLECULE
MAD
   38    35     1     0     0
SMALL
bcc


@<TRIPOS>ATOM
      1 P          -2.4150   -4.5120   -1.0040 p3        1 MAD      2.536000
      2 OP1        -1.2880   -5.2160   -0.2030 os        1 MAD     -1.264000
      3 OP2        -3.7410   -5.2870   -0.8200 o         1 MAD     -1.234000
      4 O5'        -2.5940   -3.0060   -0.4640 os        1 MAD     -0.730000
      5 C5'        -1.5900   -2.0460   -0.7840 c3        1 MAD      0.073000
      6 C4'        -2.2670   -0.7140   -1.2340 c3        1 MAD     -0.049000
      7 O4'        -1.7560    0.4910   -0.3210 os        1 MAD     -0.291000
      8 C3'        -1.9260   -0.4290   -2.4230 c3        1 MAD     -0.035000
      9 O3'        -3.0270    0.3220   -3.1140 oh        1 MAD     -0.397000
     10 C2'        -0.6590    0.4850   -2.2720 c3        1 MAD     -0.003000
     11 O2'        -0.7890    1.6090   -3.0420 oh        1 MAD     -0.350000
     12 C1'        -0.6020    0.8550   -0.8120 c3        1 MAD      0.129000
     13 N9          0.4820    0.1300   -0.1510 n3        1 MAD     -0.146000
     14 C8          1.6120   -0.4800   -0.6270 c1        1 MAD     -0.022000
     15 N7          2.6430   -0.1720    0.2140 n2        1 MAD     -0.157000
     16 C5          2.1620    0.6110    1.1890 c1        1 MAD     -0.204000
     17 C6          2.8470    1.3590    2.3020 c1        1 MAD      0.206000
     18 N6          4.1660    1.2610    2.4540 n1        1 MAD     -0.371000
     19 N1          2.1200    2.2420    3.0960 n3        1 MAD     -0.262000
     20 CM1         2.7740    2.9810    4.1250 c3        1 MAD     -0.051000
     21 C2          0.7200    2.4390    2.8520 c2        1 MAD      0.021000
     22 N3          0.0600    1.7190    1.7780 n1        1 MAD     -0.144000
     23 C4          0.8090    0.7990    0.9590 c1        1 MAD     -0.050000
     24 OXT        -2.0510   -4.4820   -2.4520 o         1 MAD     -1.234000
     25 H5'        -1.0300   -1.8760    0.0140 h1        1 MAD      0.040000
     26 H5''       -1.0590   -2.3690   -1.4690 h1        1 MAD      0.040000
     27 H4'        -3.2460   -0.7940   -1.1730 h1        1 MAD      0.088000
     28 H3'        -1.7040   -1.2340   -2.9140 h1        1 MAD      0.208000
     29 HA         -3.3970   -0.1930   -3.7200 ho        1 MAD      0.297000
     30 H2'         0.1300    0.0020   -2.5210 h1        1 MAD      0.116000
     31 HB         -0.2120    1.5720   -3.7250 ho        1 MAD      0.223000
     32 H1'        -0.4820    1.7970   -0.7120 h2        1 MAD      0.129000
     33 H8          1.6540   -1.1140   -1.3890 DU        1 MAD      0.256000
     34 H6          4.6450    0.6790    1.9310 DU        1 MAD      0.256000
     35 HM11        2.1040    3.5230    4.6200 h1        1 MAD      0.073333
     36 HM12        3.2110    2.3660    4.7390 h1        1 MAD      0.073333
     37 HM13        3.4620    3.5900    3.7160 h1        1 MAD      0.073333
     38 H2          0.2360    3.0900    3.3550 h5        1 MAD      0.155000
@<TRIPOS>BOND
     1    1    3 1   
     2    1    4 1   
     3    1   24 1   
     4    4    5 1   
     5    5    6 1   
     6    5   25 1   
     7    5   26 1   
     8    6    7 1   
     9    6    8 1   
    10    6   27 1   
    11    7   12 1   
    12    8    9 1   
    13    8   10 1   
    14    8   28 1   
    15    9   29 1   
    16   10   11 1   
    17   10   12 1   
    18   10   30 1   
    19   11   31 1   
    20   12   13 1   
    21   12   32 1   
    22   13   14 1   
    23   13   23 1   
    24   14   15 1   
    25   15   16 1   
    26   16   23 1   
    27   17   18 1   
    28   17   19 1   
    29   19   20 1   
    30   19   21 1   
    31   20   35 1   
    32   20   36 1   
    33   20   37 1   
    34   21   22 1   
    35   21   38 1   
@<TRIPOS>SUBSTRUCTURE
     1 MAD         1 TEMP              0 ****  ****    0 ROOT
