@<TRIPOS>MOLECULE
MAD
   38    40     1     0     0
SMALL
bcc


@<TRIPOS>ATOM
      1 P          -0.1630   -1.0570   -4.6310 p5        1 MAD      1.335900
      2 OP1        -0.1740   -0.6330   -6.0660 o         1 MAD     -0.930167
      3 OP2        -1.2690   -1.9370   -4.1300 o         1 MAD     -0.930167
      4 O5'        -0.4800    0.4250   -3.7610 os        1 MAD     -0.554200
      5 C5'        -0.5230    0.2700   -2.4050 c3        1 MAD      0.229400
      6 C4'         0.8050    0.7440   -1.7650 c3        1 MAD      0.052100
      7 O4'         0.5420    1.4340   -0.5150 os        1 MAD     -0.431600
      8 C3'         1.7980   -0.3990   -1.4840 c3        1 MAD      0.131100
      9 O3'         2.9560   -0.2660   -2.2730 oh        1 MAD     -0.685800
     10 C2'         2.1920   -0.2570    0.0040 c3        1 MAD      0.103100
     11 O2'         3.5000    0.2180    0.2360 oh        1 MAD     -0.617800
     12 C1'         1.1830    0.7980    0.5740 c3        1 MAD      0.213800
     13 N9          0.1770    0.2240    1.4640 na        1 MAD     -0.169900
     14 C8         -1.0310   -0.4020    1.1110 cc        1 MAD      0.439400
     15 N7         -1.7660   -0.7860    2.1850 nd        1 MAD     -0.633000
     16 C5         -1.0190   -0.3930    3.2900 cd        1 MAD      0.209000
     17 C6         -1.3100   -0.5500    4.7210 cd        1 MAD      0.622200
     18 N6         -2.4000   -1.1200    5.1370 n2        1 MAD     -0.830100
     19 N1         -0.2690   -0.0050    5.5590 na        1 MAD     -0.772600
     20 CM1        -0.3880   -0.1070    6.9820 c3        1 MAD      0.205100
     21 C2          0.8650    0.6010    5.0060 cd        1 MAD      0.596100
     22 N3          1.1560    0.7620    3.7360 nc        1 MAD     -0.559100
     23 C4          0.1990    0.2490    2.8600 cc        1 MAD      0.003800
     24 OXT         1.1920   -1.3620   -4.0180 o         1 MAD     -0.930167
     25 H5'        -0.7200   -0.8050   -2.1260 h1        1 MAD     -0.001800
     26 H5''       -1.3430    0.9160   -1.9710 h1        1 MAD     -0.001800
     27 H4'         1.2770    1.5180   -2.4290 h1        1 MAD      0.081700
     28 H3'         1.3220   -1.4010   -1.6760 h1        1 MAD      0.116700
     29 HA          2.6980   -0.5990   -3.1690 ho        1 MAD      0.517000
     30 H2'         2.1280   -1.2390    0.5420 h1        1 MAD      0.068700
     31 HB          3.8220    0.6130   -0.5860 ho        1 MAD      0.430000
     32 H1'         1.7270    1.5990    1.1550 h2        1 MAD      0.086700
     33 H8         -1.3090   -0.5350    0.0500 h5        1 MAD      0.112100
     34 H6         -2.5210   -1.1890    6.1240 hn        1 MAD      0.362400
     35 HM11        0.5050    0.3460    7.4880 h1        1 MAD      0.034033
     36 HM12       -1.3080    0.4320    7.3380 h1        1 MAD      0.034033
     37 HM13       -0.4630   -1.1850    7.2950 h1        1 MAD      0.034033
     38 H2          1.6030    0.9920    5.7370 h5        1 MAD      0.029800
@<TRIPOS>BOND
     1    1    2 1   
     2    1    3 1   
     3    1    4 1   
     4    1   24 1   
     5    4    5 1   
     6    5    6 1   
     7    5   25 1   
     8    5   26 1   
     9    6    7 1   
    10    6    8 1   
    11    6   27 1   
    12    7   12 1   
    13    8    9 1   
    14    8   10 1   
    15    8   28 1   
    16    9   29 1   
    17   10   11 1   
    18   10   12 1   
    19   10   30 1   
    20   11   31 1   
    21   12   13 1   
    22   12   32 1   
    23   13   14 1   
    24   13   23 1   
    25   14   15 2   
    26   14   33 1   
    27   15   16 1   
    28   16   17 1   
    29   16   23 2   
    30   17   18 2   
    31   17   19 1   
    32   18   34 1   
    33   19   20 1   
    34   19   21 1   
    35   20   35 1   
    36   20   36 1   
    37   20   37 1   
    38   21   22 2   
    39   21   38 1   
    40   22   23 1   
@<TRIPOS>SUBSTRUCTURE
     1 MAD         1 TEMP              0 ****  ****    0 ROOT
