@<TRIPOS>MOLECULE
MAE
   10     9     1     0     0
SMALL
bcc


@<TRIPOS>ATOM
      1 C1         -0.1370    0.0830    0.0960 c         1 MAE      0.916800
      2 O1          1.0270    0.5290    0.3510 o         1 MAE     -0.876800
      3 O2         -0.9860   -0.1110    1.0180 o         1 MAE     -0.876800
      4 C2         -0.5510   -0.0450   -1.3430 ce        1 MAE     -0.207200
      5 C3         -0.6870   -1.0670   -2.1820 cf        1 MAE     -0.207200
      6 C4         -0.5000   -2.5530   -2.0640 c         1 MAE      0.916800
      7 O3         -1.5360   -3.2870   -1.9900 o         1 MAE     -0.876800
      8 O4          0.6580   -3.0570   -2.1880 o         1 MAE     -0.876800
      9 H2         -0.7730    0.9670   -1.7420 ha        1 MAE      0.045000
     10 H3         -1.0180   -0.8290   -3.2150 ha        1 MAE      0.045000
@<TRIPOS>BOND
     1    1    2 1   
     2    1    3 1   
     3    1    4 1   
     4    4    5 2   
     5    4    9 1   
     6    5    6 1   
     7    5   10 1   
     8    6    7 1   
     9    6    8 1   
@<TRIPOS>SUBSTRUCTURE
     1 MAE         1 TEMP              0 ****  ****    0 ROOT
