@<TRIPOS>MOLECULE
MAE
   10     9     1     0     0
SMALL
bcc


@<TRIPOS>ATOM
      1 C1         44.9010  -10.3060   57.7680 c         1 MAE      0.916800
      2 O1         45.6660  -10.9050   58.5900 o         1 MAE     -0.876800
      3 O2         44.1370  -10.9530   56.9880 o         1 MAE     -0.876800
      4 C2         44.7870   -8.8110   57.8600 ce        1 MAE     -0.207200
      5 C3         45.2650   -7.7980   57.1440 cf        1 MAE     -0.207200
      6 C4         46.1230   -7.6960   55.9150 c         1 MAE      0.916800
      7 O3         45.5640   -7.3930   54.8130 o         1 MAE     -0.876800
      8 O4         47.3860   -7.7630   56.0180 o         1 MAE     -0.876800
      9 H2         44.1610   -8.5540   58.7410 ha        1 MAE      0.045000
     10 H3         44.9960   -6.7740   57.4790 ha        1 MAE      0.045000
@<TRIPOS>BOND
     1    1    2 1   
     2    1    3 1   
     3    1    4 1   
     4    4    5 2   
     5    4    9 1   
     6    5    6 1   
     7    5   10 1   
     8    6    7 1   
     9    6    8 1   
@<TRIPOS>SUBSTRUCTURE
     1 MAE         1 TEMP              0 ****  ****    0 ROOT
