@<TRIPOS>MOLECULE
MAF
   23    23     1     0     0
SMALL
bcc


@<TRIPOS>ATOM
      1 C1          0.1160   -0.0470   -0.0580 c3        1 MAF      0.311900
      2 C2          1.6480   -0.2070    0.1200 c3        1 MAF      0.119600
      3 F2          2.3190    0.7170   -0.6640 f         1 MAF     -0.234300
      4 C3          2.0390   -0.0620    1.6050 c3        1 MAF      0.079100
      5 O3          3.4390    0.0100    1.7720 oh        1 MAF     -0.589800
      6 C4          1.3670    1.1720    2.2290 c3        1 MAF      0.086100
      7 O4          1.6450    1.2550    3.6150 oh        1 MAF     -0.592800
      8 C5         -0.1540    1.0500    2.0590 c3        1 MAF      0.142100
      9 O5         -0.4660    1.0160    0.6610 os        1 MAF     -0.436600
     10 C6         -0.8800    2.2690    2.6280 c3        1 MAF      0.135400
     11 O6         -2.1950    1.8470    2.9540 oh        1 MAF     -0.600800
     12 O1L        -0.4810   -1.2320    0.4110 oh        1 MAF     -0.626800
     13 H1         -0.1420    0.1650   -1.1360 h2        1 MAF      0.089700
     14 H2          1.9350   -1.2410   -0.2300 h1        1 MAF      0.091700
     15 H3          1.7270   -0.9930    2.1590 h1        1 MAF      0.113700
     16 HA          3.7670    0.7100    1.1900 ho        1 MAF      0.414000
     17 H4          1.7410    2.1040    1.7190 h1        1 MAF      0.054700
     18 HB          2.5750    1.0110    3.7270 ho        1 MAF      0.422000
     19 H5         -0.5280    0.1080    2.5490 h1        1 MAF      0.084700
     20 H6C1       -0.3460    2.6130    3.5540 h1        1 MAF      0.048700
     21 H6C2       -0.9100    3.0940    1.8680 h1        1 MAF      0.048700
     22 H6         -2.6730    2.6350    3.2350 ho        1 MAF      0.404000
     23 H1L        -1.4360   -1.0820    0.4390 ho        1 MAF      0.434000
@<TRIPOS>BOND
     1    1    2 1   
     2    1    9 1   
     3    1   12 1   
     4    1   13 1   
     5    2    3 1   
     6    2    4 1   
     7    2   14 1   
     8    4    5 1   
     9    4    6 1   
    10    4   15 1   
    11    5   16 1   
    12    6    7 1   
    13    6    8 1   
    14    6   17 1   
    15    7   18 1   
    16    8    9 1   
    17    8   10 1   
    18    8   19 1   
    19   10   11 1   
    20   10   20 1   
    21   10   21 1   
    22   11   22 1   
    23   12   23 1   
@<TRIPOS>SUBSTRUCTURE
     1 MAF         1 TEMP              0 ****  ****    0 ROOT
