@<TRIPOS>MOLECULE
MAF
   23    23     1     0     0
SMALL
bcc


@<TRIPOS>ATOM
      1 C1          0.0010    0.0120    0.0360 c3        1 MAF      0.313900
      2 C2          1.5420   -0.1370    0.1010 c3        1 MAF      0.122600
      3 F2          2.1500    0.8320   -0.6810 f         1 MAF     -0.233300
      4 C3          2.0300   -0.0600    1.5620 c3        1 MAF      0.078100
      5 O3          3.4380   -0.0000    1.6400 oh        1 MAF     -0.588800
      6 C4          1.4060    1.1490    2.2790 c3        1 MAF      0.090100
      7 O4          1.7600    1.1620    3.6510 oh        1 MAF     -0.590800
      8 C5         -0.1220    1.0530    2.2000 c3        1 MAF      0.104100
      9 O5         -0.5390    1.0450    0.8300 os        1 MAF     -0.453600
     10 C6         -0.7870    2.2780    2.8320 c3        1 MAF      0.140400
     11 O6         -2.1920    2.1490    2.8390 oh        1 MAF     -0.593800
     12 O1L        -0.5500   -1.1920    0.5110 oh        1 MAF     -0.622800
     13 H1         -0.3350    0.2570   -1.0130 h2        1 MAF      0.089700
     14 H2          1.8140   -1.1500   -0.3180 h1        1 MAF      0.092700
     15 H3          1.7480   -1.0130    2.0940 h1        1 MAF      0.113700
     16 HA          3.7310    0.7290    1.0750 ho        1 MAF      0.414000
     17 H4          1.7620    2.1000    1.7930 h1        1 MAF      0.055700
     18 HB          2.6990    0.9310    3.6970 ho        1 MAF      0.423000
     19 H5         -0.4780    0.1090    2.6970 h1        1 MAF      0.077700
     20 H6C1       -0.4830    2.3410    3.9110 h1        1 MAF      0.065700
     21 H6C2       -0.4790    3.2070    2.2830 h1        1 MAF      0.065700
     22 H6         -2.4750    2.0930    1.9180 ho        1 MAF      0.407000
     23 H1L        -1.5080   -1.0760    0.5500 ho        1 MAF      0.430000
@<TRIPOS>BOND
     1    1    2 1   
     2    1    9 1   
     3    1   12 1   
     4    1   13 1   
     5    2    3 1   
     6    2    4 1   
     7    2   14 1   
     8    4    5 1   
     9    4    6 1   
    10    4   15 1   
    11    5   16 1   
    12    6    7 1   
    13    6    8 1   
    14    6   17 1   
    15    7   18 1   
    16    8    9 1   
    17    8   10 1   
    18    8   19 1   
    19   10   11 1   
    20   10   20 1   
    21   10   21 1   
    22   11   22 1   
    23   12   23 1   
@<TRIPOS>SUBSTRUCTURE
     1 MAF         1 TEMP              0 ****  ****    0 ROOT
