@<TRIPOS>MOLECULE
MAF
   23    23     1     0     0
SMALL
bcc


@<TRIPOS>ATOM
      1 C1         -1.6870   -0.1730   -0.1920 c3        1 MAF      0.313900
      2 C2         -0.9190   -0.1180   -1.5370 c3        1 MAF      0.122600
      3 F2         -0.9540    1.1660   -2.0560 f         1 MAF     -0.233300
      4 C3          0.5330   -0.6030   -1.3490 c3        1 MAF      0.078100
      5 O3          1.3100   -0.3850   -2.5080 oh        1 MAF     -0.588800
      6 C4          1.1820    0.0840   -0.1370 c3        1 MAF      0.090100
      7 O4          2.4750   -0.4380    0.1090 oh        1 MAF     -0.590800
      8 C5          0.3330   -0.1820    1.1110 c3        1 MAF      0.104100
      9 O5         -0.9890    0.3360    0.9220 os        1 MAF     -0.453600
     10 C6          0.8970    0.5500    2.3320 c3        1 MAF      0.140400
     11 O6          0.1700    0.2350    3.4980 oh        1 MAF     -0.593800
     12 O1L        -1.9450   -1.5300    0.0790 oh        1 MAF     -0.622800
     13 H1         -2.6290    0.4450   -0.2430 h2        1 MAF      0.089700
     14 H2         -1.4380   -0.8070   -2.2660 h1        1 MAF      0.092700
     15 H3          0.5310   -1.7210   -1.2050 h1        1 MAF      0.113700
     16 HA          1.2220    0.5480   -2.7480 ho        1 MAF      0.414000
     17 H4          1.2570    1.1920   -0.3280 h1        1 MAF      0.055700
     18 HB          2.9060   -0.5320   -0.7530 ho        1 MAF      0.423000
     19 H5          0.2690   -1.2870    1.3090 h1        1 MAF      0.077700
     20 H6C1        0.8910    1.6570    2.1500 h1        1 MAF      0.065700
     21 H6C2        1.9440    0.1900    2.5200 h1        1 MAF      0.065700
     22 H6         -0.7360    0.5370    3.3560 ho        1 MAF      0.407000
     23 H1L        -2.3510   -1.5770    0.9540 ho        1 MAF      0.430000
@<TRIPOS>BOND
     1    1    2 1   
     2    1    9 1   
     3    1   12 1   
     4    1   13 1   
     5    2    3 1   
     6    2    4 1   
     7    2   14 1   
     8    4    5 1   
     9    4    6 1   
    10    4   15 1   
    11    5   16 1   
    12    6    7 1   
    13    6    8 1   
    14    6   17 1   
    15    7   18 1   
    16    8    9 1   
    17    8   10 1   
    18    8   19 1   
    19   10   11 1   
    20   10   20 1   
    21   10   21 1   
    22   11   22 1   
    23   12   23 1   
@<TRIPOS>SUBSTRUCTURE
     1 MAF         1 TEMP              0 ****  ****    0 ROOT
