@<TRIPOS>MOLECULE
MAG
   33    33     1     0     0
SMALL
bcc


@<TRIPOS>ATOM
      1 C1          0.9950   -0.5010   -0.0410 c3        1 MAG      0.323900
      2 C2         -0.2560   -0.0100    0.7500 c3        1 MAG      0.087700
      3 C3         -1.4900   -0.4120   -0.1000 c3        1 MAG      0.126100
      4 C4         -1.3690    0.2140   -1.5010 c3        1 MAG      0.076100
      5 C5         -0.0640   -0.2400   -2.1660 c3        1 MAG      0.076100
      6 C6          0.1830    0.4960   -3.4870 c3        1 MAG      0.136400
      7 C7         -0.3060    0.2790    3.2040 c         1 MAG      0.668100
      8 C8         -0.5060   -0.4010    4.5370 c3        1 MAG     -0.175100
      9 N2         -0.2910   -0.5430    2.0820 n         1 MAG     -0.552900
     10 O1          2.1390    0.0480    0.5670 os        1 MAG     -0.387600
     11 O3         -2.6470    0.0650    0.5590 oh        1 MAG     -0.588800
     12 O4         -2.5000   -0.2540   -2.2210 oh        1 MAG     -0.602800
     13 O5          1.0490    0.0880   -1.3390 os        1 MAG     -0.449600
     14 O6          1.3780    0.0610   -4.0960 oh        1 MAG     -0.592800
     15 O7         -0.1280    1.5070    3.1160 o         1 MAG     -0.589100
     16 CM          3.3630   -0.4750    0.0650 c3        1 MAG      0.117700
     17 H1          1.0400   -1.6220   -0.1230 h2        1 MAG      0.038700
     18 H2         -0.2040    1.1200    0.8140 h1        1 MAG      0.127700
     19 H3         -1.5550   -1.5330   -0.2030 h1        1 MAG      0.044700
     20 H4         -1.3960    1.3360   -1.4180 h1        1 MAG      0.070700
     21 H5         -0.0890   -1.3510   -2.3420 h1        1 MAG      0.063700
     22 H61        -0.6280    0.2430   -4.2200 h1        1 MAG      0.053200
     23 H62         0.2160    1.6040   -3.3080 h1        1 MAG      0.053200
     24 H81        -0.4510    0.3710    5.3430 hc        1 MAG      0.066033
     25 H82        -1.5060   -0.8960    4.5760 hc        1 MAG      0.066033
     26 H83         0.2890   -1.1650    4.7120 hc        1 MAG      0.066033
     27 HN2        -0.6100   -1.4760    2.1800 hn        1 MAG      0.302500
     28 HO3        -3.3870   -0.0770   -0.0480 ho        1 MAG      0.422000
     29 HO4        -2.5230    0.2310   -3.0550 ho        1 MAG      0.413000
     30 HO6         2.0940    0.2290   -3.4670 ho        1 MAG      0.417000
     31 HM1         4.1460    0.0660    0.6520 h1        1 MAG      0.039367
     32 HM2         3.4210   -1.5770    0.2470 h1        1 MAG      0.039367
     33 HM3         3.4660   -0.2590   -1.0260 h1        1 MAG      0.039367
@<TRIPOS>BOND
     1    1    2 1   
     2    1   10 1   
     3    1   13 1   
     4    1   17 1   
     5    2    3 1   
     6    2    9 1   
     7    2   18 1   
     8    3    4 1   
     9    3   11 1   
    10    3   19 1   
    11    4    5 1   
    12    4   12 1   
    13    4   20 1   
    14    5    6 1   
    15    5   13 1   
    16    5   21 1   
    17    6   14 1   
    18    6   22 1   
    19    6   23 1   
    20    7    8 1   
    21    7    9 1   
    22    7   15 2   
    23    8   24 1   
    24    8   25 1   
    25    8   26 1   
    26    9   27 1   
    27   10   16 1   
    28   11   28 1   
    29   12   29 1   
    30   14   30 1   
    31   16   31 1   
    32   16   32 1   
    33   16   33 1   
@<TRIPOS>SUBSTRUCTURE
     1 MAG         1 TEMP              0 ****  ****    0 ROOT
