@<TRIPOS>MOLECULE
MAG
   33    32     1     0     0
SMALL
bcc


@<TRIPOS>ATOM
      1 C1         -1.0350    0.3230   -0.6110 c3        1 MAG      0.134000
      2 C2          0.4900    0.3510   -0.6520 c3        1 MAG      0.019000
      3 C3          1.0980    0.3700    0.7200 c3        1 MAG      0.022000
      4 C4          0.5770   -0.7080    1.5750 c3        1 MAG     -0.030000
      5 C5         -0.9610   -0.7400    1.6080 c3        1 MAG      0.017000
      6 C6         -1.4610    0.4550    2.3290 c3        1 MAG     -0.055000
      7 C7          1.9580   -0.6990   -2.3660 c1        1 MAG      0.303000
      8 C8          2.3890   -1.9200   -3.1510 c2        1 MAG     -0.241000
      9 N2          0.9470   -0.8160   -1.3420 n3        1 MAG     -0.382000
     10 O1         -1.4880    1.5210   -0.1490 os        1 MAG     -0.285000
     11 O3          0.8010    1.6490    1.3470 oh        1 MAG     -0.301000
     12 O4          1.0690   -2.0070    1.0660 oh        1 MAG     -0.336000
     13 O5         -1.5550   -0.7560    0.2580 os        1 MAG     -0.290000
     14 O6         -1.7910    0.0960    3.6430 oh        1 MAG     -0.343000
     15 O7          2.4210    0.3910   -2.6380 o         1 MAG     -0.368000
     16 CM         -2.3890    2.1560   -1.0100 c3        1 MAG     -0.073000
     17 H1         -1.3700    0.1880   -1.5120 h2        1 MAG      0.126000
     18 H2          0.7860    1.1580   -1.1500 h1        1 MAG      0.167000
     19 H3          2.0630    0.2720    0.6400 h1        1 MAG      0.098000
     20 H4          0.8950   -0.5860    2.4390 h1        1 MAG      0.100000
     21 H5         -1.2640   -1.5900    2.1160 h1        1 MAG      0.119000
     22 H61        -2.3050    0.8220    1.8460 h1        1 MAG      0.094000
     23 H62        -0.8010    1.1100    2.3410 h1        1 MAG      0.094000
     24 H81         2.9580   -1.6440   -3.8960 ha        1 MAG      0.106000
     25 H82         1.6150   -2.3740   -3.4920 ha        1 MAG      0.106000
     26 H83         2.8820   -2.5140   -2.5730 ha        1 MAG      0.106000
     27 HN2         0.5740   -1.6840   -1.1240 hn        1 MAG      0.243000
     28 HO3         1.5870    2.0630    1.5880 ho        1 MAG      0.202000
     29 HO4         1.3700   -2.5320    1.7840 ho        1 MAG      0.212000
     30 HO6        -2.2610    0.7260    4.0060 ho        1 MAG      0.206000
     31 HM1        -1.9240    2.4150   -1.8420 h1        1 MAG      0.077333
     32 HM2        -3.1240    1.5430   -1.2250 h1        1 MAG      0.077333
     33 HM3        -2.7480    2.9590   -0.5730 h1        1 MAG      0.077333
@<TRIPOS>BOND
     1    1    2 1   
     2    1   10 1   
     3    1   13 1   
     4    1   17 1   
     5    2    3 1   
     6    2    9 1   
     7    2   18 1   
     8    3    4 1   
     9    3   11 1   
    10    3   19 1   
    11    4    5 1   
    12    4   12 1   
    13    4   20 1   
    14    5    6 1   
    15    5   13 1   
    16    5   21 1   
    17    6   14 1   
    18    6   22 1   
    19    6   23 1   
    20    7    9 1   
    21    7   15 1   
    22    8   24 1   
    23    8   25 1   
    24    8   26 1   
    25    9   27 1   
    26   10   16 1   
    27   11   28 1   
    28   12   29 1   
    29   14   30 1   
    30   16   31 1   
    31   16   32 1   
    32   16   33 1   
@<TRIPOS>SUBSTRUCTURE
     1 MAG         1 TEMP              0 ****  ****    0 ROOT
