@<TRIPOS>MOLECULE
MAH
   19    18     1     0     0
SMALL
bcc


@<TRIPOS>ATOM
      1 C1          0.7070    1.0780   -2.1970 c         1 MAH      0.906600
      2 C2          0.9160   -0.2050   -1.3860 c3        1 MAH     -0.186900
      3 C3          0.1910   -0.3140   -0.0380 c3        1 MAH      0.193800
      4 C4          0.8150    0.6070    1.0130 c3        1 MAH     -0.186900
      5 C5          0.2400    0.5020    2.4270 c         1 MAH      0.906600
      6 C6         -1.2980   -0.0270   -0.1820 c3        1 MAH     -0.110100
      7 O1         -0.4120    1.2970   -2.7550 o         1 MAH     -0.876550
      8 O2          1.7010    1.8490   -2.3660 o         1 MAH     -0.876550
      9 O3          0.3020    1.5230    3.1770 o         1 MAH     -0.876550
     10 O4         -0.2460   -0.5970    2.8490 o         1 MAH     -0.876550
     11 O7          0.3610   -1.6900    0.3420 oh        1 MAH     -0.674800
     12 H21         2.0130   -0.3310   -1.2000 hc        1 MAH      0.031450
     13 H22         0.5730   -1.0620   -2.0230 hc        1 MAH      0.031450
     14 H41         1.9080    0.3700    1.0880 hc        1 MAH      0.031450
     15 H42         0.7160    1.6630    0.6560 hc        1 MAH      0.031450
     16 H61        -1.4400    0.9600   -0.6840 hc        1 MAH      0.034033
     17 H62        -1.7750   -0.8170   -0.8090 hc        1 MAH      0.034033
     18 H63        -1.7780   -0.0210    0.8260 hc        1 MAH      0.034033
     19 HO7         0.0620   -1.7570    1.2610 ho        1 MAH      0.431000
@<TRIPOS>BOND
     1    1    2 1   
     2    1    7 1   
     3    1    8 1   
     4    2    3 1   
     5    2   12 1   
     6    2   13 1   
     7    3    4 1   
     8    3    6 1   
     9    3   11 1   
    10    4    5 1   
    11    4   14 1   
    12    4   15 1   
    13    5    9 1   
    14    5   10 1   
    15    6   16 1   
    16    6   17 1   
    17    6   18 1   
    18   11   19 1   
@<TRIPOS>SUBSTRUCTURE
     1 MAH         1 TEMP              0 ****  ****    0 ROOT
