@<TRIPOS>MOLECULE
MAH
   19    18     1     0     0
SMALL
bcc


@<TRIPOS>ATOM
      1 C1          0.3930    1.0630   -0.1420 c         1 MAH      0.906600
      2 C2          1.4610   -0.0350   -0.0970 c3        1 MAH     -0.186900
      3 C3          2.1430   -0.3010    1.2510 c3        1 MAH      0.193800
      4 C4          3.1050    0.8280    1.6270 c3        1 MAH     -0.186900
      5 C5          3.9230    0.6180    2.9030 c         1 MAH      0.906600
      6 C6          1.1200   -0.5230    2.3580 c3        1 MAH     -0.110100
      7 O1         -0.7320    0.8730    0.4140 o         1 MAH     -0.876550
      8 O2          0.6340    2.1060   -0.8240 o         1 MAH     -0.876550
      9 O3          4.3060    1.6430    3.5460 o         1 MAH     -0.876550
     10 O4          4.2450   -0.5540    3.2820 o         1 MAH     -0.876550
     11 O7          2.8690   -1.5240    1.0420 oh        1 MAH     -0.674800
     12 H21         2.2570    0.2130   -0.8450 hc        1 MAH      0.031450
     13 H22         0.9700   -0.9910   -0.4210 hc        1 MAH      0.031450
     14 H41         3.8370    0.9640    0.7900 hc        1 MAH      0.031450
     15 H42         2.5140    1.7730    1.7240 hc        1 MAH      0.031450
     16 H61         0.4070    0.3360    2.3840 hc        1 MAH      0.034033
     17 H62         1.6450   -0.6190    3.3390 hc        1 MAH      0.034033
     18 H63         0.5450   -1.4580    2.1580 hc        1 MAH      0.034033
     19 HO7         3.4420   -1.6350    1.8150 ho        1 MAH      0.431000
@<TRIPOS>BOND
     1    1    2 1   
     2    1    7 1   
     3    1    8 1   
     4    2    3 1   
     5    2   12 1   
     6    2   13 1   
     7    3    4 1   
     8    3    6 1   
     9    3   11 1   
    10    4    5 1   
    11    4   14 1   
    12    4   15 1   
    13    5    9 1   
    14    5   10 1   
    15    6   16 1   
    16    6   17 1   
    17    6   18 1   
    18   11   19 1   
@<TRIPOS>SUBSTRUCTURE
     1 MAH         1 TEMP              0 ****  ****    0 ROOT
