@<TRIPOS>MOLECULE
MAH
   19    17     1     0     0
SMALL
bcc


@<TRIPOS>ATOM
      1 C1          0.4690   -0.1830   -2.2810 c1        1 MAH      0.329000
      2 C2         -0.6510    0.1470   -1.3090 c2        1 MAH     -0.201000
      3 C3         -0.0810    0.2800    0.0950 c3        1 MAH      0.122000
      4 C4         -0.4730   -0.9410    0.9220 c3        1 MAH     -0.230000
      5 C5          0.7710   -1.5670    1.5210 c2        1 MAH      0.323000
      6 C6         -0.6350    1.5330    0.7490 c3        1 MAH     -0.228000
      7 O1          0.7380   -1.3860   -2.5460 o         1 MAH     -0.608500
      8 O2          1.0720    0.7450   -2.8840 o         1 MAH     -0.608500
      9 O3          1.3470   -2.5170    0.9250 o         1 MAH     -0.614000
     10 O4          1.1940   -1.1780    2.6410 o         1 MAH     -0.614000
     11 O7          1.3170    0.3680    0.0250 oh        1 MAH     -0.402000
     12 H21        -1.0720    0.9900   -1.5710 ha        1 MAH      0.058500
     13 H22        -1.3160   -0.5670   -1.3240 ha        1 MAH      0.058500
     14 H41        -1.0790   -0.6680    1.6400 hc        1 MAH      0.083000
     15 H42        -0.9220   -1.5940    0.3470 hc        1 MAH      0.083000
     16 H61        -1.6130    1.5010    0.7370 hc        1 MAH      0.073333
     17 H62        -0.3200    1.5840    1.6770 hc        1 MAH      0.073333
     18 H63        -0.3270    2.3230    0.2540 hc        1 MAH      0.073333
     19 HO7         1.5820    1.1310    0.3830 ho        1 MAH      0.230000
@<TRIPOS>BOND
     1    1    7 1   
     2    1    8 1   
     3    2    3 1   
     4    2   12 1   
     5    2   13 1   
     6    3    4 1   
     7    3    6 1   
     8    3   11 1   
     9    4    5 1   
    10    4   14 1   
    11    4   15 1   
    12    5    9 1   
    13    5   10 1   
    14    6   16 1   
    15    6   17 1   
    16    6   18 1   
    17   11   19 1   
@<TRIPOS>SUBSTRUCTURE
     1 MAH         1 TEMP              0 ****  ****    0 ROOT
