@<TRIPOS>MOLECULE
MAH
   19    18     1     0     0
SMALL
bcc


@<TRIPOS>ATOM
      1 C1          0.5100    0.9670   -0.3100 c         1 MAH      0.906600
      2 C2          1.3210   -0.2890    0.0240 c3        1 MAH     -0.186900
      3 C3          2.0360   -0.3280    1.3800 c3        1 MAH      0.193800
      4 C4          3.2400    0.6150    1.4090 c3        1 MAH     -0.186900
      5 C5          4.0940    0.5790    2.6780 c         1 MAH      0.906600
      6 C6          1.0800   -0.0080    2.5220 c3        1 MAH     -0.110100
      7 O1         -0.5820    1.1940    0.2970 o         1 MAH     -0.876550
      8 O2          0.9110    1.7050   -1.2620 o         1 MAH     -0.876550
      9 O3          4.7330    1.6260    3.0020 o         1 MAH     -0.876550
     10 O4          4.1910   -0.4900    3.3640 o         1 MAH     -0.876550
     11 O7          2.4690   -1.6930    1.5100 oh        1 MAH     -0.674800
     12 H21         2.0900   -0.4370   -0.7770 hc        1 MAH      0.031450
     13 H22         0.6160   -1.1600   -0.0110 hc        1 MAH      0.031450
     14 H41         3.9170    0.3530    0.5550 hc        1 MAH      0.031450
     15 H42         2.8710    1.6590    1.2470 hc        1 MAH      0.031450
     16 H61         0.5680    0.9630    2.3180 hc        1 MAH      0.034033
     17 H62         1.6480    0.0490    3.4820 hc        1 MAH      0.034033
     18 H63         0.3070   -0.8090    2.6030 hc        1 MAH      0.034033
     19 HO7         3.0650   -1.7170    2.2730 ho        1 MAH      0.431000
@<TRIPOS>BOND
     1    1    2 1   
     2    1    7 1   
     3    1    8 1   
     4    2    3 1   
     5    2   12 1   
     6    2   13 1   
     7    3    4 1   
     8    3    6 1   
     9    3   11 1   
    10    4    5 1   
    11    4   14 1   
    12    4   15 1   
    13    5    9 1   
    14    5   10 1   
    15    6   16 1   
    16    6   17 1   
    17    6   18 1   
    18   11   19 1   
@<TRIPOS>SUBSTRUCTURE
     1 MAH         1 TEMP              0 ****  ****    0 ROOT
