@<TRIPOS>MOLECULE
MAI
   30    29     1     0     0
SMALL
bcc


@<TRIPOS>ATOM
      1 N          -1.8700    0.4450    2.4860 n3        1 MAI     -0.900800
      2 CA         -0.5480   -0.1020    2.2580 c3        1 MAI      0.132500
      3 CF          0.4160    0.2110    3.4350 c3        1 MAI      0.141100
      4 CJ         -0.1750   -0.1820    4.7750 c3        1 MAI     -0.119100
      5 CB          0.1320    0.3470    0.9530 c3        1 MAI     -0.122400
      6 CG         -0.5810   -0.1860   -0.2690 c3        1 MAI     -0.088400
      7 CD          0.2240    0.1620   -1.5240 c3        1 MAI      0.182800
      8 NE         -0.3890   -0.3610   -2.7300 nh        1 MAI     -0.796200
      9 CZ          0.2340   -0.0210   -3.9830 c2        1 MAI      0.743100
     10 NH1         1.3680    0.6370   -4.0120 n2        1 MAI     -0.870100
     11 NH2        -0.4940   -0.4480   -5.1460 nh        1 MAI     -0.933800
     12 OH          1.6560   -0.4460    3.2210 oh        1 MAI     -0.597800
     13 HN1A       -2.4590    0.2580    1.6980 hn        1 MAI      0.347800
     14 HN2        -1.8230    1.4360    2.6270 hn        1 MAI      0.347800
     15 HA         -0.6710   -1.2270    2.2130 h1        1 MAI      0.056700
     16 HF          0.6870    1.3050    3.4250 h1        1 MAI      0.072700
     17 HJ1         0.6180   -0.1390    5.5610 hc        1 MAI      0.046367
     18 HJ2        -1.0010    0.5130    5.0560 hc        1 MAI      0.046367
     19 HJ3        -0.5840   -1.2200    4.7340 hc        1 MAI      0.046367
     20 HB1         0.1760    1.4670    0.9120 hc        1 MAI      0.059700
     21 HB2         1.1910   -0.0260    0.9660 hc        1 MAI      0.059700
     22 HG1        -0.6990   -1.2980   -0.1840 hc        1 MAI      0.040700
     23 HG2        -1.6090    0.2560   -0.3430 hc        1 MAI      0.040700
     24 HD1         0.3520    1.2840   -1.5650 h1        1 MAI      0.056700
     25 HD2         1.2530   -0.2910   -1.4400 h1        1 MAI      0.056700
     26 HNE        -1.3760   -0.1820   -2.7500 hn        1 MAI      0.386800
     27 HN1         1.7760    0.7500   -4.9140 hn        1 MAI      0.390400
     28 HN21        0.0960   -0.6680   -5.9190 hn        1 MAI      0.388800
     29 HN22       -1.1700   -1.1630   -4.9840 hn        1 MAI      0.388800
     30 HO          1.4960   -1.3940    3.2910 ho        1 MAI      0.398000
@<TRIPOS>BOND
     1    1    2 1   
     2    1   13 1   
     3    1   14 1   
     4    2    3 1   
     5    2    5 1   
     6    2   15 1   
     7    3    4 1   
     8    3   12 1   
     9    3   16 1   
    10    4   17 1   
    11    4   18 1   
    12    4   19 1   
    13    5    6 1   
    14    5   20 1   
    15    5   21 1   
    16    6    7 1   
    17    6   22 1   
    18    6   23 1   
    19    7    8 1   
    20    7   24 1   
    21    7   25 1   
    22    8    9 1   
    23    8   26 1   
    24    9   10 2   
    25    9   11 1   
    26   10   27 1   
    27   11   28 1   
    28   11   29 1   
    29   12   30 1   
@<TRIPOS>SUBSTRUCTURE
     1 MAI         1 TEMP              0 ****  ****    0 ROOT
