@<TRIPOS>MOLECULE
MAJ
   25    26     1     0     0
SMALL
bcc


@<TRIPOS>ATOM
      1 C1          0.0240   -0.1190   -0.0570 ca        1 MAJ      0.003000
      2 C2          1.4460   -0.0820   -0.0490 ca        1 MAJ     -0.575500
      3 C3          2.1060   -0.0450    1.2010 ca        1 MAJ      0.025000
      4 C4          1.4090   -0.0350    2.4030 ca        1 MAJ     -0.150000
      5 C5         -0.6720   -0.1100    1.1290 ca        1 MAJ     -0.100300
      6 C6          0.0180   -0.0680    2.3720 ca        1 MAJ      0.066700
      7 C7         -0.9420   -0.0790    3.5100 c3        1 MAJ     -0.070100
      8 C8         -2.3370   -0.1280    2.8710 c3        1 MAJ     -0.084400
      9 C9         -2.1490   -0.1530    1.3470 c3        1 MAJ     -0.045100
     10 S1          2.2620   -0.1810   -1.4090 sy        1 MAJ      1.499200
     11 O1          3.6040   -0.4690   -1.2820 o         1 MAJ     -0.569800
     12 O2          1.5410   -0.5680   -2.5180 o         1 MAJ     -0.569800
     13 N1          2.3880    1.7180   -1.7730 n4        1 MAJ     -0.784500
     14 H1         -0.5120   -0.1790   -1.0220 ha        1 MAJ      0.169000
     15 H3          3.2140   -0.0430    1.2210 ha        1 MAJ      0.167000
     16 H4          1.9510   -0.0120    3.3620 ha        1 MAJ      0.178000
     17 H71        -0.7630   -0.9700    4.1670 hc        1 MAJ      0.092700
     18 H72        -0.8150    0.8370    4.1440 hc        1 MAJ      0.092700
     19 H81        -2.8890   -1.0390    3.2110 hc        1 MAJ      0.071700
     20 H82        -2.9360    0.7660    3.1750 hc        1 MAJ      0.071700
     21 H91        -2.6500    0.7240    0.8640 hc        1 MAJ      0.078200
     22 H92        -2.5880   -1.0830    0.9020 hc        1 MAJ      0.078200
     23 HN11        1.9570    1.9330   -2.6700 hn        1 MAJ      0.452467
     24 HN12        1.9290    2.2790   -1.0620 hn        1 MAJ      0.452467
     25 H13         3.3630    2.0040   -1.8190 hn        1 MAJ      0.452467
@<TRIPOS>BOND
     1    1    2 ar  
     2    1    5 ar  
     3    1   14 1   
     4    2    3 ar  
     5    2   10 1   
     6    3    4 ar  
     7    3   15 1   
     8    4    6 ar  
     9    4   16 1   
    10    5    6 ar  
    11    5    9 1   
    12    6    7 1   
    13    7    8 1   
    14    7   17 1   
    15    7   18 1   
    16    8    9 1   
    17    8   19 1   
    18    8   20 1   
    19    9   21 1   
    20    9   22 1   
    21   10   11 2   
    22   10   12 2   
    23   10   13 1   
    24   13   23 1   
    25   13   24 1   
    26   13   25 1   
@<TRIPOS>SUBSTRUCTURE
     1 MAJ         1 TEMP              0 ****  ****    0 ROOT
