@<TRIPOS>MOLECULE
MAJ
   25    26     1     0     0
SMALL
bcc


@<TRIPOS>ATOM
      1 C1          0.0270   -0.1260   -0.0550 ca        1 MAJ      0.003000
      2 C2          1.4480   -0.0840   -0.0460 ca        1 MAJ     -0.575500
      3 C3          2.1070   -0.0360    1.2050 ca        1 MAJ      0.025000
      4 C4          1.4080   -0.0220    2.4050 ca        1 MAJ     -0.150000
      5 C5         -0.6710   -0.1120    1.1300 ca        1 MAJ     -0.100300
      6 C6          0.0170   -0.0610    2.3730 ca        1 MAJ      0.066700
      7 C7         -0.9440   -0.0690    3.5100 c3        1 MAJ     -0.070100
      8 C8         -2.3380   -0.1260    2.8690 c3        1 MAJ     -0.084400
      9 C9         -2.1480   -0.1600    1.3460 c3        1 MAJ     -0.045100
     10 S1          2.2660   -0.1870   -1.4040 sy        1 MAJ      1.499200
     11 O1          3.6090   -0.4670   -1.2740 o         1 MAJ     -0.569800
     12 O2          1.5480   -0.5840   -2.5110 o         1 MAJ     -0.569800
     13 N1          2.3830    1.7110   -1.7800 n4        1 MAJ     -0.784500
     14 H1         -0.5080   -0.1930   -1.0200 ha        1 MAJ      0.169000
     15 H3          3.2140   -0.0310    1.2260 ha        1 MAJ      0.167000
     16 H4          1.9490    0.0080    3.3660 ha        1 MAJ      0.178000
     17 H71        -0.7630   -0.9560    4.1720 hc        1 MAJ      0.092700
     18 H72        -0.8210    0.8510    4.1400 hc        1 MAJ      0.092700
     19 H81        -2.8870   -1.0370    3.2140 hc        1 MAJ      0.071700
     20 H82        -2.9410    0.7670    3.1680 hc        1 MAJ      0.071700
     21 H91        -2.6520    0.7130    0.8570 hc        1 MAJ      0.078200
     22 H92        -2.5830   -1.0940    0.9060 hc        1 MAJ      0.078200
     23 HN11        3.3580    2.0010   -1.8270 hn        1 MAJ      0.452467
     24 HN12        1.9210    2.2730   -1.0730 hn        1 MAJ      0.452467
     25 H13         1.9530    1.9180   -2.6790 hn        1 MAJ      0.452467
@<TRIPOS>BOND
     1    1    2 ar  
     2    1    5 ar  
     3    1   14 1   
     4    2    3 ar  
     5    2   10 1   
     6    3    4 ar  
     7    3   15 1   
     8    4    6 ar  
     9    4   16 1   
    10    5    6 ar  
    11    5    9 1   
    12    6    7 1   
    13    7    8 1   
    14    7   17 1   
    15    7   18 1   
    16    8    9 1   
    17    8   19 1   
    18    8   20 1   
    19    9   21 1   
    20    9   22 1   
    21   10   11 2   
    22   10   12 2   
    23   10   13 1   
    24   13   23 1   
    25   13   24 1   
    26   13   25 1   
@<TRIPOS>SUBSTRUCTURE
     1 MAJ         1 TEMP              0 ****  ****    0 ROOT
