@<TRIPOS>MOLECULE
MAJ
   24    25     1     0     0
SMALL
bcc


@<TRIPOS>ATOM
      1 C1         -0.3040    0.8790   -0.0270 ca        1 MAJ     -0.013000
      2 C2          0.6360   -0.1670   -0.0280 ca        1 MAJ     -0.390500
      3 C3          0.1850   -1.4900   -0.0250 ca        1 MAJ     -0.013000
      4 C4         -1.1780   -1.8000   -0.0070 ca        1 MAJ     -0.149000
      5 C5         -1.6550    0.5850   -0.0090 ca        1 MAJ     -0.112300
      6 C6         -2.0950   -0.7600    0.0030 ca        1 MAJ     -0.020300
      7 C7         -3.5850   -0.8300    0.0190 c3        1 MAJ     -0.048100
      8 C8         -4.0620    0.6290    0.0130 c3        1 MAJ     -0.080400
      9 C9         -2.8140    1.5240   -0.0080 c3        1 MAJ     -0.035100
     10 S1          2.2880    0.1780   -0.0720 sy        1 MAJ      1.528200
     11 O1          2.9590   -0.9190   -0.6550 o         1 MAJ     -0.659800
     12 O2          2.4660    1.4460   -0.6660 o         1 MAJ     -0.659800
     13 N1          2.6850    0.2680    1.4790 n3        1 MAJ     -1.026700
     14 H1          0.0460    1.9250   -0.0600 ha        1 MAJ      0.154000
     15 H3          0.9250   -2.3100   -0.0550 ha        1 MAJ      0.151000
     16 H4         -1.5100   -2.8480   -0.0080 ha        1 MAJ      0.143000
     17 H71        -3.9650   -1.3820   -0.8790 hc        1 MAJ      0.062700
     18 H72        -3.9480   -1.3700    0.9300 hc        1 MAJ      0.062700
     19 H81        -4.6980    0.8270   -0.8840 hc        1 MAJ      0.048700
     20 H82        -4.6780    0.8410    0.9210 hc        1 MAJ      0.048700
     21 H91        -2.7840    2.1930    0.8890 hc        1 MAJ      0.058200
     22 H92        -2.8000    2.1740   -0.9190 hc        1 MAJ      0.058200
     23 HN11        2.6600    1.1060    2.0020 hn        1 MAJ      0.446800
     24 HN12        3.0030   -0.5040    2.0070 hn        1 MAJ      0.446800
@<TRIPOS>BOND
     1    1    2 ar  
     2    1    5 ar  
     3    1   14 1   
     4    2    3 ar  
     5    2   10 1   
     6    3    4 ar  
     7    3   15 1   
     8    4    6 ar  
     9    4   16 1   
    10    5    6 ar  
    11    5    9 1   
    12    6    7 1   
    13    7    8 1   
    14    7   17 1   
    15    7   18 1   
    16    8    9 1   
    17    8   19 1   
    18    8   20 1   
    19    9   21 1   
    20    9   22 1   
    21   10   11 2   
    22   10   12 2   
    23   10   13 1   
    24   13   23 1   
    25   13   24 1   
@<TRIPOS>SUBSTRUCTURE
     1 MAJ         1 TEMP              0 ****  ****    0 ROOT
