@<TRIPOS>MOLECULE
MAJ
   25    26     1     0     0
SMALL
bcc


@<TRIPOS>ATOM
      1 C1          0.0340   -0.1230   -0.0580 ca        1 MAJ      0.003000
      2 C2          1.4550   -0.0740   -0.0410 ca        1 MAJ     -0.575500
      3 C3          2.1070   -0.0280    1.2130 ca        1 MAJ      0.025000
      4 C4          1.4010   -0.0220    2.4100 ca        1 MAJ     -0.150000
      5 C5         -0.6710   -0.1180    1.1230 ca        1 MAJ     -0.100300
      6 C6          0.0110   -0.0680    2.3710 ca        1 MAJ      0.066700
      7 C7         -0.9560   -0.0850    3.5020 c3        1 MAJ     -0.070100
      8 C8         -2.3460   -0.1480    2.8540 c3        1 MAJ     -0.084400
      9 C9         -2.1480   -0.1750    1.3320 c3        1 MAJ     -0.045100
     10 S1          2.2800   -0.1680   -1.3950 sy        1 MAJ      1.499200
     11 O1          3.6240   -0.4420   -1.2590 o         1 MAJ     -0.569800
     12 O2          1.5700   -0.5640   -2.5080 o         1 MAJ     -0.569800
     13 N1          2.3890    1.7320   -1.7630 nz        1 MAJ     -0.784500
     14 H1         -0.4960   -0.1900   -1.0260 ha        1 MAJ      0.169000
     15 H3          3.2140   -0.0170    1.2400 ha        1 MAJ      0.167000
     16 H4          1.9380    0.0070    3.3730 ha        1 MAJ      0.178000
     17 H71        -0.8410    0.8320    4.1360 hc        1 MAJ      0.092700
     18 H72        -0.7740   -0.9740    4.1620 hc        1 MAJ      0.092700
     19 H81        -2.8920   -1.0630    3.1920 hc        1 MAJ      0.071700
     20 H82        -2.9550    0.7410    3.1530 hc        1 MAJ      0.071700
     21 H91        -2.6540    0.6970    0.8440 hc        1 MAJ      0.078200
     22 H92        -2.5760   -1.1090    0.8870 hc        1 MAJ      0.078200
     23 HN11        3.3620    2.0270   -1.8040 hn        1 MAJ      0.452467
     24 HN12        1.9210    2.2890   -1.0570 hn        1 MAJ      0.452467
     25 H13         1.9630    1.9410   -2.6640 hn        1 MAJ      0.452467
@<TRIPOS>BOND
     1    1    2 ar  
     2    1    5 ar  
     3    1   14 1   
     4    2    3 ar  
     5    2   10 1   
     6    3    4 ar  
     7    3   15 1   
     8    4    6 ar  
     9    4   16 1   
    10    5    6 ar  
    11    5    9 1   
    12    6    7 1   
    13    7    8 1   
    14    7   17 1   
    15    7   18 1   
    16    8    9 1   
    17    8   19 1   
    18    8   20 1   
    19    9   21 1   
    20    9   22 1   
    21   10   11 2   
    22   10   12 2   
    23   10   13 1   
    24   13   23 1   
    25   13   24 1   
    26   13   25 1   
@<TRIPOS>SUBSTRUCTURE
     1 MAJ         1 TEMP              0 ****  ****    0 ROOT
