@<TRIPOS>MOLECULE
MAK
    8     7     1     0     0
SMALL
bcc


@<TRIPOS>ATOM
      1 C1          0.1990    0.0000    1.3650 c         1 MAK      0.820600
      2 O1          1.4570    0.0000    1.4690 o         1 MAK     -0.851300
      3 O2         -0.5410   -0.0000    2.4020 o         1 MAK     -0.851300
      4 C2         -0.5140    0.0000    0.0000 c         1 MAK      0.363100
      5 O3         -1.7570    0.0000    0.0000 o         1 MAK     -0.598100
      6 C3          0.1990   -0.0000   -1.3650 c         1 MAK      0.820600
      7 O4          1.4570   -0.0000   -1.4690 o         1 MAK     -0.851300
      8 O5         -0.5410    0.0000   -2.4020 o         1 MAK     -0.851300
@<TRIPOS>BOND
     1    1    2 1   
     2    1    3 1   
     3    1    4 1   
     4    4    5 2   
     5    4    6 1   
     6    6    7 1   
     7    6    8 1   
@<TRIPOS>SUBSTRUCTURE
     1 MAK         1 TEMP              0 ****  ****    0 ROOT
