@<TRIPOS>MOLECULE
MAL
   45    46     1     0     0
SMALL
bcc


@<TRIPOS>ATOM
      1 C1         -1.1470    0.6750   -1.0100 c3        1 MAL      0.299900
      2 C2         -1.9390   -0.1030   -2.0770 c3        1 MAL      0.095100
      3 C3         -1.0020   -0.8810   -3.0110 c3        1 MAL      0.074100
      4 C4          0.1080    0.0440   -3.5370 c3        1 MAL      0.125100
      5 C5          0.8560    0.6290   -2.3290 c3        1 MAL      0.136100
      6 C6          1.9610    1.5940   -2.7580 c3        1 MAL      0.136400
      7 O1         -0.6260   -0.2820   -0.0970 os        1 MAL     -0.456600
      8 O2         -2.8830   -0.9780   -1.4970 oh        1 MAL     -0.592800
      9 O3         -1.7000   -1.3660   -4.1460 oh        1 MAL     -0.607800
     10 O4          1.0450   -0.6800   -4.3130 oh        1 MAL     -0.595800
     11 O5         -0.0540    1.3930   -1.5300 os        1 MAL     -0.426600
     12 O6          2.9190    1.6000   -1.7100 oh        1 MAL     -0.604800
     13 C1'         0.5620   -0.0330    3.9050 c3        1 MAL      0.306900
     14 C2'        -0.5680    0.9220    3.4870 c3        1 MAL      0.093100
     15 C3'        -1.1870    0.5050    2.1420 c3        1 MAL      0.087100
     16 C4'        -0.0800    0.2790    1.0980 c3        1 MAL      0.132100
     17 C5'         0.9050   -0.7660    1.6490 c3        1 MAL      0.101100
     18 C6'         2.0820   -1.0040    0.6970 c3        1 MAL      0.136400
     19 O1'        -0.0210   -1.2650    4.2590 oh        1 MAL     -0.636800
     20 O2'        -1.5690    0.9960    4.4790 oh        1 MAL     -0.592800
     21 O3'        -2.0330    1.5380    1.6650 oh        1 MAL     -0.603800
     22 O5'         1.4850   -0.2990    2.8720 os        1 MAL     -0.450600
     23 O6'         3.0570   -1.8320    1.2920 oh        1 MAL     -0.594800
     24 H1         -1.7870    1.4480   -0.4940 h2        1 MAL      0.124700
     25 H2         -2.5540    0.6280   -2.6760 h1        1 MAL      0.099700
     26 H3         -0.5450   -1.7490   -2.4560 h1        1 MAL      0.062700
     27 H4         -0.3450    0.8640   -4.1600 h1        1 MAL      0.058700
     28 H5          1.2930   -0.2020   -1.7080 h1        1 MAL      0.081700
     29 H61         1.5460    2.6250   -2.9110 h1        1 MAL      0.048700
     30 H62         2.4290    1.2170   -3.7070 h1        1 MAL      0.048700
     31 HO2        -2.4230   -1.5000   -0.8250 ho        1 MAL      0.421000
     32 HO3        -2.5010   -1.7960   -3.8150 ho        1 MAL      0.424000
     33 HO4         0.5330   -1.1710   -4.9710 ho        1 MAL      0.426000
     34 HO6         3.6090    2.2200   -1.9740 ho        1 MAL      0.404000
     35 H1'         1.1800    0.3980    4.7430 h2        1 MAL      0.086700
     36 H2'        -0.1580    1.9690    3.4090 h1        1 MAL      0.102700
     37 H3'        -1.7860   -0.4400    2.2740 h1        1 MAL      0.060700
     38 H4'         0.4430    1.2470    0.8670 h1        1 MAL      0.092700
     39 H5'         0.3640   -1.7320    1.8510 h1        1 MAL      0.071700
     40 H6'1        1.7140   -1.5780   -0.1960 h1        1 MAL      0.069700
     41 H6'2        2.5290   -0.0260    0.3710 h1        1 MAL      0.069700
     42 HO1'        0.6940   -1.8750    4.4810 ho        1 MAL      0.431000
     43 HO2'       -1.8470    0.0920    4.6830 ho        1 MAL      0.423000
     44 HO3'       -2.6230    1.7730    2.3950 ho        1 MAL      0.422000
     45 HO6'        3.4080   -1.3550    2.0550 ho        1 MAL      0.409000
@<TRIPOS>BOND
     1    1    2 1   
     2    1    7 1   
     3    1   11 1   
     4    1   24 1   
     5    2    3 1   
     6    2    8 1   
     7    2   25 1   
     8    3    4 1   
     9    3    9 1   
    10    3   26 1   
    11    4    5 1   
    12    4   10 1   
    13    4   27 1   
    14    5    6 1   
    15    5   11 1   
    16    5   28 1   
    17    6   12 1   
    18    6   29 1   
    19    6   30 1   
    20    7   16 1   
    21    8   31 1   
    22    9   32 1   
    23   10   33 1   
    24   12   34 1   
    25   13   14 1   
    26   13   19 1   
    27   13   22 1   
    28   13   35 1   
    29   14   15 1   
    30   14   20 1   
    31   14   36 1   
    32   15   16 1   
    33   15   21 1   
    34   15   37 1   
    35   16   17 1   
    36   16   38 1   
    37   17   18 1   
    38   17   22 1   
    39   17   39 1   
    40   18   23 1   
    41   18   40 1   
    42   18   41 1   
    43   19   42 1   
    44   20   43 1   
    45   21   44 1   
    46   23   45 1   
@<TRIPOS>SUBSTRUCTURE
     1 MAL         1 TEMP              0 ****  ****    0 ROOT
