@<TRIPOS>MOLECULE
MAM
   27    25     1     0     0
SMALL
bcc


@<TRIPOS>ATOM
      1 C1          0.7800   -0.6060    0.4400 c2        1 MAM     -0.322500
      2 C2          2.2170   -0.2990    0.5860 c3        1 MAM      0.042000
      3 C3          2.4680    0.6670    1.7580 c3        1 MAM     -0.042000
      4 C4          1.4220    1.8000    1.7210 c3        1 MAM      0.042000
      5 C5          0.0550    1.2400    1.6320 c2        1 MAM     -0.322500
      6 C6         -1.4060    3.4040    4.1880 c2        1 MAM      0.135000
      7 O1         -1.2380   -2.8510   -0.9130 oh        1 MAM     -0.338000
      8 O2          2.7900    0.2430   -0.5990 oh        1 MAM     -0.330500
      9 O3          3.7640    1.2260    1.7340 oh        1 MAM     -0.325000
     10 O4          1.5010    2.6160    2.8800 oh        1 MAM     -0.330500
     11 O5         -0.1890    0.1150    0.9910 os        1 MAM      0.128000
     12 O6         -2.2290    2.8020    3.5010 o         1 MAM     -0.301000
     13 H1         -1.5190   -3.6220   -1.4200 ho        1 MAM      0.199000
     14 H2          0.3910   -1.4630   -0.1250 h4        1 MAM      0.219500
     15 H3          2.8000   -1.2510    0.7570 h1        1 MAM      0.114500
     16 H4          2.4020    0.1190    2.7380 h1        1 MAM      0.136000
     17 H5          1.6230    2.4460    0.8130 h1        1 MAM      0.114500
     18 H61        -0.8300    1.6850    2.1060 h4        1 MAM      0.219500
     19 H62        -0.3120    3.3140    4.0140 h4        1 MAM      0.084500
     20 H71        -2.0150   -1.4250    0.2810 h1        1 MAM      0.072333
     21 H72        -3.1380   -1.9910   -1.0570 h1        1 MAM      0.072333
     22 H73        -2.8500   -3.0560    0.4020 h1        1 MAM      0.072333
     23 HO2         2.1350    0.8230   -1.0060 ho        1 MAM      0.215500
     24 HO3         4.0060    1.3760    0.8080 ho        1 MAM      0.222000
     25 HO4         2.4440    2.7500    3.0500 ho        1 MAM      0.215500
     26 HO6        -1.7160    4.0720    5.0210 h4        1 MAM      0.084500
     27 C7         -2.3870   -2.3130   -0.2930 c3        1 MAM     -0.078000
@<TRIPOS>BOND
     1    1    2 1   
     2    1   11 1   
     3    1   14 1   
     4    2    3 1   
     5    2    8 1   
     6    2   15 1   
     7    3    4 1   
     8    3    9 1   
     9    3   16 1   
    10    4    5 1   
    11    4   10 1   
    12    4   17 1   
    13    5   11 1   
    14    5   18 1   
    15    6   12 1   
    16    6   19 1   
    17    6   26 1   
    18    7   13 1   
    19    7   27 1   
    20    8   23 1   
    21    9   24 1   
    22   10   25 1   
    23   20   27 1   
    24   21   27 1   
    25   22   27 1   
@<TRIPOS>SUBSTRUCTURE
     1 MAM         1 TEMP              0 ****  ****    0 ROOT
