@<TRIPOS>MOLECULE
MAM
   27    27     1     0     0
SMALL
bcc


@<TRIPOS>ATOM
      1 C1         -0.5260   -0.4430   -1.2360 c3        1 MAM      0.299900
      2 C2          0.9880   -0.4430   -1.2360 c3        1 MAM      0.095100
      3 C3          1.5510   -0.4430    0.1360 c3        1 MAM      0.075100
      4 C4          0.9750    0.6420    0.9830 c3        1 MAM      0.091100
      5 C5         -0.5440    0.6390    0.9720 c3        1 MAM      0.101100
      6 C6         -1.0360    1.8560    1.6890 c3        1 MAM      0.141400
      7 C7         -1.8770   -2.3090   -1.6380 c3        1 MAM      0.118700
      8 O1         -0.9720   -1.6620   -0.7700 os        1 MAM     -0.439600
      9 O2          1.4530    0.7310   -1.9300 oh        1 MAM     -0.591800
     10 O3          2.9890   -0.2600    0.0530 oh        1 MAM     -0.594800
     11 O4          1.4280    0.4680    2.3320 oh        1 MAM     -0.590800
     12 O5         -1.0950    0.6350   -0.3840 os        1 MAM     -0.459600
     13 O6         -2.4460    1.8680    1.6830 oh        1 MAM     -0.594800
     14 H1         -0.8410   -0.3200   -2.1510 h2        1 MAM      0.090700
     15 H2          1.3040   -1.2370   -1.7070 h1        1 MAM      0.111700
     16 H3          1.3650   -1.3050    0.5550 h1        1 MAM      0.108700
     17 H4          1.2910    1.5040    0.6520 h1        1 MAM      0.039700
     18 H5         -0.8610   -0.1550    1.4430 h1        1 MAM      0.085700
     19 H61        -0.7020    2.6560    1.2410 h1        1 MAM      0.063200
     20 H62        -0.7150    1.8420    2.6110 h1        1 MAM      0.063200
     21 H71        -1.4190   -2.5450   -2.4670 h1        1 MAM      0.043367
     22 H72        -2.6210   -1.7100   -1.8360 h1        1 MAM      0.043367
     23 H73        -2.2150   -3.1190   -1.2110 h1        1 MAM      0.043367
     24 HO2         1.7980    0.4940   -2.7130 ho        1 MAM      0.412000
     25 HO3         3.3970   -1.0120    0.2870 ho        1 MAM      0.417000
     26 HO4         2.0720    1.0530    2.5060 ho        1 MAM      0.424000
     27 HO6        -2.7380    2.5740    2.1350 ho        1 MAM      0.407000
@<TRIPOS>BOND
     1    1    2 1   
     2    1    8 1   
     3    1   12 1   
     4    1   14 1   
     5    2    3 1   
     6    2    9 1   
     7    2   15 1   
     8    3    4 1   
     9    3   10 1   
    10    3   16 1   
    11    4    5 1   
    12    4   11 1   
    13    4   17 1   
    14    5    6 1   
    15    5   12 1   
    16    5   18 1   
    17    6   13 1   
    18    6   19 1   
    19    6   20 1   
    20    7    8 1   
    21    7   21 1   
    22    7   22 1   
    23    7   23 1   
    24    9   24 1   
    25   10   25 1   
    26   11   26 1   
    27   13   27 1   
@<TRIPOS>SUBSTRUCTURE
     1 MAM         1 TEMP              0 ****  ****    0 ROOT
