@<TRIPOS>MOLECULE
MAM
   27    25     1     0     0
SMALL
bcc


@<TRIPOS>ATOM
      1 C1          0.6560    0.5820   -0.8480 c         1 MAM      0.537900
      2 C2          1.9710    0.2690   -0.1760 c3        1 MAM     -0.009900
      3 C3          1.7920    0.2190    1.3530 c3        1 MAM      0.093100
      4 C4          1.2590    1.5540    1.9250 c3        1 MAM      0.165300
      5 C5         -0.0480    1.3530    2.6100 c2        1 MAM     -0.348200
      6 C6         -0.3860    2.0120    3.7290 c2        1 MAM      0.062100
      7 O1         -1.1560   -1.4000    0.9950 oh        1 MAM     -0.623800
      8 O2          3.0070    1.1650   -0.5260 oh        1 MAM     -0.585800
      9 O3          3.0230   -0.1040    1.9680 oh        1 MAM     -0.594800
     10 O4          2.2400    2.1390    2.7650 oh        1 MAM     -0.598800
     11 O5          0.4850    1.6160   -1.4950 o         1 MAM     -0.522100
     12 O6         -1.5790    1.8790    4.3830 oh        1 MAM     -0.503100
     13 H1         -0.9380   -2.0820    1.6420 ho        1 MAM      0.406000
     14 H2         -0.1430   -0.1790   -0.7030 h4        1 MAM      0.030200
     15 H3          2.3440   -0.7380   -0.5290 h1        1 MAM      0.104700
     16 H4          1.1040   -0.6330    1.6150 h1        1 MAM      0.090700
     17 H5          1.1330    2.3110    1.0940 h1        1 MAM      0.078700
     18 H61        -0.7350    0.6440    2.1190 ha        1 MAM      0.147000
     19 H62         0.2570    2.7360    4.2610 h4        1 MAM      0.176000
     20 H71        -2.4980   -1.0350   -0.4670 h1        1 MAM      0.035700
     21 H72        -3.1570   -1.9990    0.9470 h1        1 MAM      0.035700
     22 H73        -2.0510   -2.8030   -0.2690 h1        1 MAM      0.035700
     23 HO2         2.6310    2.0560   -0.5560 ho        1 MAM      0.420000
     24 HO3         3.6750    0.5420    1.6530 ho        1 MAM      0.427000
     25 HO4         2.4360    1.5020    3.4660 ho        1 MAM      0.415000
     26 HO6        -2.1450    1.2650    3.8910 ho        1 MAM      0.414000
     27 C7         -2.2810   -1.8500    0.2690 c3        1 MAM      0.111700
@<TRIPOS>BOND
     1    1    2 1   
     2    1   11 2   
     3    1   14 1   
     4    2    3 1   
     5    2    8 1   
     6    2   15 1   
     7    3    4 1   
     8    3    9 1   
     9    3   16 1   
    10    4    5 1   
    11    4   10 1   
    12    4   17 1   
    13    5    6 2   
    14    5   18 1   
    15    6   12 1   
    16    6   19 1   
    17    7   13 1   
    18    7   27 1   
    19    8   23 1   
    20    9   24 1   
    21   10   25 1   
    22   12   26 1   
    23   20   27 1   
    24   21   27 1   
    25   22   27 1   
@<TRIPOS>SUBSTRUCTURE
     1 MAM         1 TEMP              0 ****  ****    0 ROOT
