@<TRIPOS>MOLECULE
MAN
   24    24     1     0     0
SMALL
bcc


@<TRIPOS>ATOM
      1 C1         -1.6970   -0.0800   -0.1790 c3        1 MAN      0.311900
      2 C2         -0.9450   -0.0320   -1.5220 c3        1 MAN      0.095100
      3 C3          0.4900   -0.5570   -1.3830 c3        1 MAN      0.115100
      4 C4          1.1750    0.0810   -0.1630 c3        1 MAN      0.090100
      5 C5          0.3420   -0.2060    1.0910 c3        1 MAN      0.106100
      6 C6          0.9500    0.4640    2.3250 c3        1 MAN      0.140400
      7 O1         -2.0470   -1.4220    0.0660 oh        1 MAN     -0.624800
      8 O2         -0.8460    1.3060   -1.9810 oh        1 MAN     -0.599800
      9 O3          1.2510   -0.3210   -2.5490 oh        1 MAN     -0.594800
     10 O4          2.4620   -0.4750    0.0440 oh        1 MAN     -0.594800
     11 O5         -0.9690    0.3540    0.9490 os        1 MAN     -0.454600
     12 O6          0.2340    0.1310    3.4940 oh        1 MAN     -0.595800
     13 H1         -2.6040    0.5930   -0.1980 h2        1 MAN      0.069700
     14 H2         -1.5040   -0.6600   -2.2710 h1        1 MAN      0.074700
     15 H3          0.4660   -1.6790   -1.2730 h1        1 MAN      0.104700
     16 H4          1.2670    1.1920   -0.3240 h1        1 MAN      0.061700
     17 H5          0.2480   -1.3160    1.2500 h1        1 MAN      0.074700
     18 H61         0.9760    1.5770    2.1830 h1        1 MAN      0.064700
     19 H62         1.9880    0.0660    2.4820 h1        1 MAN      0.064700
     20 HO1        -2.3910   -1.4730    0.9670 ho        1 MAN      0.427000
     21 HO2        -1.7390    1.6010   -2.1960 ho        1 MAN      0.415000
     22 HO3         1.1680    0.6180   -2.7670 ho        1 MAN      0.421000
     23 HO4         2.8720   -0.5530   -0.8290 ho        1 MAN      0.422000
     24 HO6        -0.6670    0.4580    3.3760 ho        1 MAN      0.406000
@<TRIPOS>BOND
     1    1    2 1   
     2    1    7 1   
     3    1   11 1   
     4    1   13 1   
     5    2    3 1   
     6    2    8 1   
     7    2   14 1   
     8    3    4 1   
     9    3    9 1   
    10    3   15 1   
    11    4    5 1   
    12    4   10 1   
    13    4   16 1   
    14    5    6 1   
    15    5   11 1   
    16    5   17 1   
    17    6   12 1   
    18    6   18 1   
    19    6   19 1   
    20    7   20 1   
    21    8   21 1   
    22    9   22 1   
    23   10   23 1   
    24   12   24 1   
@<TRIPOS>SUBSTRUCTURE
     1 MAN         1 TEMP              0 ****  ****    0 ROOT
