@<TRIPOS>MOLECULE
MAO
   48    50     1     0     0
SMALL
bcc


@<TRIPOS>ATOM
      1 N           2.5500   -3.0020    1.5040 n4        1 MAO     -0.608100
      2 OA          2.6320   -1.7600    0.9480 os        1 MAO     -0.237100
      3 CB          3.0340   -0.6500    1.8160 c3        1 MAO      0.078400
      4 CG          3.5970    0.4060    0.8640 c3        1 MAO      0.090800
      5 ND          2.5800    1.2490    0.1600 n4        1 MAO     -0.682400
      6 CE          3.1420    1.7900   -1.1130 c3        1 MAO      0.084100
      7 C5'         2.0520    2.3610    1.0260 c3        1 MAO      0.103800
      8 C4'         3.0180    3.5240    1.2480 c3        1 MAO      0.082100
      9 O4'         2.9280    4.4280    0.1460 os        1 MAO     -0.438600
     10 C1'         3.1940    5.7840    0.6130 c3        1 MAO      0.230800
     11 N9          2.3090    6.7110   -0.0370 na        1 MAO     -0.284000
     12 C4          2.6870    7.6020   -1.0640 ca        1 MAO      0.466800
     13 N3          3.8660    7.7970   -1.7020 nb        1 MAO     -0.631000
     14 C2          3.8340    8.7890   -2.6310 ca        1 MAO      0.698900
     15 N1          2.7840    9.5900   -2.9790 nb        1 MAO     -0.656000
     16 C6          1.6090    9.3890   -2.3340 ca        1 MAO      0.553200
     17 N6          0.4560   10.2490   -2.6570 n4        1 MAO     -0.821300
     18 C5          1.4710    8.3860   -1.3520 ca        1 MAO     -0.144200
     19 N7          0.4150    7.9490   -0.5380 nc        1 MAO     -0.540100
     20 C8          0.9360    6.9700    0.2150 cd        1 MAO      0.485700
     21 C2'         3.0910    5.7620    2.1810 c3        1 MAO      0.087100
     22 O2'         4.3930    5.9490    2.6830 oh        1 MAO     -0.587800
     23 C3'         2.6560    4.3200    2.5280 c3        1 MAO      0.126100
     24 O3'         3.2790    3.7410    3.6380 oh        1 MAO     -0.581800
     25 HN1         3.4710   -3.3080    1.8710 hn        1 MAO      0.500800
     26 HN2         1.8360   -3.0280    2.2540 hn        1 MAO      0.500800
     27 HB1         2.1280   -0.3180    2.3890 h1        1 MAO      0.119200
     28 HB2         3.8530   -0.9670    2.5210 h1        1 MAO      0.119200
     29 HG1         4.2710    1.0860    1.4690 hx        1 MAO      0.146200
     30 HG2         4.2310   -0.1080    0.0770 hx        1 MAO      0.146200
     31 HE1         4.0850    2.3640   -0.8980 hx        1 MAO      0.121033
     32 HE2         3.3550    0.9450   -1.8210 hx        1 MAO      0.121033
     33 HE3         2.3920    2.4960   -1.5670 hx        1 MAO      0.121033
     34 H5'1        1.1150    2.7480    0.5270 hx        1 MAO      0.120200
     35 H5'2        1.7920    1.9220    2.0330 hx        1 MAO      0.120200
     36 H4'         4.0880    3.1770    1.3250 h1        1 MAO      0.082700
     37 H1'         4.2610    6.0160    0.2990 h2        1 MAO      0.150700
     38 H2          4.7880    8.9860   -3.1830 h5        1 MAO      0.119100
     39 HN61       -0.3930    9.6700   -2.7070 hn        1 MAO      0.489133
     40 HN62        0.3450   10.9500   -1.9100 hn        1 MAO      0.489133
     41 H8          0.3740    6.4100    0.9790 h5        1 MAO      0.097800
     42 H2'         2.3640    6.5130    2.5840 h1        1 MAO      0.100700
     43 HO2'        4.4340    6.8060    3.1340 ho        1 MAO      0.460000
     44 H3'         1.5500    4.2790    2.7330 h1        1 MAO      0.095700
     45 HO3'        4.1100    4.2090    3.8290 ho        1 MAO      0.459000
     46 HN3         2.2600   -3.6280    0.7190 hn        1 MAO      0.500800
     47 HD1         1.7780    0.6480   -0.0810 hn        1 MAO      0.454800
     48 H63         0.5970   10.7370   -3.5560 hn        1 MAO      0.489133
@<TRIPOS>BOND
     1    1    2 1   
     2    1   25 1   
     3    1   26 1   
     4    1   46 1   
     5    2    3 1   
     6    3    4 1   
     7    3   27 1   
     8    3   28 1   
     9    4    5 1   
    10    4   29 1   
    11    4   30 1   
    12    5    6 1   
    13    5    7 1   
    14    5   47 1   
    15    6   31 1   
    16    6   32 1   
    17    6   33 1   
    18    7    8 1   
    19    7   34 1   
    20    7   35 1   
    21    8    9 1   
    22    8   23 1   
    23    8   36 1   
    24    9   10 1   
    25   10   11 1   
    26   10   21 1   
    27   10   37 1   
    28   11   12 1   
    29   11   20 1   
    30   12   13 ar  
    31   12   18 ar  
    32   13   14 ar  
    33   14   15 ar  
    34   14   38 1   
    35   15   16 ar  
    36   16   17 1   
    37   16   18 ar  
    38   17   39 1   
    39   17   40 1   
    40   17   48 1   
    41   18   19 1   
    42   19   20 2   
    43   20   41 1   
    44   21   22 1   
    45   21   23 1   
    46   21   42 1   
    47   22   43 1   
    48   23   24 1   
    49   23   44 1   
    50   24   45 1   
@<TRIPOS>SUBSTRUCTURE
     1 MAO         1 TEMP              0 ****  ****    0 ROOT
