@<TRIPOS>MOLECULE
MAO
   45    47     1     0     0
SMALL
bcc


@<TRIPOS>ATOM
      1 N          -3.4410   -0.9150   -1.9500 n3        1 MAO     -0.666300
      2 OA         -2.4550   -0.1780   -2.5050 os        1 MAO     -0.262100
      3 CB         -1.8910   -0.7820   -3.6920 c3        1 MAO      0.135400
      4 CG         -0.9540    0.2560   -4.3140 c3        1 MAO      0.166800
      5 ND          0.1080    0.7570   -3.4550 n3        1 MAO     -0.732600
      6 CE          0.9280    1.7440   -4.1200 c3        1 MAO      0.154100
      7 C5'         0.8570   -0.2950   -2.7920 c3        1 MAO      0.153800
      8 C4'         2.0490    0.1830   -1.9510 c3        1 MAO      0.093100
      9 O4'         1.6450    1.1760   -0.9980 os        1 MAO     -0.389600
     10 C1'         1.6200    0.6410    0.3250 c3        1 MAO      0.226800
     11 N9          0.2650    0.4540    0.7910 na        1 MAO     -0.293000
     12 C4         -0.0660    0.0890    2.1060 ca        1 MAO      0.441800
     13 N3          0.7300   -0.2120    3.1760 nb        1 MAO     -0.754000
     14 C2          0.0130   -0.5100    4.2850 ca        1 MAO      0.684900
     15 N1         -1.3320   -0.5530    4.4740 nb        1 MAO     -0.791000
     16 C6         -2.1380   -0.2690    3.3960 ca        1 MAO      0.753200
     17 N6         -3.5050   -0.3520    3.4940 nh        1 MAO     -0.950500
     18 C5         -1.5230    0.0770    2.1460 ca        1 MAO     -0.221200
     19 N7         -2.0370    0.4260    0.8870 nc        1 MAO     -0.575100
     20 C8         -0.9640    0.6460    0.1130 cd        1 MAO      0.438700
     21 C2'         2.4590   -0.6810    0.3120 c3        1 MAO      0.079100
     22 O2'         3.7150   -0.4330    0.9070 oh        1 MAO     -0.594800
     23 C3'         2.6830   -0.9990   -1.1830 c3        1 MAO      0.128100
     24 O3'         4.0320   -1.1790   -1.5310 oh        1 MAO     -0.576800
     25 HN1        -3.1280   -1.1680   -1.0170 hn        1 MAO      0.350300
     26 HN2        -4.2310   -0.2850   -1.8330 hn        1 MAO      0.350300
     27 HB1        -2.7010   -1.0220   -4.4290 h1        1 MAO      0.042200
     28 HB2        -1.3520   -1.7240   -3.4140 h1        1 MAO      0.042200
     29 HG1        -1.5740    1.1500   -4.6080 h1        1 MAO      0.042200
     30 HG2        -0.5430   -0.2150   -5.2560 h1        1 MAO      0.042200
     31 HE1         1.5040    2.3070   -3.3380 h1        1 MAO      0.036367
     32 HE2         1.6510    1.2990   -4.8570 h1        1 MAO      0.036367
     33 HE3         0.2700    2.4710   -4.6640 h1        1 MAO      0.036367
     34 H5'1        0.1310   -0.8190   -2.1040 h1        1 MAO      0.043700
     35 H5'2        1.2620   -1.0540   -3.5260 h1        1 MAO      0.043700
     36 H4'         2.8190    0.6930   -2.5940 h1        1 MAO      0.088700
     37 H1'         2.1150    1.4240    0.9780 h2        1 MAO      0.105700
     38 H2          0.6140   -0.7560    5.1890 h5        1 MAO      0.051100
     39 HN61       -3.9290   -0.4700    4.3810 hn        1 MAO      0.442800
     40 HN62       -4.0460    0.0180    2.7520 hn        1 MAO      0.442800
     41 H8         -0.9860    0.9380   -0.9520 h5        1 MAO      0.118800
     42 H2'         1.9360   -1.5260    0.8300 h1        1 MAO      0.081700
     43 HO2'        3.5780   -0.4440    1.8640 ho        1 MAO      0.433000
     44 H3'         2.1900   -1.9740   -1.4530 h1        1 MAO      0.093700
     45 HO3'        4.5510   -0.4800   -1.1100 ho        1 MAO      0.426000
@<TRIPOS>BOND
     1    1    2 1   
     2    1   25 1   
     3    1   26 1   
     4    2    3 1   
     5    3    4 1   
     6    3   27 1   
     7    3   28 1   
     8    4    5 1   
     9    4   29 1   
    10    4   30 1   
    11    5    6 1   
    12    5    7 1   
    13    6   31 1   
    14    6   32 1   
    15    6   33 1   
    16    7    8 1   
    17    7   34 1   
    18    7   35 1   
    19    8    9 1   
    20    8   23 1   
    21    8   36 1   
    22    9   10 1   
    23   10   11 1   
    24   10   21 1   
    25   10   37 1   
    26   11   12 1   
    27   11   20 1   
    28   12   13 ar  
    29   12   18 ar  
    30   13   14 ar  
    31   14   15 ar  
    32   14   38 1   
    33   15   16 ar  
    34   16   17 1   
    35   16   18 ar  
    36   17   39 1   
    37   17   40 1   
    38   18   19 1   
    39   19   20 2   
    40   20   41 1   
    41   21   22 1   
    42   21   23 1   
    43   21   42 1   
    44   22   43 1   
    45   23   24 1   
    46   23   44 1   
    47   24   45 1   
@<TRIPOS>SUBSTRUCTURE
     1 MAO         1 TEMP              0 ****  ****    0 ROOT
