@<TRIPOS>MOLECULE
MAO
   47    49     1     0     0
SMALL
bcc


@<TRIPOS>ATOM
      1 N          -0.5150    2.5400   -0.7510 n4        1 MAO     -0.675100
      2 OA          0.7760    2.1580   -0.5860 os        1 MAO     -0.229100
      3 CB          1.1070    1.4950    0.6720 c3        1 MAO      0.073400
      4 CG          2.5450    1.0090    0.5180 c3        1 MAO      0.101800
      5 ND          3.6060    2.0640    0.5340 n4        1 MAO     -0.676400
      6 CE          4.9050    1.4820    0.0860 c3        1 MAO      0.082100
      7 C5'         3.7430    2.7020    1.8850 c3        1 MAO      0.086800
      8 C4'         4.7440    3.8730    1.9170 c3        1 MAO      0.069100
      9 O4'         4.6430    4.6400    0.7220 os        1 MAO     -0.443600
     10 C1'         4.1340    5.9680    0.9840 c3        1 MAO      0.218800
     11 N9          2.7670    6.0420    0.5160 na        1 MAO     -0.265000
     12 C4          2.4470    6.0680   -0.8660 ca        1 MAO      0.457800
     13 N3          3.1430    6.5470   -1.9290 nb        1 MAO     -0.645000
     14 C2          2.4840    6.4140   -3.1070 ca        1 MAO      0.696900
     15 N1          1.2590    5.8550   -3.3440 nb        1 MAO     -0.691000
     16 C6          0.5660    5.3710   -2.2820 ca        1 MAO      0.634200
     17 N6         -0.6920    4.7000   -2.4390 nh        1 MAO     -0.910500
     18 C5          1.1200    5.4620   -0.9750 ca        1 MAO     -0.206200
     19 N7          0.6670    5.0720    0.2990 nc        1 MAO     -0.602100
     20 C8          1.6520    5.4140    1.1400 cd        1 MAO      0.416700
     21 C2'         4.3140    6.2180    2.5140 c3        1 MAO      0.094100
     22 O2'         5.5320    6.9070    2.6660 oh        1 MAO     -0.574800
     23 C3'         4.4750    4.8030    3.1290 c3        1 MAO      0.124100
     24 O3'         5.4980    4.7040    4.0740 oh        1 MAO     -0.554800
     25 HN1        -1.0790    1.7360   -1.0600 hn        1 MAO      0.488467
     26 HN2        -0.5050    3.3490   -1.5410 hn        1 MAO      0.488467
     27 HB1         0.4480    0.5940    0.8160 h1        1 MAO      0.103700
     28 HB2         0.9630    2.2210    1.5150 h1        1 MAO      0.103700
     29 HG1         2.6360    0.4520   -0.4640 hx        1 MAO      0.137200
     30 HG2         2.7550    0.2860    1.3630 hx        1 MAO      0.137200
     31 HE1         5.6650    2.3110    0.0240 hx        1 MAO      0.118033
     32 HE2         4.7800    1.0180   -0.9290 hx        1 MAO      0.118033
     33 HE3         5.2470    0.7050    0.8210 hx        1 MAO      0.118033
     34 H5'1        2.7210    3.0710    2.1840 hx        1 MAO      0.104200
     35 H5'2        4.0870    1.9210    2.6230 hx        1 MAO      0.104200
     36 H4'         5.8010    3.4810    1.9520 h1        1 MAO      0.123700
     37 H1'         4.7790    6.6640    0.3620 h2        1 MAO      0.176700
     38 H2          3.0070    6.8160   -4.0100 h5        1 MAO      0.106100
     39 HN61       -0.9080    4.5160   -3.4080 hn        1 MAO      0.428300
     40 HN62       -1.4250    5.2600   -2.0300 hn        1 MAO      0.428300
     41 H8          1.6030    5.3200    2.2360 h5        1 MAO      0.086800
     42 H2'         3.4520    6.7690    2.9700 h1        1 MAO      0.097700
     43 HO2'        5.3660    7.7200    3.1660 ho        1 MAO      0.455000
     44 H3'         3.5410    4.5020    3.6820 h1        1 MAO      0.086700
     45 HO3'        6.2570    5.2400    3.7830 ho        1 MAO      0.452000
     46 HN3        -0.9090    2.9380    0.1140 hn        1 MAO      0.488467
     47 HD1         3.3500    2.8100   -0.1330 hn        1 MAO      0.465800
@<TRIPOS>BOND
     1    1    2 1   
     2    1   25 1   
     3    1   26 1   
     4    1   46 1   
     5    2    3 1   
     6    3    4 1   
     7    3   27 1   
     8    3   28 1   
     9    4    5 1   
    10    4   29 1   
    11    4   30 1   
    12    5    6 1   
    13    5    7 1   
    14    5   47 1   
    15    6   31 1   
    16    6   32 1   
    17    6   33 1   
    18    7    8 1   
    19    7   34 1   
    20    7   35 1   
    21    8    9 1   
    22    8   23 1   
    23    8   36 1   
    24    9   10 1   
    25   10   11 1   
    26   10   21 1   
    27   10   37 1   
    28   11   12 1   
    29   11   20 1   
    30   12   13 ar  
    31   12   18 ar  
    32   13   14 ar  
    33   14   15 ar  
    34   14   38 1   
    35   15   16 ar  
    36   16   17 1   
    37   16   18 ar  
    38   17   39 1   
    39   17   40 1   
    40   18   19 1   
    41   19   20 2   
    42   20   41 1   
    43   21   22 1   
    44   21   23 1   
    45   21   42 1   
    46   22   43 1   
    47   23   24 1   
    48   23   44 1   
    49   24   45 1   
@<TRIPOS>SUBSTRUCTURE
     1 MAO         1 TEMP              0 ****  ****    0 ROOT
