@<TRIPOS>MOLECULE
MAO
   47    49     1     0     0
SMALL
bcc


@<TRIPOS>ATOM
      1 N          -0.4200    2.4620   -0.8960 nz        1 MAO     -0.675100
      2 OA          0.8890    2.1400   -0.7490 os        1 MAO     -0.229100
      3 CB          1.2490    1.3960    0.4550 c3        1 MAO      0.073400
      4 CG          2.7130    1.0060    0.2770 c3        1 MAO      0.101800
      5 ND          3.7120    2.1140    0.3900 nx        1 MAO     -0.676400
      6 CE          5.0460    1.6430   -0.0890 c3        1 MAO      0.082100
      7 C5'         3.8050    2.6470    1.7890 c3        1 MAO      0.086800
      8 C4'         4.7380    3.8650    1.9270 c3        1 MAO      0.069100
      9 O4'         4.6010    4.7200    0.7950 os        1 MAO     -0.443600
     10 C1'         4.0170    5.9920    1.1580 c3        1 MAO      0.218800
     11 N9          2.6510    6.0270    0.6820 na        1 MAO     -0.265000
     12 C4          2.3400    6.1470   -0.6960 ca        1 MAO      0.457800
     13 N3          3.0150    6.7460   -1.7110 nb        1 MAO     -0.645000
     14 C2          2.3710    6.6730   -2.9030 ca        1 MAO      0.696900
     15 N1          1.1810    6.0670   -3.1960 nb        1 MAO     -0.691000
     16 C6          0.5090    5.4620   -2.1840 ca        1 MAO      0.634200
     17 N6         -0.7080    4.7370   -2.4080 nv        1 MAO     -0.910500
     18 C5          1.0490    5.4780   -0.8680 ca        1 MAO     -0.206200
     19 N7          0.6110    4.9630    0.3660 nc        1 MAO     -0.602100
     20 C8          1.5690    5.2910    1.2420 cd        1 MAO      0.416700
     21 C2'         4.1730    6.1280    2.7040 c3        1 MAO      0.094100
     22 O2'         5.3510    6.8670    2.9250 oh        1 MAO     -0.574800
     23 C3'         4.4080    4.6780    3.2060 c3        1 MAO      0.124100
     24 O3'         5.4280    4.5590    4.1520 oh        1 MAO     -0.554800
     25 HN1        -0.4510    3.3310   -1.6190 hn        1 MAO      0.488467
     26 HN2        -0.8410    2.7660   -0.0060 hn        1 MAO      0.488467
     27 HB1         0.6420    0.4510    0.5180 h1        1 MAO      0.103700
     28 HB2         1.0590    2.0420    1.3520 h1        1 MAO      0.103700
     29 HG1         2.8420    0.5360   -0.7450 hx        1 MAO      0.137200
     30 HG2         2.9590    0.2300    1.0630 hx        1 MAO      0.137200
     31 HE1         4.9540    1.2560   -1.1390 hx        1 MAO      0.118033
     32 HE2         5.7580    2.5160   -0.0760 hx        1 MAO      0.118033
     33 HE3         5.4260    0.8300    0.5850 hx        1 MAO      0.118033
     34 H5'1        4.1870    1.8300    2.4660 hx        1 MAO      0.104200
     35 H5'2        2.7610    2.9330    2.1050 hx        1 MAO      0.104200
     36 H4'         5.8150    3.5320    1.9420 h1        1 MAO      0.123700
     37 H1'         4.6260    6.7700    0.6000 h2        1 MAO      0.176700
     38 H2          2.8770    7.1730   -3.7650 h5        1 MAO      0.106100
     39 HN61       -0.9070    4.6200   -3.3910 hn        1 MAO      0.428300
     40 HN62       -1.4740    5.2210   -1.9640 hn        1 MAO      0.428300
     41 H8          1.5180    5.1070    2.3260 h5        1 MAO      0.086800
     42 H2'         3.2800    6.5920    3.1940 h1        1 MAO      0.097700
     43 HO2'        5.1360    7.6300    3.4820 ho        1 MAO      0.455000
     44 H3'         3.4880    4.2830    3.7210 h1        1 MAO      0.086700
     45 HO3'        6.1570    5.1580    3.9150 ho        1 MAO      0.452000
     46 HN3        -0.9360    1.6550   -1.2740 hn        1 MAO      0.488467
     47 HD1         3.4190    2.8960   -0.2180 hn        1 MAO      0.465800
@<TRIPOS>BOND
     1    1    2 1   
     2    1   25 1   
     3    1   26 1   
     4    1   46 1   
     5    2    3 1   
     6    3    4 1   
     7    3   27 1   
     8    3   28 1   
     9    4    5 1   
    10    4   29 1   
    11    4   30 1   
    12    5    6 1   
    13    5    7 1   
    14    5   47 1   
    15    6   31 1   
    16    6   32 1   
    17    6   33 1   
    18    7    8 1   
    19    7   34 1   
    20    7   35 1   
    21    8    9 1   
    22    8   23 1   
    23    8   36 1   
    24    9   10 1   
    25   10   11 1   
    26   10   21 1   
    27   10   37 1   
    28   11   12 1   
    29   11   20 1   
    30   12   13 ar  
    31   12   18 ar  
    32   13   14 ar  
    33   14   15 ar  
    34   14   38 1   
    35   15   16 ar  
    36   16   17 1   
    37   16   18 ar  
    38   17   39 1   
    39   17   40 1   
    40   18   19 1   
    41   19   20 2   
    42   20   41 1   
    43   21   22 1   
    44   21   23 1   
    45   21   42 1   
    46   22   43 1   
    47   23   24 1   
    48   23   44 1   
    49   24   45 1   
@<TRIPOS>SUBSTRUCTURE
     1 MAO         1 TEMP              0 ****  ****    0 ROOT
