@<TRIPOS>MOLECULE
MAQ
   22    23     1     0     0
SMALL
bcc


@<TRIPOS>ATOM
      1 C1          0.0760    0.0430    2.8290 ca        1 MAQ     -0.074000
      2 C2          0.9930    0.0170    1.7790 ca        1 MAQ     -0.136300
      3 C9          2.4470    0.0250    2.0590 c3        1 MAQ     -0.053800
      4 C3          0.5030   -0.0170    0.4460 ca        1 MAQ      0.179600
      5 N3          1.3760   -0.0810   -0.6450 na        1 MAQ     -0.731600
      6 C8          0.8410   -0.0070   -1.9550 cc        1 MAQ      0.835100
      7 N2          1.7840    0.1400   -3.0080 nh        1 MAQ     -0.888800
      8 N1         -0.4610   -0.0360   -2.2350 nd        1 MAQ     -0.737100
      9 C7         -1.4000   -0.0360   -1.1830 c         1 MAQ      0.717100
     10 O1         -2.6160   -0.0590   -1.4360 o         1 MAQ     -0.544100
     11 C4         -0.8950   -0.0160    0.2150 ca        1 MAQ     -0.211600
     12 C5         -1.7840    0.0100    1.2930 ca        1 MAQ     -0.042000
     13 C6         -1.3000    0.0380    2.5950 ca        1 MAQ     -0.168000
     14 H1          0.4490    0.0680    3.8660 ha        1 MAQ      0.136000
     15 H91         2.9360   -0.8920    1.6440 hc        1 MAQ      0.044700
     16 H92         2.9340    0.9250    1.6040 hc        1 MAQ      0.044700
     17 H93         2.6420    0.0500    3.1600 hc        1 MAQ      0.044700
     18 H3          2.3410    0.0950   -0.4840 hn        1 MAQ      0.450800
     19 H21         1.3700    0.1200   -3.9180 hn        1 MAQ      0.414300
     20 H22         2.5840   -0.4510   -2.9300 hn        1 MAQ      0.414300
     21 H5         -2.8670    0.0080    1.0840 ha        1 MAQ      0.164000
     22 H6         -2.0000    0.0570    3.4440 ha        1 MAQ      0.141000
@<TRIPOS>BOND
     1    1    2 ar  
     2    1   13 ar  
     3    1   14 1   
     4    2    3 1   
     5    2    4 ar  
     6    3   15 1   
     7    3   16 1   
     8    3   17 1   
     9    4    5 1   
    10    4   11 ar  
    11    5    6 1   
    12    5   18 1   
    13    6    7 1   
    14    6    8 2   
    15    7   19 1   
    16    7   20 1   
    17    8    9 1   
    18    9   10 2   
    19    9   11 1   
    20   11   12 ar  
    21   12   13 ar  
    22   12   21 1   
    23   13   22 1   
@<TRIPOS>SUBSTRUCTURE
     1 MAQ         1 TEMP              0 ****  ****    0 ROOT
