@<TRIPOS>MOLECULE
MAQ
   22    23     1     0     0
SMALL
bcc


@<TRIPOS>ATOM
      1 C1         -0.0200   -0.0250   -0.0110 ca        1 MAQ     -0.074000
      2 C2          1.3730   -0.0390   -0.0360 ca        1 MAQ     -0.136300
      3 C9          2.0950   -0.0760   -1.3290 c3        1 MAQ     -0.053800
      4 C3          2.0790   -0.0170    1.1970 ca        1 MAQ      0.179600
      5 N3          3.4760   -0.0660    1.2330 na        1 MAQ     -0.731600
      6 C8          4.1340    0.0650    2.4820 cc        1 MAQ      0.835100
      7 N2          5.5450    0.2220    2.4310 nv        1 MAQ     -0.888800
      8 N1          3.5100    0.0770    3.6590 nd        1 MAQ     -0.737100
      9 C7          2.1010    0.0660    3.7010 c         1 MAQ      0.717100
     10 O1          1.5120    0.0820    4.7950 o         1 MAQ     -0.544100
     11 C4          1.3560    0.0270    2.4150 ca        1 MAQ     -0.211600
     12 C5         -0.0420    0.0400    2.4000 ca        1 MAQ     -0.042000
     13 C6         -0.7270    0.0130    1.1920 ca        1 MAQ     -0.168000
     14 H1         -0.5740   -0.0430   -0.9640 ha        1 MAQ      0.136000
     15 H91         2.7490    0.8250   -1.4450 hc        1 MAQ      0.044700
     16 H92         2.7370   -0.9910   -1.3990 hc        1 MAQ      0.044700
     17 H93         1.3790   -0.0930   -2.1870 hc        1 MAQ      0.044700
     18 H3          3.9730    0.0800    0.3840 hn        1 MAQ      0.450800
     19 H21         5.9750    0.2420    3.3340 hn        1 MAQ      0.414300
     20 H22         6.0060   -0.3910    1.7940 hn        1 MAQ      0.414300
     21 H5         -0.5790    0.0720    3.3630 ha        1 MAQ      0.164000
     22 H6         -1.8270    0.0220    1.1810 ha        1 MAQ      0.141000
@<TRIPOS>BOND
     1    1    2 ar  
     2    1   13 ar  
     3    1   14 1   
     4    2    3 1   
     5    2    4 ar  
     6    3   15 1   
     7    3   16 1   
     8    3   17 1   
     9    4    5 1   
    10    4   11 ar  
    11    5    6 1   
    12    5   18 1   
    13    6    7 1   
    14    6    8 2   
    15    7   19 1   
    16    7   20 1   
    17    8    9 1   
    18    9   10 2   
    19    9   11 1   
    20   11   12 ar  
    21   12   13 ar  
    22   12   21 1   
    23   13   22 1   
@<TRIPOS>SUBSTRUCTURE
     1 MAQ         1 TEMP              0 ****  ****    0 ROOT
