@<TRIPOS>MOLECULE
MAQ
   23    24     1     0     0
SMALL
bcc


@<TRIPOS>ATOM
      1 C1         -0.0250    0.0090   -0.0210 ca        1 MAQ     -0.055000
      2 C2          1.3730    0.0040   -0.0360 ca        1 MAQ     -0.101300
      3 C9          2.1030   -0.0090   -1.3250 c3        1 MAQ     -0.068800
      4 C3          2.0580    0.0100    1.2020 ca        1 MAQ      0.154600
      5 N3          3.4700    0.0050    1.2410 na        1 MAQ     -0.720600
      6 C8          4.0670    0.0120    2.4990 cc        1 MAQ      0.733100
      7 N2          5.5800    0.0060    2.5360 n4        1 MAQ     -0.819600
      8 N1          3.4800    0.0220    3.6660 nd        1 MAQ     -0.657100
      9 C7          2.0390    0.0290    3.7160 c         1 MAQ      0.724100
     10 O1          1.4990    0.0390    4.8210 o         1 MAQ     -0.441100
     11 C4          1.3290    0.0220    2.4200 ca        1 MAQ     -0.199600
     12 C5         -0.0700    0.0270    2.3940 ca        1 MAQ     -0.034000
     13 C6         -0.7420    0.0210    1.1770 ca        1 MAQ     -0.127000
     14 H1         -0.5710    0.0040   -0.9810 ha        1 MAQ      0.164000
     15 H91         1.3880   -0.0130   -2.1870 hc        1 MAQ      0.058367
     16 H92         2.7430   -0.9230   -1.4120 hc        1 MAQ      0.058367
     17 H93         2.7500    0.8990   -1.4260 hc        1 MAQ      0.058367
     18 H3          3.9780   -0.0040    0.3860 hn        1 MAQ      0.473800
     19 H21         5.9430    0.8420    2.0670 hn        1 MAQ      0.482133
     20 H22         5.9360   -0.8400    2.0790 hn        1 MAQ      0.482133
     21 H5         -0.6230    0.0360    3.3510 ha        1 MAQ      0.181000
     22 H6         -1.8440    0.0250    1.1570 ha        1 MAQ      0.170000
     23 H23         5.8900    0.0120    3.5230 hn        1 MAQ      0.482133
@<TRIPOS>BOND
     1    1    2 ar  
     2    1   13 ar  
     3    1   14 1   
     4    2    3 1   
     5    2    4 ar  
     6    3   15 1   
     7    3   16 1   
     8    3   17 1   
     9    4    5 1   
    10    4   11 ar  
    11    5    6 1   
    12    5   18 1   
    13    6    7 1   
    14    6    8 2   
    15    7   19 1   
    16    7   20 1   
    17    7   23 1   
    18    8    9 1   
    19    9   10 2   
    20    9   11 1   
    21   11   12 ar  
    22   12   13 ar  
    23   12   21 1   
    24   13   22 1   
@<TRIPOS>SUBSTRUCTURE
     1 MAQ         1 TEMP              0 ****  ****    0 ROOT
