@<TRIPOS>MOLECULE
MAS
   13    12     1     0     0
SMALL
bcc


@<TRIPOS>ATOM
      1 S           0.6620   -0.0020    0.0640 s6        1 MAS      1.530700
      2 O1          1.0670   -1.1690   -0.6470 o         1 MAS     -0.745867
      3 O2          1.0680    1.2110   -0.5660 o         1 MAS     -0.745867
      4 N          -1.0470    0.0010    0.0270 n3        1 MAS     -0.803500
      5 C1         -1.7970    1.2040    0.0720 c3        1 MAS      0.238100
      6 C2         -1.7980   -1.2020   -0.0100 c3        1 MAS      0.238100
      7 H11        -2.5150    1.2790   -0.7930 h1        1 MAS      0.005367
      8 H12        -2.4090    1.2790    1.0150 h1        1 MAS      0.005367
      9 H13        -1.0950    2.0800    0.0260 h1        1 MAS      0.005367
     10 H21        -1.0970   -2.0740   -0.1160 h1        1 MAS      0.005367
     11 H22        -2.4110   -1.3410    0.9260 h1        1 MAS      0.005367
     12 H23        -2.5170   -1.2170   -0.8780 h1        1 MAS      0.005367
     13 O3          1.0480   -0.0480    1.4320 o         1 MAS     -0.745867
@<TRIPOS>BOND
     1    1    2 1   
     2    1    3 1   
     3    1    4 1   
     4    1   13 1   
     5    4    5 1   
     6    4    6 1   
     7    5    7 1   
     8    5    8 1   
     9    5    9 1   
    10    6   10 1   
    11    6   11 1   
    12    6   12 1   
@<TRIPOS>SUBSTRUCTURE
     1 MAS         1 TEMP              0 ****  ****    0 ROOT
