@<TRIPOS>MOLECULE
MAS
   13    10     1     0     0
SMALL
bcc


@<TRIPOS>ATOM
      1 S           0.5480    1.2580    0.6670 ss        1 MAS      2.835000
      2 O1          2.0580    1.2580    0.6670 o         1 MAS     -1.069000
      3 O2          0.2550    1.2580    2.1490 o         1 MAS     -1.069000
      4 N          -0.0480   -0.0900   -0.0580 n2        1 MAS     -0.823000
      5 C1         -1.3780   -0.5170    0.2170 c3        1 MAS     -0.038000
      6 C2          0.7640   -0.8280   -0.9650 c3        1 MAS     -0.038000
      7 H11        -1.3550   -1.3810    0.6720 h1        1 MAS      0.044667
      8 H12        -1.8720   -0.6040   -0.6200 h1        1 MAS      0.044667
      9 H13        -1.8190    0.1400    0.7880 h1        1 MAS      0.044667
     10 H21         1.1790   -0.2160   -1.6020 h1        1 MAS      0.044667
     11 H22         0.2110   -1.4730   -1.4460 h1        1 MAS      0.044667
     12 H23         1.4580   -1.3010   -0.4690 h1        1 MAS      0.044667
     13 O3         -0.0000    2.4970    0.0000 os        1 MAS     -1.068000
@<TRIPOS>BOND
     1    1    2 1   
     2    1    3 1   
     3    4    5 1   
     4    4    6 1   
     5    5    7 1   
     6    5    8 1   
     7    5    9 1   
     8    6   10 1   
     9    6   11 1   
    10    6   12 1   
@<TRIPOS>SUBSTRUCTURE
     1 MAS         1 TEMP              0 ****  ****    0 ROOT
