@<TRIPOS>MOLECULE
MAS
   13    12     1     0     0
SMALL
bcc


@<TRIPOS>ATOM
      1 S           0.6110   -0.5680   -0.7290 s6        1 MAS      1.419800
      2 O1          1.5840   -0.5910    0.2980 o         1 MAS     -0.747867
      3 O2         -0.6020   -1.2090   -0.3780 o         1 MAS     -0.747867
      4 N          -1.1470    1.4620   -1.2950 n3        1 MAS     -0.780200
      5 C1         -1.6470    2.7580   -0.9280 c3        1 MAS      0.163100
      6 C2          0.1870    1.1940   -0.8290 c3        1 MAS     -0.038400
      7 H11        -1.6950    2.9410    0.1830 h1        1 MAS      0.005033
      8 H12        -0.9830    3.5460   -1.3710 h1        1 MAS      0.005033
      9 H13        -2.6810    2.8810   -1.3460 h1        1 MAS      0.005033
     10 H21        -1.7670    0.7430   -0.9570 hn        1 MAS      0.367800
     11 H22         0.9010    1.6810   -1.5430 h2        1 MAS      0.047200
     12 H23         0.3920    1.6410    0.1820 h2        1 MAS      0.047200
     13 O3          1.1170   -0.9140   -1.9970 o         1 MAS     -0.747867
@<TRIPOS>BOND
     1    1    2 1   
     2    1    3 1   
     3    1    6 1   
     4    1   13 1   
     5    4    5 1   
     6    4    6 1   
     7    4   10 1   
     8    5    7 1   
     9    5    8 1   
    10    5    9 1   
    11    6   11 1   
    12    6   12 1   
@<TRIPOS>SUBSTRUCTURE
     1 MAS         1 TEMP              0 ****  ****    0 ROOT
