@<TRIPOS>MOLECULE
MAT
   32    32     1     0     0
SMALL
bcc


@<TRIPOS>ATOM
      1 C1         -2.5350    0.8170    0.4900 c3        1 MAT      0.334900
      2 C2         -2.0320   -0.6170    0.5930 c3        1 MAT     -0.122400
      3 C3         -0.7730   -0.8340   -0.2380 c3        1 MAT      0.131100
      4 C4          0.2780    0.2480    0.1220 c3        1 MAT      0.148500
      5 C5         -0.3780    1.6150   -0.1690 c3        1 MAT      0.133400
      6 C7          3.1940   -0.2070    1.2380 c3        1 MAT     -0.108100
      7 C8          3.8570    0.7910   -0.9340 c3        1 MAT     -0.108100
      8 O1         -3.0860    1.0140   -0.7940 oh        1 MAT     -0.629800
      9 O3         -0.1890   -2.0980    0.0840 os        1 MAT     -0.427600
     10 N4          1.5180    0.0970   -0.6280 n3        1 MAT     -0.813200
     11 O5         -1.5320    1.8030    0.6420 os        1 MAT     -0.452600
     12 H1         -3.2860    1.0520    1.2990 h2        1 MAT      0.068700
     13 H21        -1.8130   -0.8410    1.6680 hc        1 MAT      0.069200
     14 H22        -2.8380   -1.3110    0.2420 hc        1 MAT      0.069200
     15 H3         -1.0220   -0.7820   -1.3340 h1        1 MAT      0.067700
     16 H4          0.4530    0.1810    1.2380 h1        1 MAT      0.048700
     17 H51         0.2970    2.4620    0.1230 h1        1 MAT      0.062200
     18 H52        -0.6620    1.6980   -1.2500 h1        1 MAT      0.062200
     19 H6          2.4230    1.6500    0.4380 h1        1 MAT      0.050700
     20 H71         3.5040   -1.2260    0.9060 hc        1 MAT      0.038533
     21 H72         4.0740    0.2980    1.7020 hc        1 MAT      0.038533
     22 H73         2.3990   -0.3140    2.0140 hc        1 MAT      0.038533
     23 H81         4.1950   -0.1980   -1.3250 hc        1 MAT      0.038533
     24 H82         3.5560    1.4320   -1.7970 hc        1 MAT      0.038533
     25 H83         4.7120    1.2770   -0.4070 hc        1 MAT      0.038533
     26 H91        -0.2080   -4.0800   -0.2580 h1        1 MAT      0.035033
     27 H92        -1.8580   -3.2790   -0.3630 h1        1 MAT      0.035033
     28 H93        -0.6500   -3.0560   -1.7200 h1        1 MAT      0.035033
     29 HO1        -3.2930    1.9530   -0.8770 ho        1 MAT      0.418000
     30 HN4         1.6570   -0.8700   -0.8610 hn        1 MAT      0.373800
     31 C6          2.6980    0.6220    0.0510 c3        1 MAT      0.171500
     32 C9         -0.7740   -3.1830   -0.6160 c3        1 MAT      0.116700
@<TRIPOS>BOND
     1    1    2 1   
     2    1    8 1   
     3    1   11 1   
     4    1   12 1   
     5    2    3 1   
     6    2   13 1   
     7    2   14 1   
     8    3    4 1   
     9    3    9 1   
    10    3   15 1   
    11    4    5 1   
    12    4   10 1   
    13    4   16 1   
    14    5   11 1   
    15    5   17 1   
    16    5   18 1   
    17    6   20 1   
    18    6   21 1   
    19    6   22 1   
    20    6   31 1   
    21    7   23 1   
    22    7   24 1   
    23    7   25 1   
    24    7   31 1   
    25    8   29 1   
    26    9   32 1   
    27   10   30 1   
    28   10   31 1   
    29   19   31 1   
    30   26   32 1   
    31   27   32 1   
    32   28   32 1   
@<TRIPOS>SUBSTRUCTURE
     1 MAT         1 TEMP              0 ****  ****    0 ROOT
