@<TRIPOS>MOLECULE
MAV
   22    22     1     0     0
SMALL
bcc


@<TRIPOS>ATOM
      1 C1          1.2640    1.6010   -0.2480 c3        1 MAV      0.297900
      2 O1          1.1950    1.9240   -1.6210 oh        1 MAV     -0.646800
      3 C2          2.1310    0.3440   -0.0620 c3        1 MAV      0.085100
      4 O2          2.4890    0.2200    1.3050 oh        1 MAV     -0.611800
      5 C3          1.4050   -0.9220   -0.5460 c3        1 MAV      0.109100
      6 O3          2.1700   -2.0640   -0.2110 oh        1 MAV     -0.589800
      7 C4         -0.0130   -0.9700    0.0460 c3        1 MAV      0.115100
      8 O4         -0.6670   -2.0870   -0.5250 oh        1 MAV     -0.623800
      9 C5         -0.7600    0.3300   -0.2800 c3        1 MAV     -0.033900
     10 O5         -0.0500    1.4590    0.2330 os        1 MAV     -0.413600
     11 C6         -2.1880    0.3660    0.3540 c         1 MAV      0.933600
     12 O6A        -2.8730    1.4040    0.1990 o         1 MAV     -0.819300
     13 O6B        -2.5690   -0.6920    0.9340 o         1 MAV     -0.819300
     14 H1          1.6970    2.4660    0.3350 h2        1 MAV      0.062700
     15 HO1         0.3430    2.3590   -1.7670 ho        1 MAV      0.431000
     16 H2          3.1070    0.4590   -0.6060 h1        1 MAV      0.085700
     17 HO2         1.6670    0.2560    1.8140 ho        1 MAV      0.414000
     18 H3          1.3530   -0.9300   -1.6700 h1        1 MAV      0.094700
     19 HO3         2.1900   -2.1110    0.7530 ho        1 MAV      0.398000
     20 H4          0.0390   -1.1000    1.1640 h1        1 MAV      0.037700
     21 HO4        -1.5720   -2.0800   -0.1630 ho        1 MAV      0.450000
     22 H5         -0.8640    0.4310   -1.3940 h1        1 MAV      0.040700
@<TRIPOS>BOND
     1    1    2 1   
     2    1    3 1   
     3    1   10 1   
     4    1   14 1   
     5    2   15 1   
     6    3    4 1   
     7    3    5 1   
     8    3   16 1   
     9    4   17 1   
    10    5    6 1   
    11    5    7 1   
    12    5   18 1   
    13    6   19 1   
    14    7    8 1   
    15    7    9 1   
    16    7   20 1   
    17    8   21 1   
    18    9   10 1   
    19    9   11 1   
    20    9   22 1   
    21   11   12 1   
    22   11   13 1   
@<TRIPOS>SUBSTRUCTURE
     1 MAV         1 TEMP              0 ****  ****    0 ROOT
