@<TRIPOS>MOLECULE
MAW
   19    18     1     0     0
SMALL
bcc


@<TRIPOS>ATOM
      1 O1         -1.2760    1.1990   -0.7160 oh        1 MAW     -0.388000
      2 C1          0.2040    1.1850   -0.7440 c3        1 MAW      0.112000
      3 C2          0.6220    1.1720    0.4490 c3        1 MAW     -0.022000
      4 O2          0.0410    2.3690    1.1640 oh        1 MAW     -0.330000
      5 C3          0.2340   -0.1740    1.3130 c3        1 MAW      0.062000
      6 O3         -1.1340   -0.1480    1.6920 oh        1 MAW     -0.350000
      7 C4          0.5850   -1.4180    0.5850 c2        1 MAW     -0.374000
      8 C5          0.4800   -1.3130   -1.1250 c1        1 MAW      0.046000
      9 O5          0.6760   -0.0570   -1.6430 o         1 MAW     -0.226000
     10 C6         -0.3260   -2.3350   -1.8970 c2        1 MAW      0.385000
     11 O6A        -1.5730   -2.3890   -1.7530 o         1 MAW     -0.534000
     12 O6B         0.2610   -3.1920   -2.6050 o         1 MAW     -0.534000
     13 H1          0.5190    2.0230   -1.1770 h2        1 MAW      0.107000
     14 H2          1.6030    1.2610    0.4350 h1        1 MAW      0.123000
     15 HO2         0.7050    2.8550    1.5270 ho        1 MAW      0.219000
     16 H3          0.6690   -0.1640    2.1890 h1        1 MAW      0.107000
     17 HO3        -1.2080   -0.3730    2.5640 ho        1 MAW      0.214000
     18 H4          0.4930   -2.2950    1.0320 ha        1 MAW      0.148000
     19 H9         -1.5740    1.7930   -1.2900 ho        1 MAW      0.237000
@<TRIPOS>BOND
     1    1    2 1   
     2    1   19 1   
     3    2    3 1   
     4    2    9 1   
     5    2   13 1   
     6    3    4 1   
     7    3    5 1   
     8    3   14 1   
     9    4   15 1   
    10    5    6 1   
    11    5    7 1   
    12    5   16 1   
    13    6   17 1   
    14    7    8 1   
    15    7   18 1   
    16    8   10 1   
    17   10   11 1   
    18   10   12 1   
@<TRIPOS>SUBSTRUCTURE
     1 MAW         1 TEMP              0 ****  ****    0 ROOT
