@<TRIPOS>MOLECULE
MAW
   19    19     1     0     0
SMALL
bcc


@<TRIPOS>ATOM
      1 O1         -1.5670    2.4040    0.5940 oh        1 MAW     -0.598800
      2 C1         -1.1050    1.1310    0.9580 c3        1 MAW      0.295900
      3 C2         -1.9180    0.0080    0.2900 c3        1 MAW      0.050100
      4 O2         -1.9980    0.2230   -1.1090 oh        1 MAW     -0.610800
      5 C3         -1.2420   -1.3390    0.6080 c3        1 MAW      0.174300
      6 O3         -1.8670   -2.3820   -0.1240 oh        1 MAW     -0.604800
      7 C4          0.2130   -1.2300    0.3140 c2        1 MAW     -0.409200
      8 C5          0.8620   -0.0500    0.2810 ce        1 MAW      0.077900
      9 O5          0.2540    1.1630    0.5180 os        1 MAW     -0.345900
     10 C6          2.3530    0.1190   -0.0880 c         1 MAW      0.936800
     11 O6A         2.5970    0.3420   -1.3000 o         1 MAW     -0.797800
     12 O6B         3.1870   -0.0100    0.8400 o         1 MAW     -0.797800
     13 H1         -1.1470    1.0760    2.0780 h2        1 MAW      0.080700
     14 H2         -2.9840    0.0300    0.6390 h1        1 MAW      0.081700
     15 HO2        -1.0890    0.1940   -1.4470 ho        1 MAW      0.422000
     16 H3         -1.4260   -1.6140    1.6850 h1        1 MAW      0.064700
     17 HO3        -1.7160   -2.1930   -1.0590 ho        1 MAW      0.405000
     18 H4          0.7500   -2.1670    0.1280 ha        1 MAW      0.153000
     19 H9         -1.4040    2.5070   -0.3550 ho        1 MAW      0.421000
@<TRIPOS>BOND
     1    1    2 1   
     2    1   19 1   
     3    2    3 1   
     4    2    9 1   
     5    2   13 1   
     6    3    4 1   
     7    3    5 1   
     8    3   14 1   
     9    4   15 1   
    10    5    6 1   
    11    5    7 1   
    12    5   16 1   
    13    6   17 1   
    14    7    8 2   
    15    7   18 1   
    16    8    9 1   
    17    8   10 1   
    18   10   11 1   
    19   10   12 1   
@<TRIPOS>SUBSTRUCTURE
     1 MAW         1 TEMP              0 ****  ****    0 ROOT
