@<TRIPOS>MOLECULE
MAX
   48    50     1     0     0
SMALL
bcc


@<TRIPOS>ATOM
      1 C1         -3.5420    0.8330   -0.1830 ca        1 MAX     -0.157000
      2 C2         -4.9290    0.9640   -0.1220 ca        1 MAX      0.045100
      3 C3         -5.7640   -0.0340   -0.6790 ca        1 MAX      0.116100
      4 C4         -5.1910   -1.1540   -1.2920 ca        1 MAX     -0.135000
      5 C5         -3.8040   -1.2740   -1.3470 ca        1 MAX     -0.120000
      6 C6         -2.9760   -0.2920   -0.7970 ca        1 MAX     -0.096300
      7 C7         -1.4950   -0.4220   -0.8750 c3        1 MAX     -0.027100
      8 C8         -0.8810   -0.8230    0.4560 c3        1 MAX     -0.093700
      9 C9         -1.2630   -2.2540    0.8700 c3        1 MAX      0.122400
     10 O10        -0.0530   -2.9740    1.1700 os        1 MAX     -0.408900
     11 C11         1.0470   -2.1810    0.9220 c         1 MAX      0.718600
     12 C12         0.6570   -0.8190    0.3920 c3        1 MAX     -0.150700
     13 O13         2.1350   -2.6960    1.1520 o         1 MAX     -0.580500
     14 C14         1.2810    0.3180    1.1900 c3        1 MAX     -0.013100
     15 C15         2.5430    0.8220    0.5780 ca        1 MAX     -0.103300
     16 C16         2.5940    2.1030    0.0220 ca        1 MAX     -0.123000
     17 C17         3.7740    2.5940   -0.5330 ca        1 MAX     -0.142000
     18 C18         4.9220    1.7940   -0.5360 ca        1 MAX      0.114100
     19 C19         4.8730    0.4950    0.0250 ca        1 MAX      0.047100
     20 C20         3.6890    0.0150    0.5810 ca        1 MAX     -0.155000
     21 O21         6.0650   -0.2070   -0.0320 os        1 MAX     -0.351900
     22 C22         6.0370   -1.5260    0.5070 c3        1 MAX      0.119700
     23 O23         6.0590    2.3230   -1.0970 oh        1 MAX     -0.496100
     24 O24        -7.1350    0.0350   -0.6460 oh        1 MAX     -0.492100
     25 O25        -5.6020    2.0170    0.4750 os        1 MAX     -0.346900
     26 C26        -4.8050    3.1360    0.8450 c3        1 MAX      0.120700
     27 H1         -2.8870    1.6060    0.2450 ha        1 MAX      0.138000
     28 H4         -5.8460   -1.9240   -1.7240 ha        1 MAX      0.156000
     29 H5         -3.3590   -2.1560   -1.8330 ha        1 MAX      0.137000
     30 H7C1       -1.2170   -1.1770   -1.6580 hc        1 MAX      0.057200
     31 H7C2       -1.0530    0.5620   -1.1890 hc        1 MAX      0.057200
     32 H8         -1.2390   -0.1100    1.2470 hc        1 MAX      0.071700
     33 H9C1       -1.8820   -2.2760    1.8020 h1        1 MAX      0.068200
     34 H9C2       -1.7800   -2.8120    0.0480 h1        1 MAX      0.068200
     35 H12         1.0010   -0.7590   -0.6780 hc        1 MAX      0.101700
     36 H141        0.5420    1.1610    1.2600 hc        1 MAX      0.058700
     37 H142        1.4910   -0.0290    2.2380 hc        1 MAX      0.058700
     38 H16         1.6970    2.7400    0.0220 ha        1 MAX      0.130000
     39 H17         3.8200    3.6010   -0.9700 ha        1 MAX      0.152000
     40 H20         3.6360   -0.9960    1.0170 ha        1 MAX      0.168000
     41 H221        5.8030   -1.4960    1.5990 h1        1 MAX      0.050033
     42 H222        5.2930   -2.1580   -0.0350 h1        1 MAX      0.050033
     43 H223        7.0780   -1.8970    0.3330 h1        1 MAX      0.050033
     44 H23         6.7650    1.6620   -1.0260 ho        1 MAX      0.438000
     45 H24        -7.3850    0.8720   -0.2240 ho        1 MAX      0.438000
     46 H261       -4.2350    3.5260   -0.0330 h1        1 MAX      0.046367
     47 H262       -5.5570    3.8860    1.1980 h1        1 MAX      0.046367
     48 H263       -4.1080    2.8580    1.6730 h1        1 MAX      0.046367
@<TRIPOS>BOND
     1    1    2 ar  
     2    1    6 ar  
     3    1   27 1   
     4    2    3 ar  
     5    2   25 1   
     6    3    4 ar  
     7    3   24 1   
     8    4    5 ar  
     9    4   28 1   
    10    5    6 ar  
    11    5   29 1   
    12    6    7 1   
    13    7    8 1   
    14    7   30 1   
    15    7   31 1   
    16    8    9 1   
    17    8   12 1   
    18    8   32 1   
    19    9   10 1   
    20    9   33 1   
    21    9   34 1   
    22   10   11 1   
    23   11   12 1   
    24   11   13 2   
    25   12   14 1   
    26   12   35 1   
    27   14   15 1   
    28   14   36 1   
    29   14   37 1   
    30   15   16 ar  
    31   15   20 ar  
    32   16   17 ar  
    33   16   38 1   
    34   17   18 ar  
    35   17   39 1   
    36   18   19 ar  
    37   18   23 1   
    38   19   20 ar  
    39   19   21 1   
    40   20   40 1   
    41   21   22 1   
    42   22   41 1   
    43   22   42 1   
    44   22   43 1   
    45   23   44 1   
    46   24   45 1   
    47   25   26 1   
    48   26   46 1   
    49   26   47 1   
    50   26   48 1   
@<TRIPOS>SUBSTRUCTURE
     1 MAX         1 TEMP              0 ****  ****    0 ROOT
