@<TRIPOS>MOLECULE
MAX
   48    50     1     0     0
SMALL
bcc


@<TRIPOS>ATOM
      1 C1         -0.3030   -0.0800    0.1310 ca        1 MAX     -0.157000
      2 C2          1.0300    0.3040    0.0020 ca        1 MAX      0.045100
      3 C3          1.7740    0.6910    1.1420 ca        1 MAX      0.116100
      4 C4          1.1640    0.6840    2.4020 ca        1 MAX     -0.135000
      5 C5         -0.1690    0.2970    2.5190 ca        1 MAX     -0.120000
      6 C6         -0.9070   -0.0850    1.3960 ca        1 MAX     -0.096300
      7 C7         -2.3350   -0.4820    1.5300 c3        1 MAX     -0.027100
      8 C8         -2.5290   -1.9850    1.4150 c3        1 MAX     -0.093700
      9 C9         -1.9180   -2.7460    2.6030 c3        1 MAX      0.122400
     10 O10        -2.9310   -3.6100    3.1520 os        1 MAX     -0.408900
     11 C11        -4.1260   -3.4240    2.4910 c         1 MAX      0.718600
     12 C12        -4.0210   -2.3620    1.4180 c3        1 MAX     -0.150700
     13 O13        -5.0590   -4.1190    2.8760 o         1 MAX     -0.580500
     14 C14        -4.5130   -2.8530    0.0630 c3        1 MAX     -0.013100
     15 C15        -5.9340   -2.4890   -0.1970 ca        1 MAX     -0.103300
     16 C16        -6.2530   -1.5570   -1.1880 ca        1 MAX     -0.123000
     17 C17        -7.5790   -1.2240   -1.4560 ca        1 MAX     -0.142000
     18 C18        -8.6050   -1.8300   -0.7230 ca        1 MAX      0.114100
     19 C19        -8.2850   -2.7750    0.2810 ca        1 MAX      0.047100
     20 C20        -6.9560   -3.1020    0.5390 ca        1 MAX     -0.155000
     21 O21        -9.3770   -3.3100    0.9440 os        1 MAX     -0.351900
     22 C22        -9.0820   -4.2470    1.9760 c3        1 MAX      0.119700
     23 O23        -9.8960   -1.4680   -1.0250 oh        1 MAX     -0.496100
     24 O24         3.0910    1.0740    1.0800 oh        1 MAX     -0.492100
     25 O25         1.7380    0.3300   -1.1890 os        1 MAX     -0.346900
     26 C26         0.9690    0.1630   -2.3740 c3        1 MAX      0.120700
     27 H1         -0.8880   -0.3780   -0.7510 ha        1 MAX      0.138000
     28 H4          1.7480    0.9860    3.2830 ha        1 MAX      0.156000
     29 H5         -0.6440    0.2980    3.5130 ha        1 MAX      0.137000
     30 H7C1       -2.7420   -0.1260    2.5140 hc        1 MAX      0.057200
     31 H7C2       -2.9350    0.0180    0.7210 hc        1 MAX      0.057200
     32 H8         -2.0410   -2.3390    0.4670 hc        1 MAX      0.071700
     33 H9C1       -1.0730   -3.4100    2.2920 h1        1 MAX      0.068200
     34 H9C2       -1.5920   -2.0620    3.4270 h1        1 MAX      0.068200
     35 H12        -4.6440   -1.4840    1.7460 hc        1 MAX      0.101700
     36 H141       -4.4000   -3.9690    0.0030 hc        1 MAX      0.058700
     37 H142       -3.8640   -2.4090   -0.7410 hc        1 MAX      0.058700
     38 H16        -5.4520   -1.0770   -1.7710 ha        1 MAX      0.130000
     39 H17        -7.8350   -0.4930   -2.2360 ha        1 MAX      0.152000
     40 H20        -6.6930   -3.8320    1.3230 ha        1 MAX      0.168000
     41 H221      -10.0920   -4.5190    2.3740 h1        1 MAX      0.050033
     42 H222       -8.4550   -3.7730    2.7700 h1        1 MAX      0.050033
     43 H223       -8.5670   -5.1440    1.5540 h1        1 MAX      0.050033
     44 H23       -10.4920   -1.9650   -0.4430 ho        1 MAX      0.438000
     45 H24         3.3670    1.0600    0.1510 ho        1 MAX      0.438000
     46 H261        1.7150    0.3230   -3.1930 h1        1 MAX      0.046367
     47 H262        0.1510    0.9220   -2.4280 h1        1 MAX      0.046367
     48 H263        0.5490   -0.8710   -2.4210 h1        1 MAX      0.046367
@<TRIPOS>BOND
     1    1    2 ar  
     2    1    6 ar  
     3    1   27 1   
     4    2    3 ar  
     5    2   25 1   
     6    3    4 ar  
     7    3   24 1   
     8    4    5 ar  
     9    4   28 1   
    10    5    6 ar  
    11    5   29 1   
    12    6    7 1   
    13    7    8 1   
    14    7   30 1   
    15    7   31 1   
    16    8    9 1   
    17    8   12 1   
    18    8   32 1   
    19    9   10 1   
    20    9   33 1   
    21    9   34 1   
    22   10   11 1   
    23   11   12 1   
    24   11   13 2   
    25   12   14 1   
    26   12   35 1   
    27   14   15 1   
    28   14   36 1   
    29   14   37 1   
    30   15   16 ar  
    31   15   20 ar  
    32   16   17 ar  
    33   16   38 1   
    34   17   18 ar  
    35   17   39 1   
    36   18   19 ar  
    37   18   23 1   
    38   19   20 ar  
    39   19   21 1   
    40   20   40 1   
    41   21   22 1   
    42   22   41 1   
    43   22   42 1   
    44   22   43 1   
    45   23   44 1   
    46   24   45 1   
    47   25   26 1   
    48   26   46 1   
    49   26   47 1   
    50   26   48 1   
@<TRIPOS>SUBSTRUCTURE
     1 MAX         1 TEMP              0 ****  ****    0 ROOT
