@<TRIPOS>MOLECULE
MAX
   48    50     1     0     0
SMALL
bcc


@<TRIPOS>ATOM
      1 C1         -0.2970   -0.0960    0.1160 ca        1 MAX     -0.157000
      2 C2          1.0380    0.2750   -0.0290 ca        1 MAX      0.045100
      3 C3          1.7980    0.6620    1.1010 ca        1 MAX      0.116100
      4 C4          1.2000    0.6700    2.3670 ca        1 MAX     -0.135000
      5 C5         -0.1350    0.2970    2.5000 ca        1 MAX     -0.120000
      6 C6         -0.8880   -0.0860    1.3860 ca        1 MAX     -0.096300
      7 C7         -2.3190   -0.4680    1.5370 c3        1 MAX     -0.027100
      8 C8         -2.5280   -1.9690    1.4370 c3        1 MAX     -0.093700
      9 C9         -1.9130   -2.7270    2.6240 c3        1 MAX      0.122400
     10 O10        -2.9290   -3.5760    3.1910 os        1 MAX     -0.408900
     11 C11        -4.1280   -3.3840    2.5400 c         1 MAX      0.718600
     12 C12        -4.0240   -2.3330    1.4570 c3        1 MAX     -0.150700
     13 O13        -5.0650   -4.0660    2.9400 o         1 MAX     -0.580500
     14 C14        -4.5320   -2.8300    0.1110 c3        1 MAX     -0.013100
     15 C15        -5.9520   -2.4540   -0.1400 ca        1 MAX     -0.103300
     16 C16        -6.2710   -1.5290   -1.1380 ca        1 MAX     -0.123000
     17 C17        -7.5960   -1.1860   -1.3970 ca        1 MAX     -0.142000
     18 C18        -8.6220   -1.7720   -0.6480 ca        1 MAX      0.114100
     19 C19        -8.3020   -2.7090    0.3640 ca        1 MAX      0.047100
     20 C20        -6.9740   -3.0480    0.6130 ca        1 MAX     -0.155000
     21 O21        -9.3930   -3.2260    1.0430 os        1 MAX     -0.351900
     22 C22        -9.0980   -4.1550    2.0810 c3        1 MAX      0.119700
     23 O23        -9.9110   -1.3990   -0.9410 oh        1 MAX     -0.496100
     24 O24         3.1180    1.0330    1.0230 oh        1 MAX     -0.492100
     25 O25         1.7350    0.2860   -1.2270 os        1 MAX     -0.346900
     26 C26         0.9520    0.1190   -2.4030 c3        1 MAX      0.120700
     27 H1         -0.8940   -0.3940   -0.7580 ha        1 MAX      0.138000
     28 H4          1.7960    0.9740    3.2400 ha        1 MAX      0.156000
     29 H5         -0.6000    0.3090    3.4980 ha        1 MAX      0.137000
     30 H7C1       -2.7120   -0.1000    2.5230 hc        1 MAX      0.057200
     31 H7C2       -2.9220    0.0320    0.7310 hc        1 MAX      0.057200
     32 H8         -2.0530   -2.3360    0.4870 hc        1 MAX      0.071700
     33 H9C1       -1.5720   -2.0390    3.4390 h1        1 MAX      0.068200
     34 H9C2       -1.0770   -3.4020    2.3110 h1        1 MAX      0.068200
     35 H12        -4.6350   -1.4460    1.7830 hc        1 MAX      0.101700
     36 H141       -4.4320   -3.9480    0.0600 hc        1 MAX      0.058700
     37 H142       -3.8870   -2.4010   -0.7030 hc        1 MAX      0.058700
     38 H16        -5.4710   -1.0650   -1.7340 ha        1 MAX      0.130000
     39 H17        -7.8520   -0.4600   -2.1820 ha        1 MAX      0.152000
     40 H20        -6.7110   -3.7730    1.4020 ha        1 MAX      0.168000
     41 H221      -10.1070   -4.4120    2.4920 h1        1 MAX      0.050033
     42 H222       -8.4590   -3.6800    2.8650 h1        1 MAX      0.050033
     43 H223       -8.5970   -5.0620    1.6630 h1        1 MAX      0.050033
     44 H23       -10.5070   -1.8840   -0.3480 ho        1 MAX      0.438000
     45 H24         3.3840    1.0090    0.0910 ho        1 MAX      0.438000
     46 H261        0.1410    0.8850   -2.4540 h1        1 MAX      0.046367
     47 H262        0.5210   -0.9110   -2.4400 h1        1 MAX      0.046367
     48 H263        1.6910    0.2660   -3.2310 h1        1 MAX      0.046367
@<TRIPOS>BOND
     1    1    2 ar  
     2    1    6 ar  
     3    1   27 1   
     4    2    3 ar  
     5    2   25 1   
     6    3    4 ar  
     7    3   24 1   
     8    4    5 ar  
     9    4   28 1   
    10    5    6 ar  
    11    5   29 1   
    12    6    7 1   
    13    7    8 1   
    14    7   30 1   
    15    7   31 1   
    16    8    9 1   
    17    8   12 1   
    18    8   32 1   
    19    9   10 1   
    20    9   33 1   
    21    9   34 1   
    22   10   11 1   
    23   11   12 1   
    24   11   13 2   
    25   12   14 1   
    26   12   35 1   
    27   14   15 1   
    28   14   36 1   
    29   14   37 1   
    30   15   16 ar  
    31   15   20 ar  
    32   16   17 ar  
    33   16   38 1   
    34   17   18 ar  
    35   17   39 1   
    36   18   19 ar  
    37   18   23 1   
    38   19   20 ar  
    39   19   21 1   
    40   20   40 1   
    41   21   22 1   
    42   22   41 1   
    43   22   42 1   
    44   22   43 1   
    45   23   44 1   
    46   24   45 1   
    47   25   26 1   
    48   26   46 1   
    49   26   47 1   
    50   26   48 1   
@<TRIPOS>SUBSTRUCTURE
     1 MAX         1 TEMP              0 ****  ****    0 ROOT
