@<TRIPOS>MOLECULE
MAY
   61    60     1     0     0
SMALL
bcc


@<TRIPOS>ATOM
      1 F          -1.9850    0.5440   -4.6940 f         1 MAY     -0.338400
      2 C1         -3.2610    0.3030   -2.4850 c3        1 MAY     -0.420600
      3 O1         -1.4680    2.2250   -2.9550 o         1 MAY     -0.841300
      4 P1         -2.4990    1.3470   -3.4950 p5        1 MAY      1.601300
      5 C2         -2.2010   -0.3940   -1.6670 c3        1 MAY     -0.077400
      6 O2         -3.6960    2.1610   -4.2040 os        1 MAY     -0.613200
      7 C3         -2.7860   -1.3450   -0.6500 c3        1 MAY     -0.067400
      8 C4         -1.6920   -2.0110    0.1610 c3        1 MAY     -0.049200
      9 C5         -2.2370   -2.9520    1.1670 c2        1 MAY     -0.180200
     10 C6         -1.4970   -3.5290    2.1200 c2        1 MAY     -0.162200
     11 C7         -0.0450   -3.2810    2.2930 c3        1 MAY     -0.021000
     12 C8          0.5990   -4.1730    3.2850 c2        1 MAY     -0.173200
     13 C9          1.8580   -4.0180    3.7110 c2        1 MAY     -0.167200
     14 CM         -3.5260    3.5310   -4.4710 c3        1 MAY      0.155700
     15 C10         2.7490   -2.9270    3.2490 c3        1 MAY     -0.020000
     16 C11         4.1410   -3.0390    3.7470 c2        1 MAY     -0.173200
     17 C12         5.1330   -2.2340    3.3510 c2        1 MAY     -0.167200
     18 C13         4.9600   -1.1470    2.3580 c3        1 MAY     -0.020000
     19 C14         6.1460   -0.2680    2.2220 c2        1 MAY     -0.173200
     20 C15         6.2650    0.6690    1.2750 c2        1 MAY     -0.171200
     21 C16         5.2360    0.9320    0.2420 c3        1 MAY     -0.050200
     22 C17         5.5540    2.1580   -0.5890 c3        1 MAY     -0.077400
     23 C18         4.4900    2.3970   -1.6390 c3        1 MAY     -0.080400
     24 C19         4.7960    3.6300   -2.4630 c3        1 MAY     -0.078400
     25 C20         3.7430    3.8640   -3.5150 c3        1 MAY     -0.095100
     26 H1         -3.9750    0.8260   -1.7950 hc        1 MAY      0.118200
     27 H1A        -3.8900   -0.4600   -3.0140 hc        1 MAY      0.118200
     28 H2         -1.5240   -0.9520   -2.3680 hc        1 MAY      0.061200
     29 H2A        -1.5780    0.3890   -1.1520 hc        1 MAY      0.061200
     30 H3         -3.4760   -0.7860    0.0350 hc        1 MAY      0.045700
     31 H3A        -3.3980   -2.1260   -1.1730 hc        1 MAY      0.045700
     32 H4         -0.9980   -2.5670   -0.5290 hc        1 MAY      0.050200
     33 H4A        -1.0750   -1.2230    0.6740 hc        1 MAY      0.050200
     34 H5         -3.3150   -3.1690    1.0920 ha        1 MAY      0.123000
     35 H6         -1.9610   -4.2260    2.8380 ha        1 MAY      0.125000
     36 H7          0.4760   -3.4000    1.2990 hc        1 MAY      0.056700
     37 H7A         0.1080   -2.2060    2.6000 hc        1 MAY      0.056700
     38 H8         -0.0170   -5.0040    3.6680 ha        1 MAY      0.124000
     39 H9          2.2850   -4.7190    4.4470 ha        1 MAY      0.125000
     40 HM         -3.5800    3.6820   -5.5810 h1        1 MAY      0.047700
     41 HMA        -4.3740    4.0840   -3.9890 h1        1 MAY      0.047700
     42 HMB        -2.5430    3.8900   -4.0670 h1        1 MAY      0.047700
     43 H10         2.7560   -2.9020    2.1210 hc        1 MAY      0.055700
     44 H10A        2.3190   -1.9370    3.5800 hc        1 MAY      0.055700
     45 H11         4.3330   -3.8350    4.4840 ha        1 MAY      0.124000
     46 H12         6.1490   -2.3640    3.7600 ha        1 MAY      0.124000
     47 H13         4.7130   -1.6010    1.3550 hc        1 MAY      0.055700
     48 H13A        4.0680   -0.5160    2.6440 hc        1 MAY      0.055700
     49 H14         6.9500   -0.4160    2.9610 ha        1 MAY      0.123000
     50 H15         7.1680    1.2990    1.2280 ha        1 MAY      0.123000
     51 H16         5.1500    0.0350   -0.4320 hc        1 MAY      0.047200
     52 H16A        4.2330    1.0630    0.7340 hc        1 MAY      0.047200
     53 H17         5.6320    3.0560    0.0800 hc        1 MAY      0.040700
     54 H17A        6.5520    2.0280   -1.0860 hc        1 MAY      0.040700
     55 H18         4.4190    1.5030   -2.3130 hc        1 MAY      0.041700
     56 H18A        3.4910    2.5180   -1.1430 hc        1 MAY      0.041700
     57 H19         4.8610    4.5240   -1.7880 hc        1 MAY      0.036700
     58 H19A        5.8000    3.5130   -2.9520 hc        1 MAY      0.036700
     59 H20         2.7380    3.9940   -3.0460 hc        1 MAY      0.035033
     60 H20A        3.9810    4.7830   -4.1030 hc        1 MAY      0.035033
     61 H20B        3.6900    2.9990   -4.2190 hc        1 MAY      0.035033
@<TRIPOS>BOND
     1    1    4 1   
     2    2    4 1   
     3    2    5 1   
     4    2   26 1   
     5    2   27 1   
     6    3    4 2   
     7    4    6 1   
     8    5    7 1   
     9    5   28 1   
    10    5   29 1   
    11    6   14 1   
    12    7    8 1   
    13    7   30 1   
    14    7   31 1   
    15    8    9 1   
    16    8   32 1   
    17    8   33 1   
    18    9   10 2   
    19    9   34 1   
    20   10   11 1   
    21   10   35 1   
    22   11   12 1   
    23   11   36 1   
    24   11   37 1   
    25   12   13 2   
    26   12   38 1   
    27   13   15 1   
    28   13   39 1   
    29   14   40 1   
    30   14   41 1   
    31   14   42 1   
    32   15   16 1   
    33   15   43 1   
    34   15   44 1   
    35   16   17 2   
    36   16   45 1   
    37   17   18 1   
    38   17   46 1   
    39   18   19 1   
    40   18   47 1   
    41   18   48 1   
    42   19   20 2   
    43   19   49 1   
    44   20   21 1   
    45   20   50 1   
    46   21   22 1   
    47   21   51 1   
    48   21   52 1   
    49   22   23 1   
    50   22   53 1   
    51   22   54 1   
    52   23   24 1   
    53   23   55 1   
    54   23   56 1   
    55   24   25 1   
    56   24   57 1   
    57   24   58 1   
    58   25   59 1   
    59   25   60 1   
    60   25   61 1   
@<TRIPOS>SUBSTRUCTURE
     1 MAY         1 TEMP              0 ****  ****    0 ROOT
