@<TRIPOS>MOLECULE
MAY
   61    60     1     0     0
SMALL
bcc


@<TRIPOS>ATOM
      1 F           2.3190   -6.6960   -1.1140 f         1 MAY     -0.338400
      2 C1          1.6850   -4.2460   -1.5160 c3        1 MAY     -0.420600
      3 O1         -0.0520   -6.1120   -0.7190 o         1 MAY     -0.841300
      4 P1          1.3190   -5.6150   -0.6910 p5        1 MAY      1.601300
      5 C2          1.0860   -4.3740   -2.8960 c3        1 MAY     -0.077400
      6 O2          1.8430   -5.3290    0.8070 os        1 MAY     -0.613200
      7 C3          1.3060   -3.1400   -3.7400 c3        1 MAY     -0.067400
      8 C4          0.6770   -3.3010   -5.1090 c3        1 MAY     -0.049200
      9 C5          0.8780   -2.1050   -5.9600 c2        1 MAY     -0.180200
     10 C6          0.2740   -1.9250   -7.1410 c2        1 MAY     -0.162200
     11 C7         -0.6810   -2.8940   -7.7280 c3        1 MAY     -0.021000
     12 C8         -1.0710   -2.5760   -9.1230 c2        1 MAY     -0.173200
     13 C9         -2.0370   -3.2230   -9.7850 c2        1 MAY     -0.167200
     14 CM          1.0940   -5.8090    1.8950 c3        1 MAY      0.155700
     15 C10        -2.8390   -4.3210   -9.1950 c3        1 MAY     -0.020000
     16 C11        -3.7510   -4.9810  -10.1600 c2        1 MAY     -0.173200
     17 C12        -4.4680   -6.0720   -9.8700 c2        1 MAY     -0.167200
     18 C13        -4.4240   -6.7560   -8.5550 c3        1 MAY     -0.020000
     19 C14        -5.4430   -7.8220   -8.4020 c2        1 MAY     -0.173200
     20 C15        -5.4760   -8.6680   -7.3660 c2        1 MAY     -0.171200
     21 C16        -4.4920   -8.6530   -6.2580 c3        1 MAY     -0.050200
     22 C17        -4.8700   -9.6030   -5.1400 c3        1 MAY     -0.077400
     23 C18        -3.8440   -9.5700   -4.0270 c3        1 MAY     -0.080400
     24 C19        -4.2230  -10.5070   -2.9000 c3        1 MAY     -0.078400
     25 C20        -3.1990  -10.4830   -1.7950 c3        1 MAY     -0.095100
     26 H1          1.2720   -3.3290   -1.0190 hc        1 MAY      0.118200
     27 H1A         2.7850   -4.0480   -1.6010 hc        1 MAY      0.118200
     28 H2         -0.0150   -4.5780   -2.7890 hc        1 MAY      0.061200
     29 H2A         1.5450   -5.2670   -3.3990 hc        1 MAY      0.061200
     30 H3          0.8630   -2.2480   -3.2240 hc        1 MAY      0.045700
     31 H3A         2.4060   -2.9490   -3.8480 hc        1 MAY      0.045700
     32 H4         -0.4240   -3.5030   -4.9940 hc        1 MAY      0.050200
     33 H4A         1.1190   -4.1990   -5.6230 hc        1 MAY      0.050200
     34 H5          1.5740   -1.3450   -5.5700 ha        1 MAY      0.123000
     35 H6          0.4700   -1.0130   -7.7300 ha        1 MAY      0.125000
     36 H7         -1.6050   -2.9350   -7.0810 hc        1 MAY      0.056700
     37 H7A        -0.2320   -3.9280   -7.6990 hc        1 MAY      0.056700
     38 H8         -0.5090   -1.7650   -9.6140 ha        1 MAY      0.124000
     39 H9         -2.2770   -2.9460  -10.8250 ha        1 MAY      0.125000
     40 HM          0.8590   -4.9390    2.5620 h1        1 MAY      0.047700
     41 HMA         1.7290   -6.5390    2.4640 h1        1 MAY      0.047700
     42 HMB         0.1500   -6.2960    1.5380 h1        1 MAY      0.047700
     43 H10        -3.4470   -3.9120   -8.3360 hc        1 MAY      0.055700
     44 H10A       -2.1460   -5.0920   -8.7490 hc        1 MAY      0.055700
     45 H11        -3.8220   -4.5210  -11.1590 ha        1 MAY      0.124000
     46 H12        -5.1330   -6.5170  -10.6290 ha        1 MAY      0.124000
     47 H13        -4.5620   -5.9970   -7.7320 hc        1 MAY      0.055700
     48 H13A       -3.3960   -7.1970   -8.4050 hc        1 MAY      0.055700
     49 H14        -6.2040   -7.8880   -9.1970 ha        1 MAY      0.123000
     50 H15        -6.2630   -9.4370   -7.3020 ha        1 MAY      0.123000
     51 H16        -4.4010   -7.6090   -5.8490 hc        1 MAY      0.047200
     52 H16A       -3.4780   -8.9310   -6.6590 hc        1 MAY      0.047200
     53 H17        -4.9540  -10.6460   -5.5440 hc        1 MAY      0.040700
     54 H17A       -5.8770   -9.3220   -4.7330 hc        1 MAY      0.040700
     55 H18        -2.8390   -9.8590   -4.4330 hc        1 MAY      0.041700
     56 H18A       -3.7510   -8.5250   -3.6290 hc        1 MAY      0.041700
     57 H19        -4.3240  -11.5510   -3.3000 hc        1 MAY      0.036700
     58 H19A       -5.2260  -10.2120   -2.4910 hc        1 MAY      0.036700
     59 H20        -3.5030  -11.1710   -0.9690 hc        1 MAY      0.035033
     60 H20A       -2.2010  -10.8100   -2.1760 hc        1 MAY      0.035033
     61 H20B       -3.0930   -9.4530   -1.3770 hc        1 MAY      0.035033
@<TRIPOS>BOND
     1    1    4 1   
     2    2    4 1   
     3    2    5 1   
     4    2   26 1   
     5    2   27 1   
     6    3    4 2   
     7    4    6 1   
     8    5    7 1   
     9    5   28 1   
    10    5   29 1   
    11    6   14 1   
    12    7    8 1   
    13    7   30 1   
    14    7   31 1   
    15    8    9 1   
    16    8   32 1   
    17    8   33 1   
    18    9   10 2   
    19    9   34 1   
    20   10   11 1   
    21   10   35 1   
    22   11   12 1   
    23   11   36 1   
    24   11   37 1   
    25   12   13 2   
    26   12   38 1   
    27   13   15 1   
    28   13   39 1   
    29   14   40 1   
    30   14   41 1   
    31   14   42 1   
    32   15   16 1   
    33   15   43 1   
    34   15   44 1   
    35   16   17 2   
    36   16   45 1   
    37   17   18 1   
    38   17   46 1   
    39   18   19 1   
    40   18   47 1   
    41   18   48 1   
    42   19   20 2   
    43   19   49 1   
    44   20   21 1   
    45   20   50 1   
    46   21   22 1   
    47   21   51 1   
    48   21   52 1   
    49   22   23 1   
    50   22   53 1   
    51   22   54 1   
    52   23   24 1   
    53   23   55 1   
    54   23   56 1   
    55   24   25 1   
    56   24   57 1   
    57   24   58 1   
    58   25   59 1   
    59   25   60 1   
    60   25   61 1   
@<TRIPOS>SUBSTRUCTURE
     1 MAY         1 TEMP              0 ****  ****    0 ROOT
