@<TRIPOS>MOLECULE
MAY
   61    56     1     0     0
SMALL
bcc


@<TRIPOS>ATOM
      1 F           4.5350    4.8580    8.0950 f         1 MAY     -0.536000
      2 C1          5.3500    3.2480    6.0010 c3        1 MAY     -0.907000
      3 O1          4.5000    5.8010    5.7940 o         1 MAY     -1.111000
      4 P1          5.2580    4.9180    6.7080 p5        1 MAY      2.711000
      5 C2          3.9590    2.7800    5.6320 c3        1 MAY     -0.157000
      6 O2          6.7200    5.4890    6.9000 os        1 MAY     -0.775000
      7 C3          3.9650    1.2790    5.4470 c3        1 MAY     -0.146000
      8 C4          2.7510    0.8650    4.6440 c3        1 MAY     -0.132000
      9 C5          2.2330   -0.4600    5.1590 c2        1 MAY     -0.176000
     10 C6          1.4980   -1.2540    4.3570 c1        1 MAY     -0.158000
     11 C7          1.1900   -0.8210    2.9400 c2        1 MAY     -0.104667
     12 C8          0.2530   -1.8210    2.3000 c2        1 MAY     -0.165667
     13 C9          0.2280   -1.9580    0.9590 c1        1 MAY     -0.161000
     14 CM          6.8680    6.8170    7.3530 c3        1 MAY     -0.034000
     15 C10        -0.7090   -2.9580    0.3180 c2        1 MAY     -0.104667
     16 C11        -0.5100   -2.9460   -1.1810 c2        1 MAY     -0.165667
     17 C12        -1.5170   -3.3160   -1.9970 c1        1 MAY     -0.161000
     18 C13        -1.3190   -3.3030   -3.4970 c2        1 MAY     -0.104667
     19 C14        -2.6670   -3.2700   -4.1830 c2        1 MAY     -0.165667
     20 C15        -2.7780   -2.7630   -5.4270 c1        1 MAY     -0.161000
     21 C16        -4.1250   -2.7300   -6.1130 c2        1 MAY     -0.131000
     22 C17        -4.1970   -1.5260   -7.0270 c3        1 MAY     -0.155000
     23 C18        -5.6180   -1.3460   -7.5140 c3        1 MAY     -0.158000
     24 C19        -5.7200   -0.0630   -8.3080 c3        1 MAY     -0.159000
     25 C20        -7.1750    0.2390   -8.5940 c3        1 MAY     -0.210000
     26 H1          5.9110    3.2640    5.2000 hc        1 MAY      0.157500
     27 H1A         5.7360    2.6360    6.6580 hc        1 MAY      0.157500
     28 H2          3.6800    3.2110    4.7990 hc        1 MAY      0.100500
     29 H2A         3.3350    3.0180    6.3470 hc        1 MAY      0.100500
     30 H3          4.7770    1.0120    4.9710 hc        1 MAY      0.085000
     31 H3A         3.9420    0.8420    6.3210 hc        1 MAY      0.085000
     32 H4          2.9990    0.7740    3.7020 hc        1 MAY      0.090500
     33 H4A         2.0540    1.5450    4.7330 hc        1 MAY      0.090500
     34 H5          2.4320   -0.7390    6.0730 ha        1 MAY      0.123000
     35 H6          1.1640   -2.1080    4.6900 ha        1 MAY      0.126000
     36 H7          0.7660    0.0610    2.9540 ha        1 MAY      0.092500
     37 H7A         2.0200   -0.7750    2.4260 ha        1 MAY      0.092500
     38 H8         -0.3320   -2.3680    2.8570 ha        1 MAY      0.122333
     39 H9          0.8110   -1.4080    0.4020 ha        1 MAY      0.122333
     40 HM          6.2050    7.0000    8.0530 h1        1 MAY      0.087000
     41 HMA         7.7710    6.9390    7.7170 h1        1 MAY      0.087000
     42 HMB         6.7310    7.4350    6.6030 h1        1 MAY      0.087000
     43 H10        -0.5170   -3.8530    0.6650 ha        1 MAY      0.092500
     44 H10A       -1.6340   -2.7190    0.5270 ha        1 MAY      0.092500
     45 H11         0.3480   -2.6750   -1.5580 ha        1 MAY      0.122333
     46 H12        -2.3730   -3.5960   -1.6200 ha        1 MAY      0.122333
     47 H13        -0.8040   -2.5110   -3.7510 ha        1 MAY      0.092500
     48 H13A       -0.8340   -4.1080   -3.7690 ha        1 MAY      0.092500
     49 H14        -3.4560   -3.6210   -3.7280 ha        1 MAY      0.122333
     50 H15        -1.9870   -2.4210   -5.8870 ha        1 MAY      0.122333
     51 H16        -4.2430   -3.5460   -6.6390 ha        1 MAY      0.085000
     52 H16A       -4.8330   -2.6710   -5.4400 ha        1 MAY      0.085000
     53 H17        -3.6050   -1.6630   -7.7930 hc        1 MAY      0.081500
     54 H17A       -3.9160   -0.7280   -6.5370 hc        1 MAY      0.081500
     55 H18        -5.8660   -2.1020   -8.0820 hc        1 MAY      0.078500
     56 H18A       -6.2230   -1.3030   -6.7460 hc        1 MAY      0.078500
     57 H19        -5.2350   -0.1620   -9.1520 hc        1 MAY      0.078500
     58 H19A       -5.3300    0.6720   -7.7930 hc        1 MAY      0.078500
     59 H20        -7.5410   -0.4510   -9.1870 hc        1 MAY      0.071667
     60 H20A       -7.2480    1.1140   -9.0290 hc        1 MAY      0.071667
     61 H20B       -7.6780    0.2480   -7.7530 hc        1 MAY      0.071667
@<TRIPOS>BOND
     1    1    4 1   
     2    2    4 1   
     3    2    5 1   
     4    2   26 1   
     5    2   27 1   
     6    3    4 1   
     7    4    6 1   
     8    5    7 1   
     9    5   28 1   
    10    5   29 1   
    11    6   14 1   
    12    7    8 1   
    13    7   30 1   
    14    7   31 1   
    15    8    9 1   
    16    8   32 1   
    17    8   33 1   
    18    9   10 1   
    19    9   34 1   
    20   10   35 1   
    21   11   12 1   
    22   11   36 1   
    23   11   37 1   
    24   12   13 1   
    25   12   38 1   
    26   13   39 1   
    27   14   40 1   
    28   14   41 1   
    29   14   42 1   
    30   15   16 1   
    31   15   43 1   
    32   15   44 1   
    33   16   17 1   
    34   16   45 1   
    35   17   46 1   
    36   18   19 1   
    37   18   47 1   
    38   18   48 1   
    39   19   20 1   
    40   19   49 1   
    41   20   50 1   
    42   21   22 1   
    43   21   51 1   
    44   21   52 1   
    45   22   23 1   
    46   22   53 1   
    47   22   54 1   
    48   23   24 1   
    49   23   55 1   
    50   23   56 1   
    51   24   25 1   
    52   24   57 1   
    53   24   58 1   
    54   25   59 1   
    55   25   60 1   
    56   25   61 1   
@<TRIPOS>SUBSTRUCTURE
     1 MAY         1 TEMP              0 ****  ****    0 ROOT
