@<TRIPOS>MOLECULE
MAY
   61    60     1     0     0
SMALL
bcc


@<TRIPOS>ATOM
      1 F           2.2970   -6.7950   -1.1160 f         1 MAY     -0.338400
      2 C1          1.7480   -4.3300   -1.5420 c3        1 MAY     -0.420600
      3 O1         -0.0510   -6.1250   -0.7230 o         1 MAY     -0.841300
      4 P1          1.3370   -5.6770   -0.7030 p5        1 MAY      1.601300
      5 C2          1.1410   -4.4480   -2.9180 c3        1 MAY     -0.077400
      6 O2          1.8740   -5.3950    0.7920 os        1 MAY     -0.613200
      7 C3          1.4020   -3.2310   -3.7750 c3        1 MAY     -0.067400
      8 C4          0.7610   -3.3820   -5.1390 c3        1 MAY     -0.049200
      9 C5          1.0020   -2.2020   -6.0030 c2        1 MAY     -0.180200
     10 C6          0.3990   -2.0090   -7.1810 c2        1 MAY     -0.162200
     11 C7         -0.5960   -2.9470   -7.7550 c3        1 MAY     -0.021000
     12 C8         -0.9840   -2.6260   -9.1490 c2        1 MAY     -0.173200
     13 C9         -1.9770   -3.2430   -9.8000 c2        1 MAY     -0.167200
     14 CM          1.1110   -5.8370    1.8860 c3        1 MAY      0.155700
     15 C10        -2.8120   -4.3090   -9.1960 c3        1 MAY     -0.020000
     16 C11        -3.7570   -4.9400  -10.1490 c2        1 MAY     -0.173200
     17 C12        -4.5080   -6.0050   -9.8470 c2        1 MAY     -0.167200
     18 C13        -4.4720   -6.6870   -8.5300 c3        1 MAY     -0.020000
     19 C14        -5.5260   -7.7160   -8.3620 c2        1 MAY     -0.173200
     20 C15        -5.5750   -8.5580   -7.3240 c2        1 MAY     -0.171200
     21 C16        -4.5780   -8.5740   -6.2280 c3        1 MAY     -0.050200
     22 C17        -4.9730   -9.5090   -5.1030 c3        1 MAY     -0.077400
     23 C18        -3.9340   -9.5090   -4.0030 c3        1 MAY     -0.080400
     24 C19        -4.3310  -10.4320   -2.8700 c3        1 MAY     -0.078400
     25 C20        -3.2930  -10.4410   -1.7770 c3        1 MAY     -0.095100
     26 H1          1.3710   -3.3930   -1.0520 hc        1 MAY      0.118200
     27 H1A         2.8550   -4.1720   -1.6320 hc        1 MAY      0.118200
     28 H2          0.0330   -4.6120   -2.8050 hc        1 MAY      0.061200
     29 H2A         1.5650   -5.3620   -3.4150 hc        1 MAY      0.061200
     30 H3          0.9930   -2.3190   -3.2650 hc        1 MAY      0.045700
     31 H3A         2.5080   -3.0810   -3.8890 hc        1 MAY      0.045700
     32 H4         -0.3450   -3.5430   -5.0180 hc        1 MAY      0.050200
     33 H4A         1.1680   -4.3000   -5.6460 hc        1 MAY      0.050200
     34 H5          1.7290   -1.4660   -5.6230 ha        1 MAY      0.123000
     35 H6          0.6250   -1.1110   -7.7800 ha        1 MAY      0.125000
     36 H7         -1.5160   -2.9490   -7.1010 hc        1 MAY      0.056700
     37 H7A        -0.1850   -3.9970   -7.7200 hc        1 MAY      0.056700
     38 H8         -0.3980   -1.8390   -9.6500 ha        1 MAY      0.124000
     39 H9         -2.2140   -2.9660  -10.8400 ha        1 MAY      0.125000
     40 HM          0.9080   -4.9520    2.5450 h1        1 MAY      0.047700
     41 HMA         1.7200   -6.5840    2.4610 h1        1 MAY      0.047700
     42 HMB         0.1490   -6.2940    1.5350 h1        1 MAY      0.047700
     43 H10        -3.3970   -3.8740   -8.3340 hc        1 MAY      0.055700
     44 H10A       -2.1430   -5.1020   -8.7520 hc        1 MAY      0.055700
     45 H11        -3.8240   -4.4810  -11.1480 ha        1 MAY      0.124000
     46 H12        -5.1960   -6.4290  -10.5960 ha        1 MAY      0.124000
     47 H13        -4.5740   -5.9200   -7.7080 hc        1 MAY      0.055700
     48 H13A       -3.4580   -7.1620   -8.3910 hc        1 MAY      0.055700
     49 H14        -6.2980   -7.7570   -9.1480 ha        1 MAY      0.123000
     50 H15        -6.3880   -9.2980   -7.2470 ha        1 MAY      0.123000
     51 H16        -4.4470   -7.5340   -5.8210 hc        1 MAY      0.047200
     52 H16A       -3.5790   -8.8860   -6.6410 hc        1 MAY      0.047200
     53 H17        -5.0980  -10.5500   -5.5040 hc        1 MAY      0.040700
     54 H17A       -5.9650   -9.1940   -4.6850 hc        1 MAY      0.040700
     55 H18        -2.9440   -9.8320   -4.4200 hc        1 MAY      0.041700
     56 H18A       -3.8020   -8.4670   -3.6080 hc        1 MAY      0.041700
     57 H19        -4.4710  -11.4720   -3.2670 hc        1 MAY      0.036700
     58 H19A       -5.3180  -10.1040   -2.4500 hc        1 MAY      0.036700
     59 H20        -3.6100  -11.1170   -0.9470 hc        1 MAY      0.035033
     60 H20A       -2.3110  -10.8000   -2.1700 hc        1 MAY      0.035033
     61 H20B       -3.1480   -9.4140   -1.3620 hc        1 MAY      0.035033
@<TRIPOS>BOND
     1    1    4 1   
     2    2    4 1   
     3    2    5 1   
     4    2   26 1   
     5    2   27 1   
     6    3    4 2   
     7    4    6 1   
     8    5    7 1   
     9    5   28 1   
    10    5   29 1   
    11    6   14 1   
    12    7    8 1   
    13    7   30 1   
    14    7   31 1   
    15    8    9 1   
    16    8   32 1   
    17    8   33 1   
    18    9   10 2   
    19    9   34 1   
    20   10   11 1   
    21   10   35 1   
    22   11   12 1   
    23   11   36 1   
    24   11   37 1   
    25   12   13 2   
    26   12   38 1   
    27   13   15 1   
    28   13   39 1   
    29   14   40 1   
    30   14   41 1   
    31   14   42 1   
    32   15   16 1   
    33   15   43 1   
    34   15   44 1   
    35   16   17 2   
    36   16   45 1   
    37   17   18 1   
    38   17   46 1   
    39   18   19 1   
    40   18   47 1   
    41   18   48 1   
    42   19   20 2   
    43   19   49 1   
    44   20   21 1   
    45   20   50 1   
    46   21   22 1   
    47   21   51 1   
    48   21   52 1   
    49   22   23 1   
    50   22   53 1   
    51   22   54 1   
    52   23   24 1   
    53   23   55 1   
    54   23   56 1   
    55   24   25 1   
    56   24   57 1   
    57   24   58 1   
    58   25   59 1   
    59   25   60 1   
    60   25   61 1   
@<TRIPOS>SUBSTRUCTURE
     1 MAY         1 TEMP              0 ****  ****    0 ROOT
