@<TRIPOS>MOLECULE
MAZ
   20    19     1     0     0
SMALL
bcc


@<TRIPOS>ATOM
      1 C1         -0.1290   -0.5390    0.5060 ce        1 MAZ     -0.032100
      2 C2          1.0240    0.0590    0.7250 c1        1 MAZ     -0.123900
      3 C3          3.2800    1.2220    1.1150 c2        1 MAZ     -0.257300
      4 C4          2.1320    0.6270    0.9070 c1        1 MAZ     -0.013900
      5 C6         -1.1820   -0.7100    1.4640 ce        1 MAZ     -0.293000
      6 C12         4.3090    1.4010    0.0570 c3        1 MAZ      0.174600
      7 O13         5.6300    1.4590    0.6060 os        1 MAZ     -0.427900
      8 C16         6.0430    0.3410    1.2880 c         1 MAZ      0.619900
      9 O18         7.1870    0.4250    1.7240 o         1 MAZ     -0.493000
     10 C5         -1.1000   -0.2410    2.7420 c2        1 MAZ      0.120000
     11 HC1        -2.0790   -1.2390    1.1050 ha        1 MAZ      0.132000
     12 HC2        -0.3240   -0.9570   -0.5010 ha        1 MAZ      0.139000
     13 HC4         3.5240    1.6590    2.0980 ha        1 MAZ      0.151000
     14 HC6        -0.1830    0.2880    3.0790 h4        1 MAZ      0.147000
     15 H121        4.1970    2.4060   -0.4390 h1        1 MAZ      0.067200
     16 H122        4.2650    0.5900   -0.7170 h1        1 MAZ      0.067200
     17 H16         5.3380   -0.5030    1.3850 h5        1 MAZ      0.045200
     18 H111       -1.8550   -0.1740    4.6270 hn        1 MAZ      0.415800
     19 H112       -2.8890   -0.8720    3.4940 hn        1 MAZ      0.415800
     20 N11        -2.0980   -0.3020    3.6750 nh        1 MAZ     -0.853600
@<TRIPOS>BOND
     1    1    2 2   
     2    1    5 1   
     3    1   12 1   
     4    2    4 2   
     5    3    4 2   
     6    3    6 1   
     7    3   13 1   
     8    5   10 2   
     9    5   11 1   
    10    6    7 1   
    11    6   15 1   
    12    6   16 1   
    13    7    8 1   
    14    8    9 2   
    15    8   17 1   
    16   10   14 1   
    17   10   20 1   
    18   18   20 1   
    19   19   20 1   
@<TRIPOS>SUBSTRUCTURE
     1 MAZ         1 TEMP              0 ****  ****    0 ROOT
