@<TRIPOS>MOLECULE
MAZ
   20    19     1     0     0
SMALL
bcc


@<TRIPOS>ATOM
      1 C1          0.4930    0.4240    0.1100 c3        1 MAZ     -0.105000
      2 C2          1.9020    0.0340    0.1680 c1        1 MAZ     -0.042000
      3 C3          2.3930   -0.5610    1.4160 c3        1 MAZ     -0.276000
      4 C4          1.6510   -0.2130    2.6520 c1        1 MAZ     -0.084000
      5 C6         -0.2050    0.2640    1.3510 c1        1 MAZ     -0.279000
      6 C12         3.8970   -0.3260    1.5960 c3        1 MAZ      0.009000
      7 O13         4.2300    1.0580    1.6390 os        1 MAZ     -0.276000
      8 C16         4.2100    1.7220    0.4300 c2        1 MAZ      0.239000
      9 O18         4.5330    2.9020    0.5280 o         1 MAZ     -0.305000
     10 C5         -0.8020    0.0830    2.3870 c1        1 MAZ      0.019000
     11 HC1         0.0050   -0.1800   -0.7140 hc        1 MAZ      0.161000
     12 HC2         0.4530    1.5030   -0.2330 hc        1 MAZ      0.161000
     13 HC4         2.2620   -1.6820    1.2360 hc        1 MAZ      0.166000
     14 HC6         1.7840    0.8380    2.9630 ha        1 MAZ      0.041000
     15 H121        4.4590   -0.8360    0.7710 h1        1 MAZ      0.107000
     16 H122        4.2360   -0.7110    2.5960 h1        1 MAZ      0.107000
     17 H16         3.9010    1.1590   -0.4730 h5        1 MAZ      0.174000
     18 H111       -1.3960    0.6100    4.1860 hn        1 MAZ      0.206500
     19 H112       -1.3970   -1.0330    3.8880 hn        1 MAZ      0.206500
     20 N11        -1.5140   -0.1140    3.5040 n8        1 MAZ     -0.229000
@<TRIPOS>BOND
     1    1    2 1   
     2    1    5 1   
     3    1   11 1   
     4    1   12 1   
     5    2    3 1   
     6    3    4 1   
     7    3    6 1   
     8    3   13 1   
     9    4   14 1   
    10    5   10 1   
    11    6    7 1   
    12    6   15 1   
    13    6   16 1   
    14    7    8 1   
    15    8    9 1   
    16    8   17 1   
    17   10   20 1   
    18   18   20 1   
    19   19   20 1   
@<TRIPOS>SUBSTRUCTURE
     1 MAZ         1 TEMP              0 ****  ****    0 ROOT
