@<TRIPOS>MOLECULE
MAZ
   20    20     1     0     0
SMALL
bcc


@<TRIPOS>ATOM
      1 C1         -1.7330    0.1650    1.8850 ca        1 MAZ     -0.092000
      2 C2         -1.6890   -0.4480    0.6340 ca        1 MAZ     -0.167000
      3 C3         -0.4520   -0.7510    0.0580 ca        1 MAZ     -0.104300
      4 C4          0.7310   -0.4450    0.7280 ca        1 MAZ     -0.175000
      5 C6         -0.5640    0.4830    2.5650 ca        1 MAZ     -0.184000
      6 C12        -0.4020   -1.4460   -1.2630 c3        1 MAZ      0.172700
      7 O13         0.6610   -0.9780   -2.0990 os        1 MAZ     -0.426900
      8 C16         0.5270    0.2990   -2.5850 c         1 MAZ      0.621900
      9 O18         1.4660    0.6550   -3.2900 o         1 MAZ     -0.491000
     10 C5          0.6970    0.1750    1.9980 ca        1 MAZ      0.146600
     11 HC1        -2.7060    0.4040    2.3410 ha        1 MAZ      0.133000
     12 HC2        -2.6220   -0.6950    0.1080 ha        1 MAZ      0.132000
     13 HC4         1.6930   -0.6980    0.2530 ha        1 MAZ      0.150000
     14 HC6        -0.6230    0.9660    3.5510 ha        1 MAZ      0.135000
     15 H121       -0.1530   -2.5350   -1.1220 h1        1 MAZ      0.067700
     16 H122       -1.3790   -1.3480   -1.8090 h1        1 MAZ      0.067700
     17 H16        -0.3770    0.8740   -2.3130 h5        1 MAZ      0.045200
     18 H111        1.8150    1.1150    3.4020 hn        1 MAZ      0.395300
     19 H112        2.6980    0.4510    2.1540 hn        1 MAZ      0.395300
     20 N11         1.8750    0.4010    2.7120 nh        1 MAZ     -0.822200
@<TRIPOS>BOND
     1    1    2 ar  
     2    1    5 ar  
     3    1   11 1   
     4    2    3 ar  
     5    2   12 1   
     6    3    4 ar  
     7    3    6 1   
     8    4   10 ar  
     9    4   13 1   
    10    5   10 ar  
    11    5   14 1   
    12    6    7 1   
    13    6   15 1   
    14    6   16 1   
    15    7    8 1   
    16    8    9 2   
    17    8   17 1   
    18   10   20 1   
    19   18   20 1   
    20   19   20 1   
@<TRIPOS>SUBSTRUCTURE
     1 MAZ         1 TEMP              0 ****  ****    0 ROOT
