@<TRIPOS>MOLECULE
MAZ
   21    21     1     0     0
SMALL
bcc


@<TRIPOS>ATOM
      1 C1         -0.0580   -0.3040    0.0680 c3        1 MAZ     -0.255000
      2 C2          1.4430   -0.5570    0.0740 c3        1 MAZ     -0.153000
      3 C3          2.1030    0.1230    1.2300 c2        1 MAZ     -0.257000
      4 C4          1.4420    0.2210    2.4390 c2        1 MAZ      0.132000
      5 C6         -0.7260   -0.2480    1.3450 c1        1 MAZ      0.008000
      6 C12         3.3910    0.6490    1.0290 c2        1 MAZ      0.282000
      7 O13         4.0270    1.2160    2.0510 os        1 MAZ     -0.241000
      8 C16         5.3460    1.7590    1.9010 c2        1 MAZ      0.298000
      9 O18         5.8270    1.6660    0.7950 o         1 MAZ     -0.212000
     10 C5          0.0720   -0.3550    2.5970 c3        1 MAZ     -0.106000
     11 HC1        -0.5740   -1.0970   -0.5560 hc        1 MAZ      0.184500
     12 HC2        -0.3000    0.6740   -0.4540 hc        1 MAZ      0.184500
     13 HC4         1.6320   -1.6630    0.1520 hc        1 MAZ      0.119000
     14 HC6         0.2300   -1.4920    2.7060 h1        1 MAZ      0.195000
     15 H121        1.8870   -0.2160   -0.8990 hc        1 MAZ      0.119000
     16 H122        3.9030    0.5980    0.0400 h4        1 MAZ      0.207000
     17 H16         5.6540    2.1660    2.8810 h5        1 MAZ      0.260000
     18 H111        1.8920    0.7590    3.2970 ha        1 MAZ      0.190000
     19 H112       -1.1620   -0.5710    4.1970 hn        1 MAZ      0.183500
     20 N11        -0.5670    0.1330    3.8040 n3        1 MAZ     -0.321000
     21 H113       -1.1100    0.9540    3.6120 hn        1 MAZ      0.183500
@<TRIPOS>BOND
     1    1    2 1   
     2    1    5 1   
     3    1   11 1   
     4    1   12 1   
     5    2    3 1   
     6    2   13 1   
     7    2   15 1   
     8    3    4 1   
     9    3    6 1   
    10    4   10 1   
    11    4   18 1   
    12    5   10 1   
    13    6    7 1   
    14    6   16 1   
    15    7    8 1   
    16    8    9 1   
    17    8   17 1   
    18   10   14 1   
    19   10   20 1   
    20   19   20 1   
    21   20   21 1   
@<TRIPOS>SUBSTRUCTURE
     1 MAZ         1 TEMP              0 ****  ****    0 ROOT
