@<TRIPOS>MOLECULE
MAZ
   20    17     1     0     0
SMALL
bcc


@<TRIPOS>ATOM
      1 C1         -1.8350   -0.1920   -1.4720 c1        1 MAZ     -0.079000
      2 C2         -0.4450   -0.1970   -1.4760 c1        1 MAZ     -0.095500
      3 C3          0.2490   -0.2070   -0.2820 c1        1 MAZ     -0.070100
      4 C4         -0.4370   -0.2120    0.9140 c1        1 MAZ     -0.127500
      5 C6         -2.5210   -0.1970   -0.2750 c1        1 MAZ     -0.079000
      6 C12         1.7600   -0.2700   -0.2870 c3        1 MAZ      0.139500
      7 O13         2.2990    1.0730   -0.3770 os        1 MAZ     -0.425900
      8 C16         3.7470    1.1290   -0.3450 c         1 MAZ      0.621900
      9 O18         4.3820    1.2780   -1.3930 o         1 MAZ     -0.489000
     10 N11        -2.5170   -0.2630    2.1330 n3        1 MAZ     -0.795400
     11 C5         -1.8250   -0.2070    0.9200 c1        1 MAZ      0.116800
     12 HC1        -2.3230   -0.1850   -2.3110 ha        1 MAZ      0.078000
     13 HC2         0.0380   -0.1940   -2.3170 ha        1 MAZ      0.092500
     14 HC4         0.0580   -0.2190    1.7660 ha        1 MAZ      0.073500
     15 HC6        -3.5080   -0.1930   -0.2720 ha        1 MAZ      0.078000
     16 H121        2.0580   -0.7870   -1.0460 h1        1 MAZ      0.066700
     17 H122        2.0710   -0.6910    0.5360 h1        1 MAZ      0.066700
     18 H16         4.2270    1.0930    0.5250 h5        1 MAZ      0.044200
     19 H111       -2.0680   -0.4650    2.9060 hn        1 MAZ      0.391800
     20 H112       -3.4100   -0.0950    2.1560 hn        1 MAZ      0.391800
@<TRIPOS>BOND
     1    1    5 3   
     2    1   12 1   
     3    2    3 3   
     4    2   13 1   
     5    3    6 1   
     6    4   11 3   
     7    4   14 1   
     8    5   15 1   
     9    6    7 1   
    10    6   16 1   
    11    6   17 1   
    12    7    8 1   
    13    8    9 2   
    14    8   18 1   
    15   10   11 1   
    16   10   19 1   
    17   10   20 1   
@<TRIPOS>SUBSTRUCTURE
     1 MAZ         1 TEMP              0 ****  ****    0 ROOT
