@<TRIPOS>MOLECULE
MB0
   43    42     1     0     0
SMALL
bcc


@<TRIPOS>ATOM
      1 C1L         1.1830   -1.9030    0.1350 c3        1 MB0     -0.175000
      2 C1J         2.6680   -1.9450    0.1450 c3        1 MB0     -0.066500
      3 N1W         3.1700   -1.9460    1.5250 n3        1 MB0     -0.261000
      4 C1A         4.6070   -1.8970    1.5130 c2        1 MB0     -0.118000
      5 C1K         2.6380   -0.8350    2.3850 c3        1 MB0     -0.066500
      6 C1M         1.0790   -0.8310    2.3530 c3        1 MB0     -0.175000
      7 C1Y         0.6110   -0.8430    0.9450 c3        1 MB0      0.098000
      8 N1N        -0.5530   -1.3250    1.5090 n         1 MB0     -0.363000
      9 C1O        -1.6520   -1.3700    0.7460 c2        1 MB0      0.371000
     10 O1D        -2.5870   -2.0840    1.0650 o         1 MB0     -0.362000
     11 C1R        -1.8650   -0.2230   -0.2830 c2        1 MB0     -0.054000
     12 N1X        -2.9310    0.1870   -1.0360 n3        1 MB0     -0.099000
     13 C1B        -4.2090   -0.4610   -1.1100 c3        1 MB0     -0.096000
     14 C1U        -2.5700    1.3970   -1.6900 c2        1 MB0      0.017000
     15 C1Q        -3.2630    2.2190   -2.5910 c1        1 MB0     -0.069000
     16 CL1F       -4.8620    2.5290   -3.2160 cl        1 MB0      0.013000
     17 C1P        -2.6450    3.3570   -3.1180 c2        1 MB0     -0.040000
     18 CL1E       -3.3660    4.4350   -4.2870 cl        1 MB0      0.011000
     19 C1H        -1.3300    3.6780   -2.7460 c1        1 MB0     -0.141000
     20 C1I        -0.6380    2.8610   -1.8490 c1        1 MB0     -0.072000
     21 C1T        -1.2570    1.7170   -1.3190 c1        1 MB0     -0.068000
     22 C1S        -0.8060    0.7350   -0.4550 c1        1 MB0     -0.126000
     23 C1V         0.5730    0.4680    0.2950 c3        1 MB0      0.054000
     24 C1G         1.0080    1.4420    1.3800 c1        1 MB0     -0.136000
     25 N1C         0.3220    2.5930    1.2540 n1        1 MB0     -0.036000
     26 H1L         0.8440   -2.7670    0.4660 hc        1 MB0      0.104000
     27 H1LA        0.8810   -1.7830   -0.7950 hc        1 MB0      0.104000
     28 H1J         3.0030   -1.1980   -0.3990 h1        1 MB0      0.076000
     29 H1JA        3.0340   -2.7190   -0.3450 h1        1 MB0      0.076000
     30 H1A         4.9390   -1.7770    2.4310 h4        1 MB0      0.068000
     31 H1AA        4.9610   -2.7390    1.1440 DU        1 MB0      0.088000
     32 H1AB        4.9050   -1.1440    0.9550 h4        1 MB0      0.068000
     33 H1K         3.1100   -0.0210    2.0980 h1        1 MB0      0.076000
     34 H1KA        2.9120   -0.8880    3.3290 h1        1 MB0      0.076000
     35 H1M         0.7180   -1.4760    3.0060 hc        1 MB0      0.104000
     36 H1MA        0.7290    0.0090    2.7280 hc        1 MB0      0.104000
     37 HN1N       -0.5210   -1.7980    2.2950 hn        1 MB0      0.241000
     38 H1B        -4.6300   -0.4600   -0.2200 h1        1 MB0      0.113000
     39 H1BA       -4.7840    0.0210   -1.7440 h1        1 MB0      0.113000
     40 H1BB       -4.0900   -1.3870   -1.4150 h1        1 MB0      0.113000
     41 H1H        -0.8970    4.4770   -3.1170 ha        1 MB0      0.153000
     42 H1I         0.2820    3.0860   -1.5900 ha        1 MB0      0.144000
     43 H1V         1.2810    0.6080   -0.3730 hc        1 MB0      0.136000
@<TRIPOS>BOND
     1    1    2 1   
     2    1    7 1   
     3    1   26 1   
     4    1   27 1   
     5    2    3 1   
     6    2   28 1   
     7    2   29 1   
     8    3    4 1   
     9    3    5 1   
    10    4   30 1   
    11    4   32 1   
    12    5    6 1   
    13    5   33 1   
    14    5   34 1   
    15    6    7 1   
    16    6   35 1   
    17    6   36 1   
    18    7    8 1   
    19    7   23 1   
    20    8    9 1   
    21    8   37 1   
    22    9   10 1   
    23    9   11 1   
    24   11   12 1   
    25   11   22 1   
    26   12   13 1   
    27   12   14 1   
    28   13   38 1   
    29   13   39 1   
    30   13   40 1   
    31   14   15 1   
    32   14   21 1   
    33   15   17 1   
    34   17   18 1   
    35   17   19 1   
    36   19   41 1   
    37   20   21 1   
    38   20   42 1   
    39   22   23 1   
    40   23   24 1   
    41   23   43 1   
    42   24   25 1   
@<TRIPOS>SUBSTRUCTURE
     1 MB0         1 TEMP              0 ****  ****    0 ROOT
