@<TRIPOS>MOLECULE
MB0
   43    47     1     0     0
SMALL
bcc


@<TRIPOS>ATOM
      1 C1L         0.0000    0.0000    0.0000 c3        1 MB0     -0.101000
      2 C1J         1.5300    0.0000    0.0000 c3        1 MB0     -0.093500
      3 N1W         2.0220    0.0000    1.3840 n3        1 MB0     -0.061000
      4 C1A         3.4840    0.1370    1.4230 c3        1 MB0     -0.089000
      5 C1K         1.5850   -1.2030    2.1020 c3        1 MB0     -0.093500
      6 C1M         0.0560   -1.2370    2.1630 c3        1 MB0     -0.101000
      7 C1Y        -0.5050   -1.2470    0.7360 c3        1 MB0     -0.051000
      8 N1N        -0.0290   -2.4400    0.0410 ns        1 MB0     -0.011000
      9 C1O        -0.6250   -2.9070   -1.0800 c2        1 MB0      0.299000
     10 O1D        -0.1120   -3.7800   -1.7540 o         1 MB0     -0.387000
     11 C1R        -1.9200   -2.3130   -1.4490 c2        1 MB0     -0.279000
     12 N1X        -2.6610   -2.4470   -2.5970 nh        1 MB0      0.471000
     13 C1B        -2.2980   -3.2590   -3.7610 c3        1 MB0     -0.177000
     14 C1U        -3.7950   -1.6930   -2.4710 ca        1 MB0     -0.196000
     15 C1Q        -4.8590   -1.4740   -3.3430 ca        1 MB0     -0.124000
     16 Cl1F       -4.9140   -2.2110   -4.9130 cl        1 MB0      0.101000
     17 C1P        -5.8730   -0.6380   -2.9000 ca        1 MB0     -0.090000
     18 Cl1E       -7.2230   -0.3280   -3.9440 cl        1 MB0      0.082000
     19 C1H        -5.8430   -0.0430   -1.6470 ca        1 MB0     -0.111000
     20 C1I        -4.8100   -0.2410   -0.7670 ca        1 MB0     -0.017000
     21 C1T        -3.7670   -1.0820   -1.1860 ca        1 MB0     -0.022000
     22 C1S        -2.5900   -1.4980   -0.5670 c3        1 MB0     -0.215000
     23 C1V        -2.0350   -1.1980    0.8020 c3        1 MB0     -0.302000
     24 C1G        -2.5200   -2.2010    1.7630 c1        1 MB0     -0.046000
     25 N1C        -2.9060   -2.9840    2.4890 n1        1 MB0     -0.118000
     26 H1L        -0.3500    0.9470    0.3910 hc        1 MB0      0.078250
     27 H1LA       -0.3500   -0.1170   -1.0180 hc        1 MB0      0.078250
     28 H1J         1.8810    0.9370   -0.4170 h1        1 MB0      0.055250
     29 H1JA        1.8810   -0.8180   -0.6170 h1        1 MB0      0.055250
     30 H1A         3.8150    0.1780    2.4540 h1        1 MB0      0.042000
     31 H1AA        3.7750    1.0470    0.9130 h1        1 MB0      0.042000
     32 H1AB        3.9400   -0.7140    0.9320 h1        1 MB0      0.042000
     33 H1K         2.0790   -2.0660    1.6730 h1        1 MB0      0.055250
     34 H1KA        1.8670   -1.1100    3.1440 h1        1 MB0      0.055250
     35 H1M        -0.2560   -2.1820    2.5900 hc        1 MB0      0.078250
     36 H1MA       -0.2880   -0.4280    2.7960 hc        1 MB0      0.078250
     37 HN1N        0.5580   -3.1300    0.4660 hn        1 MB0      0.116000
     38 H1B        -3.1830   -3.4540   -4.3550 h1        1 MB0      0.089333
     39 H1BA       -1.5710   -2.7250   -4.3610 h1        1 MB0      0.089333
     40 H1BB       -1.8720   -4.1970   -3.4280 h1        1 MB0      0.089333
     41 H1H        -6.6540    0.6040   -1.3350 ha        1 MB0      0.121000
     42 H1I        -4.8240    0.2420    0.2020 ha        1 MB0      0.132000
     43 H1V        -1.6960   -0.8780   -0.1760 DU        1 MB0      0.438000
@<TRIPOS>BOND
     1    1    2 1   
     2    1    7 1   
     3    1   26 1   
     4    1   27 1   
     5    2    3 1   
     6    2   28 1   
     7    2   29 1   
     8    3    4 1   
     9    3    5 1   
    10    4   30 1   
    11    4   31 1   
    12    4   32 1   
    13    5    6 1   
    14    5   33 1   
    15    5   34 1   
    16    6    7 1   
    17    6   35 1   
    18    6   36 1   
    19    7    8 1   
    20    7   23 1   
    21    8    9 1   
    22    8   37 1   
    23    9   10 1   
    24    9   11 1   
    25   11   12 1   
    26   11   22 1   
    27   12   13 1   
    28   12   14 1   
    29   13   38 1   
    30   13   39 1   
    31   13   40 1   
    32   14   15 1   
    33   14   21 1   
    34   15   16 1   
    35   15   17 1   
    36   17   18 1   
    37   17   19 1   
    38   19   20 1   
    39   19   41 1   
    40   20   21 1   
    41   20   42 1   
    42   21   22 1   
    43   22   23 1   
    44   22   43 1   
    45   23   24 1   
    46   23   43 1   
    47   24   25 1   
@<TRIPOS>SUBSTRUCTURE
     1 MB0         1 TEMP              0 ****  ****    0 ROOT
