@<TRIPOS>MOLECULE
MB0
   43    46     1     0     0
SMALL
bcc


@<TRIPOS>ATOM
      1 C1L        -2.7240   -0.2070   -1.4360 c3        1 MB0     -0.094900
      2 C1J        -4.0100    0.4790   -1.8820 c3        1 MB0      0.167300
      3 N1W        -5.2090   -0.2040   -1.4200 n3        1 MB0     -0.737600
      4 C1A        -6.4220    0.4360   -1.8770 c3        1 MB0      0.158100
      5 C1K        -5.2140   -0.4450    0.0150 c3        1 MB0      0.167300
      6 C1M        -3.9450   -1.1180    0.5280 c3        1 MB0     -0.094900
      7 C1Y        -2.6640   -0.3660    0.1040 c3        1 MB0      0.130400
      8 N1N        -2.5690    0.9170    0.7850 n         1 MB0     -0.550900
      9 C1O        -1.3970    1.6500    0.8600 c         1 MB0      0.731700
     10 O1D        -1.4220    2.8440    1.2190 o         1 MB0     -0.638500
     11 C1R        -0.1610    0.8970    0.5500 cc        1 MB0     -0.100300
     12 N1X         1.1380    1.3950    0.4210 na        1 MB0     -0.007400
     13 C1B         1.5370    2.7570    0.5980 c3        1 MB0      0.002600
     14 C1U         1.9740    0.3090    0.1240 ca        1 MB0     -0.027200
     15 C1Q         3.3650    0.2370   -0.1120 ca        1 MB0      0.008400
     16 CL1F        4.3350    1.6250   -0.0590 cl        1 MB0     -0.065400
     17 C1P         3.9180   -1.0110   -0.3910 ca        1 MB0      0.038400
     18 CL1E        5.5830   -1.1710   -0.6830 cl        1 MB0     -0.067400
     19 C1H         3.1270   -2.1810   -0.4420 ca        1 MB0     -0.140000
     20 C1I         1.7660   -2.1290   -0.2160 ca        1 MB0     -0.071000
     21 C1T         1.1690   -0.8970    0.0670 ca        1 MB0     -0.079800
     22 C1S        -0.1790   -0.4910    0.3390 cd        1 MB0     -0.117400
     23 C1V        -1.4270   -1.2800    0.4200 c3        1 MB0      0.071600
     24 C1G        -1.5560   -1.9060    1.7270 c1        1 MB0      0.214700
     25 N1C        -1.6380   -2.4170    2.7680 n1        1 MB0     -0.359800
     26 H1L        -2.6640   -1.2250   -1.9010 hc        1 MB0      0.066200
     27 H1LA       -1.8490    0.3910   -1.7980 hc        1 MB0      0.066200
     28 H1J        -3.9900    1.5590   -1.5470 h1        1 MB0      0.036450
     29 H1JA       -4.0380    0.4800   -3.0090 h1        1 MB0      0.036450
     30 H1A        -6.3980    0.4980   -2.9960 h1        1 MB0      0.035367
     31 H1AA       -7.2990   -0.1920   -1.5690 h1        1 MB0      0.035367
     32 H1AB       -6.5610    1.4730   -1.4630 h1        1 MB0      0.035367
     33 H1K        -5.3880    0.5090    0.5970 h1        1 MB0      0.036450
     34 H1KA       -6.0850   -1.1280    0.2340 h1        1 MB0      0.036450
     35 H1M        -4.0130   -1.1860    1.6450 hc        1 MB0      0.066200
     36 H1MA       -3.8770   -2.1600    0.1200 hc        1 MB0      0.066200
     37 HN1N       -3.4240    1.4070    0.9300 hn        1 MB0      0.327500
     38 H1B         2.2900    2.8280    1.4290 h1        1 MB0      0.073700
     39 H1BA        1.9980    3.1430   -0.3510 h1        1 MB0      0.073700
     40 H1BB        0.6430    3.3860    0.8590 h1        1 MB0      0.073700
     41 H1H         3.6150   -3.1430   -0.6640 ha        1 MB0      0.154000
     42 H1I         1.1530   -3.0410   -0.2540 ha        1 MB0      0.145000
     43 H1V        -1.4060   -2.1060   -0.3520 hc        1 MB0      0.095700
@<TRIPOS>BOND
     1    1    2 1   
     2    1    7 1   
     3    1   26 1   
     4    1   27 1   
     5    2    3 1   
     6    2   28 1   
     7    2   29 1   
     8    3    4 1   
     9    3    5 1   
    10    4   30 1   
    11    4   31 1   
    12    4   32 1   
    13    5    6 1   
    14    5   33 1   
    15    5   34 1   
    16    6    7 1   
    17    6   35 1   
    18    6   36 1   
    19    7    8 1   
    20    7   23 1   
    21    8    9 1   
    22    8   37 1   
    23    9   10 2   
    24    9   11 1   
    25   11   12 1   
    26   11   22 2   
    27   12   13 1   
    28   12   14 1   
    29   13   38 1   
    30   13   39 1   
    31   13   40 1   
    32   14   15 ar  
    33   14   21 ar  
    34   15   16 1   
    35   15   17 ar  
    36   17   18 1   
    37   17   19 ar  
    38   19   20 ar  
    39   19   41 1   
    40   20   21 ar  
    41   20   42 1   
    42   21   22 1   
    43   22   23 1   
    44   23   24 1   
    45   23   43 1   
    46   24   25 3   
@<TRIPOS>SUBSTRUCTURE
     1 MB0         1 TEMP              0 ****  ****    0 ROOT
