@<TRIPOS>MOLECULE
MB0
   43    46     1     0     0
SMALL
bcc


@<TRIPOS>ATOM
      1 C1L         0.1070   -0.0380   -0.0090 c3        1 MB0     -0.094900
      2 C1J         1.6270    0.0400    0.0870 c3        1 MB0      0.167300
      3 N1W         2.1140   -0.0200    1.4580 n3        1 MB0     -0.737600
      4 C1A         3.5530    0.0870    1.5390 c3        1 MB0      0.158100
      5 C1K         1.5990   -1.1620    2.1990 c3        1 MB0      0.167300
      6 C1M         0.0820   -1.3050    2.1300 c3        1 MB0     -0.094900
      7 C1Y        -0.4460   -1.3110    0.6790 c3        1 MB0      0.130400
      8 N1N        -0.0410   -2.5270   -0.0120 n         1 MB0     -0.550900
      9 C1O        -0.6280   -2.9610   -1.1890 c         1 MB0      0.731700
     10 O1D        -0.0850   -3.8500   -1.8730 o         1 MB0     -0.638500
     11 C1R        -1.9350   -2.3440   -1.5080 cc        1 MB0     -0.100300
     12 N1X        -2.6910   -2.4870   -2.6740 na        1 MB0     -0.007400
     13 C1B        -2.3530   -3.3030   -3.7990 c3        1 MB0      0.002600
     14 C1U        -3.8500   -1.7150   -2.5180 ca        1 MB0     -0.027200
     15 C1Q        -4.9480   -1.4920   -3.3790 ca        1 MB0      0.008400
     16 CL1F       -5.0240   -2.2190   -4.9070 cl        1 MB0     -0.065400
     17 C1P        -5.9690   -0.6530   -2.9340 ca        1 MB0      0.038400
     18 CL1E       -7.3180   -0.3420   -3.9170 cl        1 MB0     -0.067400
     19 C1H        -5.9240   -0.0350   -1.6650 ca        1 MB0     -0.140000
     20 C1I        -4.8590   -0.2400   -0.8110 ca        1 MB0     -0.071000
     21 C1T        -3.8120   -1.0730   -1.2160 ca        1 MB0     -0.079800
     22 C1S        -2.5850   -1.4900   -0.6010 cd        1 MB0     -0.117400
     23 C1V        -2.0080   -1.1640    0.7200 c3        1 MB0      0.071600
     24 C1G        -2.5890   -2.0070    1.7550 c1        1 MB0      0.214700
     25 N1C        -3.0740   -2.6720    2.5770 n1        1 MB0     -0.359800
     26 H1L        -0.3440    0.8590    0.4900 hc        1 MB0      0.066200
     27 H1LA       -0.1900   -0.0200   -1.0880 hc        1 MB0      0.066200
     28 H1J         1.9590    1.0280   -0.3430 h1        1 MB0      0.036450
     29 H1JA        2.0800   -0.7740   -0.5530 h1        1 MB0      0.036450
     30 H1A         4.0920   -0.7720    1.0530 h1        1 MB0      0.035367
     31 H1AA        3.8510    0.1320    2.6190 h1        1 MB0      0.035367
     32 H1AB        3.8720    1.0380    1.0370 h1        1 MB0      0.035367
     33 H1K         2.0770   -2.1290    1.8590 h1        1 MB0      0.036450
     34 H1KA        1.8870   -1.0140    3.2800 h1        1 MB0      0.036450
     35 H1M        -0.2050   -2.2490    2.6610 hc        1 MB0      0.066200
     36 H1MA       -0.4040   -0.4450    2.6630 hc        1 MB0      0.066200
     37 HN1N        0.8650   -2.8800    0.2030 hn        1 MB0      0.327500
     38 H1B        -3.1530   -4.0750   -3.9620 h1        1 MB0      0.073700
     39 H1BA       -1.3740   -3.8240   -3.6120 h1        1 MB0      0.073700
     40 H1BB       -2.2640   -2.6630   -4.7180 h1        1 MB0      0.073700
     41 H1H        -6.7590    0.6170   -1.3610 ha        1 MB0      0.154000
     42 H1I        -4.8270    0.2410    0.1780 ha        1 MB0      0.145000
     43 H1V        -2.2450   -0.0900    0.9850 hc        1 MB0      0.095700
@<TRIPOS>BOND
     1    1    2 1   
     2    1    7 1   
     3    1   26 1   
     4    1   27 1   
     5    2    3 1   
     6    2   28 1   
     7    2   29 1   
     8    3    4 1   
     9    3    5 1   
    10    4   30 1   
    11    4   31 1   
    12    4   32 1   
    13    5    6 1   
    14    5   33 1   
    15    5   34 1   
    16    6    7 1   
    17    6   35 1   
    18    6   36 1   
    19    7    8 1   
    20    7   23 1   
    21    8    9 1   
    22    8   37 1   
    23    9   10 2   
    24    9   11 1   
    25   11   12 1   
    26   11   22 2   
    27   12   13 1   
    28   12   14 1   
    29   13   38 1   
    30   13   39 1   
    31   13   40 1   
    32   14   15 ar  
    33   14   21 ar  
    34   15   16 1   
    35   15   17 ar  
    36   17   18 1   
    37   17   19 ar  
    38   19   20 ar  
    39   19   41 1   
    40   20   21 ar  
    41   20   42 1   
    42   21   22 1   
    43   22   23 1   
    44   23   24 1   
    45   23   43 1   
    46   24   25 3   
@<TRIPOS>SUBSTRUCTURE
     1 MB0         1 TEMP              0 ****  ****    0 ROOT
