@<TRIPOS>MOLECULE
MB1
   19    19     1     0     0
SMALL
bcc


@<TRIPOS>ATOM
      1 S1          1.7130    1.2110   -0.0880 sy        1 MB1      1.521200
      2 O1          1.1530    2.5020   -0.0270 o         1 MB1     -0.641800
      3 O2          2.4790    0.8920   -1.2190 o         1 MB1     -0.641800
      4 N1          2.5310    0.9140    1.2450 n3        1 MB1     -1.027700
      5 C1         -1.8650   -1.6030    0.0500 ca        1 MB1     -0.010000
      6 C2         -2.0160   -0.2070   -0.0020 ca        1 MB1     -0.202200
      7 C3         -0.8960    0.6350   -0.0270 ca        1 MB1      0.033000
      8 C4          0.3960    0.0980    0.0050 ca        1 MB1     -0.355500
      9 C5          0.5320   -1.2960    0.0710 ca        1 MB1      0.152400
     10 C6         -0.5840   -2.1410    0.0880 ca        1 MB1     -0.160000
     11 CL          2.0700   -2.0100    0.1340 cl        1 MB1     -0.055400
     12 O3         -3.5030    1.5730   -0.0640 o         1 MB1     -0.198000
     13 O4         -4.3280   -0.3640   -0.0240 o         1 MB1     -0.198000
     14 HN11        2.3700    1.3830    2.1020 hn        1 MB1      0.455800
     15 HN12        3.2740    0.2620    1.3020 hn        1 MB1      0.455800
     16 H1         -2.7520   -2.2620    0.0620 ha        1 MB1      0.181000
     17 H3         -1.0330    1.7380   -0.0730 ha        1 MB1      0.208000
     18 H6         -0.4520   -3.2350    0.1300 ha        1 MB1      0.169000
     19 N2         -3.3830    0.3790   -0.0330 no        1 MB1      0.316200
@<TRIPOS>BOND
     1    1    2 2   
     2    1    3 2   
     3    1    4 1   
     4    1    8 1   
     5    4   14 1   
     6    4   15 1   
     7    5    6 ar  
     8    5   10 ar  
     9    5   16 1   
    10    6    7 ar  
    11    6   19 1   
    12    7    8 ar  
    13    7   17 1   
    14    8    9 ar  
    15    9   10 ar  
    16    9   11 1   
    17   10   18 1   
    18   12   19 1   
    19   13   19 1   
@<TRIPOS>SUBSTRUCTURE
     1 MB1         1 TEMP              0 ****  ****    0 ROOT
