@<TRIPOS>MOLECULE
MB1
   20    17     1     0     0
SMALL
bcc


@<TRIPOS>ATOM
      1 S1          0.1490   -1.1340   -0.9390 s4        1 MB1      2.148800
      2 O1          1.4520   -1.1270   -1.3390 o         1 MB1     -0.445900
      3 O2         -0.3110   -1.5340    0.2730 o         1 MB1     -0.445900
      4 N1          0.3280    1.0480   -0.2090 n9        1 MB1     -0.493000
      5 C1          1.9750   -6.2390   -2.1580 c1        1 MB1      0.512000
      6 C2          1.2630   -5.2340   -1.6250 c2        1 MB1     -0.530000
      7 C3         -0.7870   -0.4750   -3.3930 c1        1 MB1      0.594000
      8 C4         -0.9120   -0.7320   -2.0770 c2        1 MB1     -1.215000
      9 C5         -2.3320   -0.6250   -1.6370 c2        1 MB1     -0.093000
     10 C6         -3.1970   -1.6410   -1.7220 c2        1 MB1     -0.096000
     11 Cl         -2.7670    0.9010   -1.0350 cl        1 MB1      0.030000
     12 O3          0.2320   -3.2040   -1.3780 o         1 MB1     -0.536200
     13 O4          1.2110   -3.5520   -3.2000 o         1 MB1     -0.536200
     14 HN11       -0.2100    1.6920   -0.7610 hn        1 MB1      0.203000
     15 HN12        1.2960    1.3200   -0.2370 hn        1 MB1      0.203000
     16 H1         -4.2380   -1.5530   -1.3700 ha        1 MB1      0.163000
     17 H3          0.8720   -5.4420   -0.5890 h4        1 MB1      0.262000
     18 H6         -2.9140   -2.6210   -2.1330 ha        1 MB1      0.163000
     19 H13         0.0030    1.0840    0.7420 hn        1 MB1      0.203000
     20 N2          0.9050   -3.9320   -2.1150 no        1 MB1      0.909400
@<TRIPOS>BOND
     1    1    2 1   
     2    1    3 1   
     3    1    8 1   
     4    4   14 1   
     5    4   15 1   
     6    4   19 1   
     7    5    6 1   
     8    6   17 1   
     9    6   20 1   
    10    7    8 1   
    11    8    9 1   
    12    9   10 1   
    13    9   11 1   
    14   10   16 1   
    15   10   18 1   
    16   12   20 2   
    17   13   20 2   
@<TRIPOS>SUBSTRUCTURE
     1 MB1         1 TEMP              0 ****  ****    0 ROOT
