@<TRIPOS>MOLECULE
MB1
   19    17     1     0     0
SMALL
bcc


@<TRIPOS>ATOM
      1 S1         -0.4660   -1.5750   -0.4250 s6        1 MB1      2.898000
      2 O1          0.1660   -2.8350   -0.5420 o         1 MB1     -0.944500
      3 O2         -0.6460   -1.0910    0.8790 o         1 MB1     -0.944500
      4 N1          0.2480   -0.5080   -1.3420 n3        1 MB1     -0.948000
      5 C1          2.7550   -5.5880   -2.0890 c1        1 MB1      0.362000
      6 C2          2.2770   -4.3670   -2.2820 c2        1 MB1     -0.543000
      7 C3         -2.5330   -2.8540   -1.6610 c1        1 MB1      0.415000
      8 C4         -2.0210   -1.7520   -1.1380 c2        1 MB1     -1.084000
      9 C5         -2.8260   -0.5270   -1.1080 c2        1 MB1     -0.043000
     10 C6         -3.6010   -0.1750   -0.0790 c2        1 MB1     -0.155000
     11 CL         -2.7050    0.4350   -2.5130 cl        1 MB1     -0.016000
     12 O3          1.9210   -2.3040   -3.2170 o         1 MB1     -0.498700
     13 O4          3.2960   -3.5720   -4.1780 o         1 MB1     -0.498700
     14 HN11        0.1240    0.4710   -1.2580 hn        1 MB1      0.265000
     15 HN12        0.8220   -0.7480   -2.1190 hn        1 MB1      0.265000
     16 H1         -4.1900    0.7520   -0.0720 ha        1 MB1      0.147000
     17 H3          1.5240   -4.0430   -1.4980 h4        1 MB1      0.288000
     18 H6         -3.6640   -0.7920    0.8300 ha        1 MB1      0.147000
     19 N2          2.5160   -3.3500   -3.2930 no        1 MB1      0.887400
@<TRIPOS>BOND
     1    1    2 1   
     2    1    3 1   
     3    1    4 1   
     4    1    8 1   
     5    4   14 1   
     6    4   15 1   
     7    5    6 1   
     8    6   17 1   
     9    6   19 1   
    10    7    8 1   
    11    8    9 1   
    12    9   10 1   
    13    9   11 1   
    14   10   16 1   
    15   10   18 1   
    16   12   19 2   
    17   13   19 2   
@<TRIPOS>SUBSTRUCTURE
     1 MB1         1 TEMP              0 ****  ****    0 ROOT
