@<TRIPOS>MOLECULE
MB2
   37    38     1     0     0
SMALL
bcc


@<TRIPOS>ATOM
      1 F20         1.1220   -2.3240    2.1160 f         1 MB2     -0.066900
      2 C19         1.9060   -1.4320    1.5030 ca        1 MB2      0.295900
      3 C18         3.0970   -1.8540    0.8600 ca        1 MB2     -0.196000
      4 C17         3.8950   -0.9230    0.2320 ca        1 MB2      0.052000
      5 C21         1.5490   -0.0600    1.4920 ca        1 MB2     -0.196000
      6 C22         2.3670    0.8500    0.8570 ca        1 MB2      0.052000
      7 C16         3.5650    0.4580    0.2060 ca        1 MB2     -0.594500
      8 S13         4.4530    1.4980   -0.5700 sy        1 MB2      1.748800
      9 O14         5.4530    0.9800   -1.3450 o         1 MB2     -0.607800
     10 O15         3.9270    2.7420   -0.7550 o         1 MB2     -0.607800
     11 N12         7.8160    1.5580    0.1340 nh        1 MB2     -0.491100
     12 C10         6.9420    2.3610    0.7870 c2        1 MB2      0.737100
     13 O11         5.6530    2.1400    0.6890 os        1 MB2     -0.575300
     14 N9          7.3690    3.3960    1.6160 nh        1 MB2     -0.324300
     15 C8          6.5870    4.4480    2.0990 ca        1 MB2      0.012500
     16 C7          5.3330    4.8240    1.5910 ca        1 MB2     -0.141000
     17 C6          4.7090    5.9700    2.0980 ca        1 MB2     -0.046300
     18 C23         7.1350    5.2590    3.1690 ca        1 MB2      0.384200
     19 N24         6.5390    6.3410    3.6350 nb        1 MB2     -0.579000
     20 C5          5.3400    6.7340    3.0960 ca        1 MB2     -0.020800
     21 S1          4.7150    8.2000    3.5640 sy        1 MB2      1.397800
     22 O2          5.5370    9.2700    3.3250 o         1 MB2     -0.540300
     23 O3          3.3520    8.2440    3.3790 o         1 MB2     -0.540300
     24 N4          4.8500    8.0440    5.4220 n4        1 MB2     -0.793500
     25 H1          3.3630   -2.9260    0.8630 ha        1 MB2      0.196000
     26 H2          4.8150   -1.2630   -0.2840 ha        1 MB2      0.169000
     27 H3          0.6140    0.2590    1.9850 ha        1 MB2      0.196000
     28 H4          2.0750    1.9170    0.8380 ha        1 MB2      0.169000
     29 H5          7.4630    0.8700   -0.5080 hn        1 MB2      0.344700
     30 H6          8.3330    3.4020    1.8970 hn        1 MB2      0.332700
     31 H7          4.8300    4.2520    0.7880 ha        1 MB2      0.204000
     32 H8          3.7240    6.2750    1.6930 ha        1 MB2      0.198000
     33 H9          8.1050    5.0040    3.6460 h4        1 MB2      0.068100
     34 H10         5.5390    8.7120    5.7830 hn        1 MB2      0.472800
     35 H11         3.9560    8.2600    5.8690 hn        1 MB2      0.472800
     36 H122        8.8030    1.6910    0.1800 hn        1 MB2      0.344700
     37 H43         5.1330    7.1210    5.7450 hn        1 MB2      0.472800
@<TRIPOS>BOND
     1    1    2 1   
     2    2    3 ar  
     3    2    5 ar  
     4    3    4 ar  
     5    3   25 1   
     6    4    7 ar  
     7    4   26 1   
     8    5    6 ar  
     9    5   27 1   
    10    6    7 ar  
    11    6   28 1   
    12    7    8 1   
    13    8    9 2   
    14    8   10 2   
    15    8   13 1   
    16   11   12 2   
    17   11   29 1   
    18   11   36 1   
    19   12   13 1   
    20   12   14 1   
    21   14   15 1   
    22   14   30 1   
    23   15   16 ar  
    24   15   18 ar  
    25   16   17 ar  
    26   16   31 1   
    27   17   20 ar  
    28   17   32 1   
    29   18   19 ar  
    30   18   33 1   
    31   19   20 ar  
    32   20   21 1   
    33   21   22 2   
    34   21   23 2   
    35   21   24 1   
    36   24   34 1   
    37   24   35 1   
    38   24   37 1   
@<TRIPOS>SUBSTRUCTURE
     1 MB2         1 TEMP              0 ****  ****    0 ROOT
