@<TRIPOS>MOLECULE
MB2
   38    38     1     0     0
SMALL
bcc


@<TRIPOS>ATOM
      1 F20      -707.0460 -909.5000 -375.0500 f         1 MB2     -0.054900
      2 C19      -708.2750 -909.0670 -375.3350 ca        1 MB2      0.326900
      3 C18      -709.0410 -909.7090 -376.3440 ca        1 MB2     -0.198000
      4 C17      -710.3060 -909.2550 -376.6290 ca        1 MB2      0.068000
      5 C21      -708.8220 -907.9610 -374.6300 ca        1 MB2     -0.198000
      6 C22      -710.0900 -907.5240 -374.9320 ca        1 MB2      0.068000
      7 C16      -710.8880 -908.1460 -375.9410 ca        1 MB2     -0.674500
      8 S13      -712.3020 -907.6480 -376.2690 s4        1 MB2      1.664300
      9 O14      -713.0000 -908.2830 -377.2340 o         1 MB2     -0.391400
     10 O15      -712.7890 -906.5950 -375.5780 o         1 MB2     -0.391400
     11 N12       420.8430  531.6070  219.8200 n         1 MB2     -0.591000
     12 C10       421.4580  532.7650  219.5040 c         1 MB2      0.665100
     13 O11       422.5330  532.9610  218.9380 o         1 MB2     -0.464100
     14 N9        420.7450  534.1090  219.9080 n4        1 MB2     -0.564200
     15 C8        421.4480  534.7710  221.0000 ca        1 MB2     -0.077700
     16 C7        422.7790  535.1780  220.8610 ca        1 MB2     -0.045000
     17 C6        423.4110  535.7930  221.9590 ca        1 MB2     -0.078300
     18 C23       420.7770  535.0310  222.2400 ca        1 MB2      0.435200
     19 N24       421.3850  535.6130  223.2690 nb        1 MB2     -0.587000
     20 C5        422.6970  535.9730  223.1530 ca        1 MB2      0.082200
     21 S1        423.4860  536.5340  224.5480 sy        1 MB2      1.373800
     22 O2        423.4530  535.6250  225.5710 o         1 MB2     -0.516300
     23 O3        424.5830  537.2800  224.1960 o         1 MB2     -0.516300
     24 N4        422.2840  537.8210  225.1250 n4        1 MB2     -0.803500
     25 H1       -708.6070 -910.5690 -376.8880 ha        1 MB2      0.205000
     26 H2       -710.8990 -909.7610 -377.4190 ha        1 MB2      0.186000
     27 H3       -708.2200 -907.4670 -373.8460 ha        1 MB2      0.205000
     28 H4       -710.5110 -906.6600 -374.3770 ha        1 MB2      0.186000
     29 H5        421.2890  530.7590  219.5120 hn        1 MB2      0.383500
     30 H6        419.7600  533.9710  220.1570 hn        1 MB2      0.478800
     31 H7        423.3520  535.0140  219.9230 ha        1 MB2      0.222000
     32 H8        424.4670  536.1230  221.8630 ha        1 MB2      0.220000
     33 H9        419.7120  534.7590  222.4070 h4        1 MB2      0.076100
     34 H10       422.7520  538.7260  225.2510 hn        1 MB2      0.481800
     35 H11       421.4950  537.9820  224.4990 hn        1 MB2      0.481800
     36 H122      419.9430  531.5430  220.2380 hn        1 MB2      0.383500
     37 H92       420.7940  534.7130  219.0700 hn        1 MB2      0.478800
     38 H43       421.8890  537.5590  226.0360 hn        1 MB2      0.481800
@<TRIPOS>BOND
     1    1    2 1   
     2    2    3 ar  
     3    2    5 ar  
     4    3    4 ar  
     5    3   25 1   
     6    4    7 ar  
     7    4   26 1   
     8    5    6 ar  
     9    5   27 1   
    10    6    7 ar  
    11    6   28 1   
    12    7    8 1   
    13    8    9 1   
    14    8   10 1   
    15   11   12 1   
    16   11   29 1   
    17   11   36 1   
    18   12   13 2   
    19   12   14 1   
    20   14   15 1   
    21   14   30 1   
    22   14   37 1   
    23   15   16 ar  
    24   15   18 ar  
    25   16   17 ar  
    26   16   31 1   
    27   17   20 ar  
    28   17   32 1   
    29   18   19 ar  
    30   18   33 1   
    31   19   20 ar  
    32   20   21 1   
    33   21   22 2   
    34   21   23 2   
    35   21   24 1   
    36   24   34 1   
    37   24   35 1   
    38   24   38 1   
@<TRIPOS>SUBSTRUCTURE
     1 MB2         1 TEMP              0 ****  ****    0 ROOT
