@<TRIPOS>MOLECULE
MB2
   37    38     1     0     0
SMALL
bcc


@<TRIPOS>ATOM
      1 F20         1.3910   -2.4900    2.2130 f         1 MB2     -0.066900
      2 C19         2.0610   -1.5300    1.5670 ca        1 MB2      0.295900
      3 C18         3.1780   -1.8610    0.7600 ca        1 MB2     -0.196000
      4 C17         3.8590   -0.8610    0.1000 ca        1 MB2      0.052000
      5 C21         1.6550   -0.1770    1.6860 ca        1 MB2     -0.196000
      6 C22         2.3550    0.8030    1.0150 ca        1 MB2      0.052000
      7 C16         3.4780    0.5030    0.2010 ca        1 MB2     -0.594500
      8 S13         4.2250    1.6250   -0.6090 sy        1 MB2      1.748800
      9 O14         5.1400    1.1970   -1.5310 o         1 MB2     -0.607800
     10 O15         3.6350    2.8530   -0.6500 o         1 MB2     -0.607800
     11 N12         7.6440    1.7910   -0.3130 nv        1 MB2     -0.491100
     12 C10         6.8290    2.5150    0.4900 c2        1 MB2      0.737100
     13 O11         5.5470    2.2450    0.5340 os        1 MB2     -0.575300
     14 N9          7.3170    3.5180    1.3250 nu        1 MB2     -0.324300
     15 C8          6.5620    4.5050    1.9640 ca        1 MB2      0.012500
     16 C7          5.2430    4.8540    1.6360 ca        1 MB2     -0.141000
     17 C6          4.6450    5.9410    2.2860 ca        1 MB2     -0.046300
     18 C23         7.2080    5.2750    3.0090 ca        1 MB2      0.384200
     19 N24         6.6350    6.3010    3.6120 nb        1 MB2     -0.579000
     20 C5          5.3650    6.6720    3.2470 ca        1 MB2     -0.020800
     21 S1          4.7500    8.0790    3.8790 sy        1 MB2      1.397800
     22 O2          5.4960    9.1960    3.6110 o         1 MB2     -0.540300
     23 O3          3.3730    8.0740    3.8630 o         1 MB2     -0.540300
     24 N4          5.1180    7.8210    5.6940 nz        1 MB2     -0.793500
     25 H1          3.4820   -2.9180    0.6630 ha        1 MB2      0.196000
     26 H2          4.7200   -1.1290   -0.5430 ha        1 MB2      0.169000
     27 H3          0.7770    0.0720    2.3060 ha        1 MB2      0.196000
     28 H4          2.0240    1.8570    1.0990 ha        1 MB2      0.169000
     29 H5          7.2410    1.1270   -0.9510 hn        1 MB2      0.344700
     30 H6          8.3070    3.5500    1.4880 hn        1 MB2      0.332700
     31 H7          4.6650    4.3090    0.8650 ha        1 MB2      0.204000
     32 H8          3.6070    6.2250    2.0230 ha        1 MB2      0.198000
     33 H9          8.2380    5.0360    3.3490 h4        1 MB2      0.068100
     34 H10         4.2770    7.9700    6.2580 hn        1 MB2      0.472800
     35 H11         5.8210    8.4960    6.0100 hn        1 MB2      0.472800
     36 H122        8.6240    1.9640   -0.3780 hn        1 MB2      0.344700
     37 H43         5.4720    6.8930    5.9210 hn        1 MB2      0.472800
@<TRIPOS>BOND
     1    1    2 1   
     2    2    3 ar  
     3    2    5 ar  
     4    3    4 ar  
     5    3   25 1   
     6    4    7 ar  
     7    4   26 1   
     8    5    6 ar  
     9    5   27 1   
    10    6    7 ar  
    11    6   28 1   
    12    7    8 1   
    13    8    9 2   
    14    8   10 2   
    15    8   13 1   
    16   11   12 2   
    17   11   29 1   
    18   11   36 1   
    19   12   13 1   
    20   12   14 1   
    21   14   15 1   
    22   14   30 1   
    23   15   16 ar  
    24   15   18 ar  
    25   16   17 ar  
    26   16   31 1   
    27   17   20 ar  
    28   17   32 1   
    29   18   19 ar  
    30   18   33 1   
    31   19   20 ar  
    32   20   21 1   
    33   21   22 2   
    34   21   23 2   
    35   21   24 1   
    36   24   34 1   
    37   24   35 1   
    38   24   37 1   
@<TRIPOS>SUBSTRUCTURE
     1 MB2         1 TEMP              0 ****  ****    0 ROOT
