@<TRIPOS>MOLECULE
MB3
   16    16     1     0     0
SMALL
bcc


@<TRIPOS>ATOM
      1 CAA         0.0230   -0.0970    0.0130 c3        1 MB3      0.096300
      2 OAB         2.2180    0.1860   -1.9080 o         1 MB3     -0.628500
      3 CAC         3.4930   -0.1090    1.4840 c3        1 MB3     -0.093400
      4 CAD         3.7820    0.0600   -0.0060 c3        1 MB3     -0.158400
      5 CAE         1.9560   -0.2210    1.6040 c3        1 MB3      0.092000
      6 CAF         2.4200    0.0520   -0.6920 c         1 MB3      0.698500
      7 NAG         1.4230   -0.1440    0.2600 n         1 MB3     -0.491800
      8 HAA        -0.1560   -0.0240   -1.0930 h1        1 MB3      0.042367
      9 HAAA       -0.4670   -1.0270    0.4080 h1        1 MB3      0.042367
     10 HAAB       -0.4400    0.7930    0.5220 h1        1 MB3      0.042367
     11 HAC         3.9810   -1.0280    1.8870 hc        1 MB3      0.056200
     12 HACA        3.8640    0.7660    2.0690 hc        1 MB3      0.056200
     13 HAD         4.4040   -0.7750   -0.4100 hc        1 MB3      0.080200
     14 HADA        4.2980    1.0260   -0.2270 hc        1 MB3      0.080200
     15 HAE         1.5420    0.6120    2.2370 h1        1 MB3      0.043200
     16 HAEA        1.6610   -1.1980    2.0750 h1        1 MB3      0.043200
@<TRIPOS>BOND
     1    1    7 1   
     2    1    8 1   
     3    1    9 1   
     4    1   10 1   
     5    2    6 2   
     6    3    4 1   
     7    3    5 1   
     8    3   11 1   
     9    3   12 1   
    10    4    6 1   
    11    4   13 1   
    12    4   14 1   
    13    5    7 1   
    14    5   15 1   
    15    5   16 1   
    16    6    7 1   
@<TRIPOS>SUBSTRUCTURE
     1 MB3         1 TEMP              0 ****  ****    0 ROOT
