@<TRIPOS>MOLECULE
MB3
   16    16     1     0     0
SMALL
bcc


@<TRIPOS>ATOM
      1 CAA         0.0300   -0.0910    0.0150 c3        1 MB3      0.096300
      2 OAB         2.2210    0.1780   -1.9130 o         1 MB3     -0.628500
      3 CAC         3.5030   -0.1060    1.4770 c3        1 MB3     -0.093400
      4 CAD         3.7890    0.0560   -0.0130 c3        1 MB3     -0.158400
      5 CAE         1.9670   -0.2120    1.6020 c3        1 MB3      0.092000
      6 CAF         2.4260    0.0500   -0.6970 c         1 MB3      0.698500
      7 NAG         1.4300   -0.1380    0.2590 n         1 MB3     -0.491800
      8 HAA        -0.1510   -0.0200   -1.0910 h1        1 MB3      0.042367
      9 HAAA       -0.4600   -1.0200    0.4130 h1        1 MB3      0.042367
     10 HAAB       -0.4320    0.8000    0.5220 h1        1 MB3      0.042367
     11 HAC         3.9890   -1.0250    1.8830 hc        1 MB3      0.056200
     12 HACA        3.8790    0.7700    2.0580 hc        1 MB3      0.056200
     13 HAD         4.4070   -0.7830   -0.4160 hc        1 MB3      0.080200
     14 HADA        4.3080    1.0190   -0.2400 hc        1 MB3      0.080200
     15 HAE         1.5570    0.6240    2.2320 h1        1 MB3      0.042700
     16 HAEA        1.6690   -1.1860    2.0770 h1        1 MB3      0.042700
@<TRIPOS>BOND
     1    1    7 1   
     2    1    8 1   
     3    1    9 1   
     4    1   10 1   
     5    2    6 2   
     6    3    4 1   
     7    3    5 1   
     8    3   11 1   
     9    3   12 1   
    10    4    6 1   
    11    4   13 1   
    12    4   14 1   
    13    5    7 1   
    14    5   15 1   
    15    5   16 1   
    16    6    7 1   
@<TRIPOS>SUBSTRUCTURE
     1 MB3         1 TEMP              0 ****  ****    0 ROOT
