@<TRIPOS>MOLECULE
MB3
   16    16     1     0     0
SMALL
bcc


@<TRIPOS>ATOM
      1 CAA         0.0210   -0.1020    0.0230 c3        1 MB3      0.096300
      2 OAB         2.2040    0.2320   -1.9030 o         1 MB3     -0.628500
      3 CAC         3.4980   -0.1170    1.4760 c3        1 MB3     -0.093400
      4 CAD         3.7790    0.0820   -0.0110 c3        1 MB3     -0.158400
      5 CAE         1.9630   -0.2430    1.6020 c3        1 MB3      0.092000
      6 CAF         2.4130    0.0770   -0.6910 c         1 MB3      0.698500
      7 NAG         1.4230   -0.1450    0.2620 n         1 MB3     -0.491800
      8 HAA        -0.4610   -1.0440    0.4030 h1        1 MB3      0.042367
      9 HAAA       -0.1640   -0.0100   -1.0810 h1        1 MB3      0.042367
     10 HAAB       -0.4460    0.7740    0.5500 h1        1 MB3      0.042367
     11 HAC         3.8650    0.7500    2.0760 hc        1 MB3      0.056200
     12 HACA        3.9940   -1.0400    1.8600 hc        1 MB3      0.056200
     13 HAD         4.4040   -0.7410   -0.4340 hc        1 MB3      0.080200
     14 HADA        4.2870    1.0560   -0.2160 hc        1 MB3      0.080200
     15 HAE         1.5450    0.5740    2.2520 h1        1 MB3      0.043200
     16 HAEA        1.6770   -1.2300    2.0560 h1        1 MB3      0.043200
@<TRIPOS>BOND
     1    1    7 1   
     2    1    8 1   
     3    1    9 1   
     4    1   10 1   
     5    2    6 2   
     6    3    4 1   
     7    3    5 1   
     8    3   11 1   
     9    3   12 1   
    10    4    6 1   
    11    4   13 1   
    12    4   14 1   
    13    5    7 1   
    14    5   15 1   
    15    5   16 1   
    16    6    7 1   
@<TRIPOS>SUBSTRUCTURE
     1 MB3         1 TEMP              0 ****  ****    0 ROOT
