@<TRIPOS>MOLECULE
MB3
   16    16     1     0     0
SMALL
bcc


@<TRIPOS>ATOM
      1 CAA         1.8230    1.1250   -0.0340 c3        1 MB3      0.096300
      2 OAB         1.0910   -1.7060   -0.2220 o         1 MB3     -0.628500
      3 CAC        -1.8690    0.3820    0.0890 c3        1 MB3     -0.093400
      4 CAD        -1.2710   -1.0160   -0.0450 c3        1 MB3     -0.158400
      5 CAE        -0.6710    1.3560    0.0700 c3        1 MB3      0.092000
      6 CAF         0.2380   -0.8110   -0.1260 c         1 MB3      0.698500
      7 NAG         0.5220    0.5520   -0.0900 n         1 MB3     -0.491800
      8 HAA         1.9910    1.6350    0.9540 h1        1 MB3      0.042367
      9 HAAA        2.5900    0.3160   -0.1660 h1        1 MB3      0.042367
     10 HAAB        1.9420    1.8870   -0.8520 h1        1 MB3      0.042367
     11 HAC        -2.5640    0.6050   -0.7560 hc        1 MB3      0.056200
     12 HACA       -2.4390    0.4870    1.0430 hc        1 MB3      0.056200
     13 HAD        -1.5060   -1.6610    0.8360 hc        1 MB3      0.080200
     14 HADA       -1.6220   -1.5370   -0.9690 hc        1 MB3      0.080200
     15 HAE        -0.7570    2.0820   -0.7840 h1        1 MB3      0.042700
     16 HAEA       -0.6190    1.9470    1.0260 h1        1 MB3      0.042700
@<TRIPOS>BOND
     1    1    7 1   
     2    1    8 1   
     3    1    9 1   
     4    1   10 1   
     5    2    6 2   
     6    3    4 1   
     7    3    5 1   
     8    3   11 1   
     9    3   12 1   
    10    4    6 1   
    11    4   13 1   
    12    4   14 1   
    13    5    7 1   
    14    5   15 1   
    15    5   16 1   
    16    6    7 1   
@<TRIPOS>SUBSTRUCTURE
     1 MB3         1 TEMP              0 ****  ****    0 ROOT
