@<TRIPOS>MOLECULE
MB4
   40    41     1     0     0
SMALL
bcc


@<TRIPOS>ATOM
      1 C19        -0.6270   -1.0020    1.0580 ca        1 MB4      0.026000
      2 C18        -0.3480    0.3100    0.6850 ca        1 MB4     -0.163000
      3 C17         0.7810    0.9710    1.1740 ca        1 MB4      0.109700
      4 C21         0.2310   -1.6730    1.9430 ca        1 MB4     -0.145000
      5 C22         1.3490   -1.0280    2.4310 ca        1 MB4      0.002000
      6 C16         1.6720    0.3080    2.0620 ca        1 MB4     -0.569500
      7 S13         3.0140    0.9270    2.6100 sy        1 MB4      1.740800
      8 O14         3.7790    0.1020    3.3910 o         1 MB4     -0.609300
      9 O15         3.5370    2.0160    1.9780 o         1 MB4     -0.609300
     10 N12         3.2970    1.0490    6.0290 nh        1 MB4     -0.491100
     11 C10         2.8420    2.1120    5.3220 c2        1 MB4      0.737100
     12 O11         2.5030    1.9640    4.0650 os        1 MB4     -0.571300
     13 N9          2.6680    3.3650    5.9070 nh        1 MB4     -0.324300
     14 C8          2.4940    4.5780    5.2390 ca        1 MB4      0.016500
     15 C7          2.7160    4.7920    3.8690 ca        1 MB4     -0.144000
     16 C6          2.6090    6.0900    3.3570 ca        1 MB4     -0.045300
     17 C23         2.1070    5.7310    6.0310 ca        1 MB4      0.382200
     18 N24         2.0130    6.9510    5.5360 nb        1 MB4     -0.578000
     19 C5          2.2880    7.1620    4.2080 ca        1 MB4     -0.023800
     20 S1          2.3540    8.7280    3.6630 sy        1 MB4      1.398800
     21 O2          3.2690    9.5180    4.3080 o         1 MB4     -0.540800
     22 O3          2.1290    8.7950    2.3060 o         1 MB4     -0.540800
     23 N4          0.7490    9.3920    4.3560 n4        1 MB4     -0.793500
     24 C20         1.0440    2.3630    0.7390 c3        1 MB4     -0.107800
     25 H1         -1.5200   -1.5170    0.6580 ha        1 MB4      0.180000
     26 H2         -1.0240    0.8340   -0.0130 ha        1 MB4      0.176000
     27 H3          0.0130   -2.7140    2.2390 ha        1 MB4      0.182000
     28 H4          2.0290   -1.5690    3.1180 ha        1 MB4      0.166000
     29 H5          3.5680    1.1190    6.9860 hn        1 MB4      0.344200
     30 H6          2.6810    3.4170    6.9100 hn        1 MB4      0.331700
     31 H7          2.9920    3.9680    3.1830 ha        1 MB4      0.205000
     32 H8          2.7940    6.2630    2.2780 ha        1 MB4      0.197000
     33 H9          1.8770    5.6350    7.1130 h4        1 MB4      0.067100
     34 H10         0.2020    9.8530    3.6240 hn        1 MB4      0.472133
     35 H11         0.9400   10.0910    5.0790 hn        1 MB4      0.472133
     36 H12         1.9020    2.3860    0.0150 hc        1 MB4      0.078367
     37 H13         1.3070    3.0140    1.6110 hc        1 MB4      0.078367
     38 H14         0.1500    2.8020    0.2270 hc        1 MB4      0.078367
     39 H122        3.4810    0.1850    5.5500 hn        1 MB4      0.344200
     40 H43         0.1510    8.6830    4.7760 hn        1 MB4      0.472133
@<TRIPOS>BOND
     1    1    2 ar  
     2    1    4 ar  
     3    1   25 1   
     4    2    3 ar  
     5    2   26 1   
     6    3    6 ar  
     7    3   24 1   
     8    4    5 ar  
     9    4   27 1   
    10    5    6 ar  
    11    5   28 1   
    12    6    7 1   
    13    7    8 2   
    14    7    9 2   
    15    7   12 1   
    16   10   11 2   
    17   10   29 1   
    18   10   39 1   
    19   11   12 1   
    20   11   13 1   
    21   13   14 1   
    22   13   30 1   
    23   14   15 ar  
    24   14   17 ar  
    25   15   16 ar  
    26   15   31 1   
    27   16   19 ar  
    28   16   32 1   
    29   17   18 ar  
    30   17   33 1   
    31   18   19 ar  
    32   19   20 1   
    33   20   21 2   
    34   20   22 2   
    35   20   23 1   
    36   23   34 1   
    37   23   35 1   
    38   23   40 1   
    39   24   36 1   
    40   24   37 1   
    41   24   38 1   
@<TRIPOS>SUBSTRUCTURE
     1 MB4         1 TEMP              0 ****  ****    0 ROOT
