@<TRIPOS>MOLECULE
MB4
   41    41     1     0     0
SMALL
bcc


@<TRIPOS>ATOM
      1 C19      -329.3040 -763.0430 -509.4190 ca        1 MB4      0.054000
      2 C18      -328.0410 -762.5920 -509.0420 ca        1 MB4     -0.170000
      3 C17      -327.8750 -761.3650 -508.4000 ca        1 MB4      0.139700
      4 C21      -330.4380 -762.2550 -509.1510 ca        1 MB4     -0.149000
      5 C22      -330.2920 -761.0430 -508.5190 ca        1 MB4      0.014000
      6 C16      -329.0100 -760.5410 -508.1150 ca        1 MB4     -0.651500
      7 S13      -328.9520 -759.1740 -507.4140 s4        1 MB4      1.657300
      8 O14      -330.1110 -758.5080 -507.2110 o         1 MB4     -0.395400
      9 O15      -327.7640 -758.6690 -507.0190 o         1 MB4     -0.395400
     10 N12       238.4740  547.7490  367.8820 n         1 MB4     -0.590000
     11 C10       237.1950  547.7520  367.4550 c         1 MB4      0.665100
     12 O11       236.6330  548.4870  366.6420 o         1 MB4     -0.466100
     13 N9        236.2220  546.6620  368.0380 n4        1 MB4     -0.564200
     14 C8        235.9480  545.6180  367.0560 ca        1 MB4     -0.076700
     15 C7        236.2270  544.2750  367.3190 ca        1 MB4     -0.064000
     16 C6        235.9430  543.3230  366.3200 ca        1 MB4     -0.080300
     17 C23       235.3570  545.9660  365.7940 ca        1 MB4      0.452200
     18 N24       235.0970  545.0570  364.8610 nb        1 MB4     -0.591000
     19 C5        235.4030  543.7470  365.0980 ca        1 MB4      0.088200
     20 S1        235.2210  542.6510  363.8110 sy        1 MB4      1.372800
     21 O2        236.0260  542.9590  362.7480 o         1 MB4     -0.516800
     22 O3        235.0220  541.3850  364.3020 o         1 MB4     -0.516800
     23 N4        233.5430  543.1180  363.1850 n4        1 MB4     -0.803500
     24 C20      -326.5110 -760.9310 -508.0200 c3        1 MB4     -0.127800
     25 H1       -329.4190 -764.0190 -509.9270 ha        1 MB4      0.184000
     26 H2       -327.1540 -763.2160 -509.2550 ha        1 MB4      0.185000
     27 H3       -331.4390 -762.6120 -509.4500 ha        1 MB4      0.189000
     28 H4       -331.1900 -760.4260 -508.3110 ha        1 MB4      0.180000
     29 H5        239.0690  548.4820  367.5350 hn        1 MB4      0.383500
     30 H6        235.3390  547.1580  368.2440 hn        1 MB4      0.479800
     31 H7        236.6590  543.9290  368.2770 ha        1 MB4      0.197000
     32 H8        236.1500  542.2500  366.5170 ha        1 MB4      0.216000
     33 H9        235.1080  547.0220  365.5350 h4        1 MB4      0.102100
     34 H10       232.9350  542.2930  363.1220 hn        1 MB4      0.482800
     35 H11       233.6110  543.5130  362.2390 hn        1 MB4      0.482800
     36 H12      -326.2410 -759.9630 -508.5200 hc        1 MB4      0.095367
     37 H13      -326.4300 -760.7800 -506.9110 hc        1 MB4      0.095367
     38 H14      -325.7450 -761.6930 -508.3170 hc        1 MB4      0.095367
     39 H122      238.8280  547.1460  368.5890 hn        1 MB4      0.383500
     40 H92       236.5750  546.2450  368.9060 hn        1 MB4      0.479800
     41 H43       233.0460  543.8050  363.7530 hn        1 MB4      0.482800
@<TRIPOS>BOND
     1    1    2 ar  
     2    1    4 ar  
     3    1   25 1   
     4    2    3 ar  
     5    2   26 1   
     6    3    6 ar  
     7    3   24 1   
     8    4    5 ar  
     9    4   27 1   
    10    5    6 ar  
    11    5   28 1   
    12    6    7 1   
    13    7    8 1   
    14    7    9 1   
    15   10   11 1   
    16   10   29 1   
    17   10   39 1   
    18   11   12 2   
    19   11   13 1   
    20   13   14 1   
    21   13   30 1   
    22   13   40 1   
    23   14   15 ar  
    24   14   17 ar  
    25   15   16 ar  
    26   15   31 1   
    27   16   19 ar  
    28   16   32 1   
    29   17   18 ar  
    30   17   33 1   
    31   18   19 ar  
    32   19   20 1   
    33   20   21 2   
    34   20   22 2   
    35   20   23 1   
    36   23   34 1   
    37   23   35 1   
    38   23   41 1   
    39   24   36 1   
    40   24   37 1   
    41   24   38 1   
@<TRIPOS>SUBSTRUCTURE
     1 MB4         1 TEMP              0 ****  ****    0 ROOT
