@<TRIPOS>MOLECULE
MB4
   40    41     1     0     0
SMALL
bcc


@<TRIPOS>ATOM
      1 C19        -0.6370   -1.0250    1.1170 ca        1 MB4      0.026000
      2 C18        -0.3620    0.2840    0.7290 ca        1 MB4     -0.163000
      3 C17         0.7710    0.9510    1.2020 ca        1 MB4      0.109700
      4 C21         0.2290   -1.6860    2.0010 ca        1 MB4     -0.145000
      5 C22         1.3510   -1.0350    2.4730 ca        1 MB4      0.002000
      6 C16         1.6690    0.2980    2.0880 ca        1 MB4     -0.569500
      7 S13         3.0150    0.9230    2.6190 sy        1 MB4      1.740800
      8 O14         3.7880    0.1060    3.4000 o         1 MB4     -0.609300
      9 O15         3.5300    2.0080    1.9740 o         1 MB4     -0.609300
     10 N12         3.3310    1.0750    6.0340 nv        1 MB4     -0.491100
     11 C10         2.8660    2.1300    5.3230 c2        1 MB4      0.737100
     12 O11         2.5150    1.9720    4.0710 os        1 MB4     -0.571300
     13 N9          2.6930    3.3880    5.8990 nu        1 MB4     -0.324300
     14 C8          2.5080    4.5950    5.2230 ca        1 MB4      0.016500
     15 C7          2.7160    4.7980    3.8490 ca        1 MB4     -0.144000
     16 C6          2.5990    6.0910    3.3270 ca        1 MB4     -0.045300
     17 C23         2.1250    5.7530    6.0090 ca        1 MB4      0.382200
     18 N24         2.0210    6.9690    5.5040 nb        1 MB4     -0.578000
     19 C5          2.2820    7.1690    4.1730 ca        1 MB4     -0.023800
     20 S1          2.3360    8.7310    3.6130 sy        1 MB4      1.398800
     21 O2          3.2550    9.5300    4.2420 o         1 MB4     -0.540800
     22 O3          2.0970    8.7850    2.2590 o         1 MB4     -0.540800
     23 N4          0.7360    9.3940    4.3170 nz        1 MB4     -0.793500
     24 C20         1.0280    2.3390    0.7510 c3        1 MB4     -0.107800
     25 H1         -1.5320   -1.5440    0.7290 ha        1 MB4      0.180000
     26 H2         -1.0450    0.8010    0.0310 ha        1 MB4      0.176000
     27 H3          0.0150   -2.7240    2.3090 ha        1 MB4      0.182000
     28 H4          2.0370   -1.5690    3.1590 ha        1 MB4      0.166000
     29 H5          3.6110    1.1540    6.9880 hn        1 MB4      0.344200
     30 H6          2.7170    3.4480    6.9020 hn        1 MB4      0.331700
     31 H7          2.9890    3.9690    3.1670 ha        1 MB4      0.204000
     32 H8          2.7720    6.2560    2.2450 ha        1 MB4      0.197000
     33 H9          1.9060    5.6650    7.0940 h4        1 MB4      0.067100
     34 H10         0.9320   10.1020    5.0320 hn        1 MB4      0.472133
     35 H11         0.1790    9.8460    3.5870 hn        1 MB4      0.472133
     36 H12         0.1300    2.7720    0.2410 hc        1 MB4      0.078367
     37 H13         1.8810    2.3560    0.0210 hc        1 MB4      0.078367
     38 H14         1.2960    3.0000    1.6140 hc        1 MB4      0.078367
     39 H122        3.5130    0.2080    5.5610 hn        1 MB4      0.344200
     40 H43         0.1450    8.6870    4.7510 hn        1 MB4      0.472133
@<TRIPOS>BOND
     1    1    2 ar  
     2    1    4 ar  
     3    1   25 1   
     4    2    3 ar  
     5    2   26 1   
     6    3    6 ar  
     7    3   24 1   
     8    4    5 ar  
     9    4   27 1   
    10    5    6 ar  
    11    5   28 1   
    12    6    7 1   
    13    7    8 2   
    14    7    9 2   
    15    7   12 1   
    16   10   11 2   
    17   10   29 1   
    18   10   39 1   
    19   11   12 1   
    20   11   13 1   
    21   13   14 1   
    22   13   30 1   
    23   14   15 ar  
    24   14   17 ar  
    25   15   16 ar  
    26   15   31 1   
    27   16   19 ar  
    28   16   32 1   
    29   17   18 ar  
    30   17   33 1   
    31   18   19 ar  
    32   19   20 1   
    33   20   21 2   
    34   20   22 2   
    35   20   23 1   
    36   23   34 1   
    37   23   35 1   
    38   23   40 1   
    39   24   36 1   
    40   24   37 1   
    41   24   38 1   
@<TRIPOS>SUBSTRUCTURE
     1 MB4         1 TEMP              0 ****  ****    0 ROOT
