@<TRIPOS>MOLECULE
MB6
   38    38     1     0     0
SMALL
bcc


@<TRIPOS>ATOM
      1 CL1      -701.7080-1037.4730 -409.9080 cl        1 MB6      0.058600
      2 C19      -703.0420-1038.4330 -410.2010 ca        1 MB6      0.170400
      3 C18      -703.7470-1038.3170 -411.4180 ca        1 MB6     -0.160000
      4 C17      -704.8470-1039.1110 -411.6560 ca        1 MB6      0.054000
      5 C21      -703.4720-1039.3670 -409.2350 ca        1 MB6     -0.160000
      6 C22      -704.5730-1040.1570 -409.4810 ca        1 MB6      0.054000
      7 C16      -705.3090-1040.0650 -410.7000 ca        1 MB6     -0.661500
      8 S13      -706.5360-1040.9480 -410.9700 s4        1 MB6      1.662300
      9 O14      -707.1850-1040.8090 -412.1460 o         1 MB6     -0.391400
     10 O15      -706.9180-1041.8300 -410.0210 o         1 MB6     -0.391400
     11 N12       416.1310  613.8810  244.2870 n         1 MB6     -0.591000
     12 C10       417.1190  613.0870  244.7490 c         1 MB6      0.665100
     13 O11       418.0560  613.3470  245.5030 o         1 MB6     -0.464100
     14 N9        417.1370  611.5860  244.2750 n4        1 MB6     -0.564200
     15 C8        418.2360  611.3390  243.3490 ca        1 MB6     -0.077700
     16 C7        417.9710  610.8700  242.0190 ca        1 MB6      0.435200
     17 N6        418.9400  610.6520  241.1370 nb        1 MB6     -0.587000
     18 C23       419.5650  611.5370  243.7360 ca        1 MB6     -0.045000
     19 C24       420.5820  611.3030  242.7900 ca        1 MB6     -0.078300
     20 C5        420.2370  610.8860  241.4960 ca        1 MB6      0.082200
     21 S1        421.4210  610.7800  240.2840 sy        1 MB6      1.373800
     22 O2        421.1800  611.6300  239.2390 o         1 MB6     -0.516300
     23 O3        422.6520  610.5630  240.8510 o         1 MB6     -0.516300
     24 N4        421.0120  609.1280  239.5510 n4        1 MB6     -0.803500
     25 H1       -703.4150-1037.5870 -412.1800 ha        1 MB6      0.199000
     26 H2       -705.3940-1039.0110 -412.6160 ha        1 MB6      0.183000
     27 H3       -702.9230-1039.4630 -408.2790 ha        1 MB6      0.199000
     28 H4       -704.9020-1040.8870 -408.7130 ha        1 MB6      0.183000
     29 H5        415.3800  613.5690  243.7150 hn        1 MB6      0.383500
     30 H6        417.2930  611.0250  245.1290 hn        1 MB6      0.478800
     31 H7        416.9400  610.6650  241.6570 h4        1 MB6      0.076100
     32 H8        419.8370  611.8900  244.7530 ha        1 MB6      0.222000
     33 H9        421.6420  611.4540  243.0830 ha        1 MB6      0.220000
     34 H10       421.8380  608.5180  239.5420 hn        1 MB6      0.481800
     35 H11       420.2730  608.6160  240.0320 hn        1 MB6      0.481800
     36 H122      416.1070  614.8230  244.6380 hn        1 MB6      0.383500
     37 H92       416.2490  611.2970  243.8510 hn        1 MB6      0.478800
     38 H43       420.7090  609.2350  238.5750 hn        1 MB6      0.481800
@<TRIPOS>BOND
     1    1    2 1   
     2    2    3 ar  
     3    2    5 ar  
     4    3    4 ar  
     5    3   25 1   
     6    4    7 ar  
     7    4   26 1   
     8    5    6 ar  
     9    5   27 1   
    10    6    7 ar  
    11    6   28 1   
    12    7    8 1   
    13    8    9 1   
    14    8   10 1   
    15   11   12 1   
    16   11   29 1   
    17   11   36 1   
    18   12   13 2   
    19   12   14 1   
    20   14   15 1   
    21   14   30 1   
    22   14   37 1   
    23   15   16 ar  
    24   15   18 ar  
    25   16   17 ar  
    26   16   31 1   
    27   17   20 ar  
    28   18   19 ar  
    29   18   32 1   
    30   19   20 ar  
    31   19   33 1   
    32   20   21 1   
    33   21   22 2   
    34   21   23 2   
    35   21   24 1   
    36   24   34 1   
    37   24   35 1   
    38   24   38 1   
@<TRIPOS>SUBSTRUCTURE
     1 MB6         1 TEMP              0 ****  ****    0 ROOT
