@<TRIPOS>MOLECULE
MB6
   37    38     1     0     0
SMALL
bcc


@<TRIPOS>ATOM
      1 Cl1         1.8040   -3.1800    1.8600 cl        1 MB6      0.039600
      2 C19         2.5930   -1.8690    1.1810 ca        1 MB6      0.145400
      3 C18         3.7650   -2.0610    0.4260 ca        1 MB6     -0.155500
      4 C17         4.4100   -0.9750   -0.1340 ca        1 MB6      0.036500
      5 C21         2.0860   -0.5670    1.3600 ca        1 MB6     -0.155500
      6 C22         2.7410    0.5100    0.7940 ca        1 MB6      0.036500
      7 C16         3.9230    0.3480    0.0280 ca        1 MB6     -0.579500
      8 S13         4.6260    1.5720   -0.6660 sy        1 MB6      1.746800
      9 O14         5.6210    1.2770   -1.5560 o         1 MB6     -0.608800
     10 O15         3.9520    2.7570   -0.6660 o         1 MB6     -0.608800
     11 N12         8.0030    1.9830   -0.1590 nv        1 MB6     -0.491100
     12 C10         7.0890    2.5700    0.6510 c2        1 MB6      0.737100
     13 O11         5.8310    2.2040    0.5930 os        1 MB6     -0.574300
     14 N9          7.4440    3.5350    1.5910 nu        1 MB6     -0.325300
     15 C8          6.5570    4.3570    2.2920 ca        1 MB6      0.012500
     16 C7          7.0350    4.9970    3.5020 ca        1 MB6      0.383200
     17 N6          6.2950    5.8160    4.2270 nb        1 MB6     -0.576000
     18 C23         5.2520    4.6670    1.8770 ca        1 MB6     -0.139000
     19 C24         4.4810    5.5420    2.6510 ca        1 MB6     -0.047300
     20 C5          5.0080    6.0870    3.8360 ca        1 MB6     -0.023800
     21 S1          4.0600    6.9850    4.8600 sy        1 MB6      1.396800
     22 O2          2.9770    7.5200    4.1990 o         1 MB6     -0.541300
     23 O3          3.9830    6.5030    6.1400 o         1 MB6     -0.541300
     24 N4          5.1590    8.4780    5.0890 nz        1 MB6     -0.794500
     25 H1          4.1640   -3.0810    0.2740 ha        1 MB6      0.191000
     26 H2          5.3210   -1.1400   -0.7410 ha        1 MB6      0.166500
     27 H3          1.1610   -0.4110    1.9430 ha        1 MB6      0.191000
     28 H4          2.3260    1.5280    0.9270 ha        1 MB6      0.166500
     29 H5          8.9680    2.2320   -0.1450 hn        1 MB6      0.344700
     30 H6          8.4130    3.6170    1.8390 hn        1 MB6      0.332700
     31 H7          8.0630    4.8190    3.8800 h4        1 MB6      0.068100
     32 H8          4.8150    4.2400    0.9530 ha        1 MB6      0.205000
     33 H9          3.4570    5.8030    2.3180 ha        1 MB6      0.199000
     34 H10         4.6510    9.3400    4.8740 hn        1 MB6      0.473133
     35 H11         5.4700    8.5430    6.0630 hn        1 MB6      0.473133
     36 H122        7.6900    1.3470   -0.8710 hn        1 MB6      0.344700
     37 H43         5.9970    8.4710    4.5080 hn        1 MB6      0.473133
@<TRIPOS>BOND
     1    1    2 1   
     2    2    3 ar  
     3    2    5 ar  
     4    3    4 ar  
     5    3   25 1   
     6    4    7 ar  
     7    4   26 1   
     8    5    6 ar  
     9    5   27 1   
    10    6    7 ar  
    11    6   28 1   
    12    7    8 1   
    13    8    9 2   
    14    8   10 2   
    15    8   13 1   
    16   11   12 2   
    17   11   29 1   
    18   11   36 1   
    19   12   13 1   
    20   12   14 1   
    21   14   15 1   
    22   14   30 1   
    23   15   16 ar  
    24   15   18 ar  
    25   16   17 ar  
    26   16   31 1   
    27   17   20 ar  
    28   18   19 ar  
    29   18   32 1   
    30   19   20 ar  
    31   19   33 1   
    32   20   21 1   
    33   21   22 2   
    34   21   23 2   
    35   21   24 1   
    36   24   34 1   
    37   24   35 1   
    38   24   37 1   
@<TRIPOS>SUBSTRUCTURE
     1 MB6         1 TEMP              0 ****  ****    0 ROOT
