@<TRIPOS>MOLECULE
MB6
   37    38     1     0     0
SMALL
bcc


@<TRIPOS>ATOM
      1 CL1         1.6800   -3.1140    1.9100 cl        1 MB6      0.039600
      2 C19         2.5360   -1.8470    1.2300 ca        1 MB6      0.145400
      3 C18         3.7480   -2.0910    0.5550 ca        1 MB6     -0.155500
      4 C17         4.4470   -1.0400   -0.0070 ca        1 MB6      0.036500
      5 C21         2.0470   -0.5300    1.3250 ca        1 MB6     -0.155500
      6 C22         2.7570    0.5120    0.7590 ca        1 MB6      0.036500
      7 C16         3.9790    0.2970    0.0730 ca        1 MB6     -0.579500
      8 S13         4.7480    1.4780   -0.6240 sy        1 MB6      1.746800
      9 O14         5.7890    1.1300   -1.4400 o         1 MB6     -0.608800
     10 O15         4.1010    2.6750   -0.7120 o         1 MB6     -0.608800
     11 N12         8.0960    1.8470    0.0720 nh        1 MB6     -0.491100
     12 C10         7.1480    2.4820    0.8000 c2        1 MB6      0.737100
     13 O11         5.8890    2.1380    0.6810 os        1 MB6     -0.574300
     14 N9          7.4660    3.4780    1.7220 nh        1 MB6     -0.325300
     15 C8          6.5560    4.3430    2.3360 ca        1 MB6      0.012500
     16 C7          6.9730    5.0220    3.5470 ca        1 MB6      0.383200
     17 N6          6.2090    5.8830    4.1940 nb        1 MB6     -0.576000
     18 C23         5.2850    4.6610    1.8300 ca        1 MB6     -0.139000
     19 C24         4.4870    5.5810    2.5210 ca        1 MB6     -0.047300
     20 C5          4.9540    6.1610    3.7140 ca        1 MB6     -0.023800
     21 S1          3.9650    7.1170    4.6430 sy        1 MB6      1.396800
     22 O2          2.9350    7.6460    3.8970 o         1 MB6     -0.541300
     23 O3          3.8000    6.6880    5.9340 o         1 MB6     -0.541300
     24 N4          5.0790    8.5970    4.8810 n4        1 MB6     -0.794500
     25 H1          4.1320   -3.1230    0.4680 ha        1 MB6      0.191000
     26 H2          5.3890   -1.2470   -0.5500 ha        1 MB6      0.166500
     27 H3          1.0920   -0.3330    1.8450 ha        1 MB6      0.191000
     28 H4          2.3570    1.5410    0.8270 ha        1 MB6      0.166500
     29 H5          9.0640    2.0780    0.1350 hn        1 MB6      0.344700
     30 H6          8.4200    3.5520    2.0250 hn        1 MB6      0.332700
     31 H7          7.9730    4.8400    3.9940 h4        1 MB6      0.068100
     32 H8          4.8960    4.2060    0.8990 ha        1 MB6      0.205000
     33 H9          3.4910    5.8460    2.1160 ha        1 MB6      0.199000
     34 H10         4.6030    9.4590    4.6030 hn        1 MB6      0.473133
     35 H11         5.9500    8.5510    4.3540 hn        1 MB6      0.473133
     36 H122        7.8130    1.1880   -0.6330 hn        1 MB6      0.344700
     37 H43         5.3320    8.6950    5.8700 hn        1 MB6      0.473133
@<TRIPOS>BOND
     1    1    2 1   
     2    2    3 ar  
     3    2    5 ar  
     4    3    4 ar  
     5    3   25 1   
     6    4    7 ar  
     7    4   26 1   
     8    5    6 ar  
     9    5   27 1   
    10    6    7 ar  
    11    6   28 1   
    12    7    8 1   
    13    8    9 2   
    14    8   10 2   
    15    8   13 1   
    16   11   12 2   
    17   11   29 1   
    18   11   36 1   
    19   12   13 1   
    20   12   14 1   
    21   14   15 1   
    22   14   30 1   
    23   15   16 ar  
    24   15   18 ar  
    25   16   17 ar  
    26   16   31 1   
    27   17   20 ar  
    28   18   19 ar  
    29   18   32 1   
    30   19   20 ar  
    31   19   33 1   
    32   20   21 1   
    33   21   22 2   
    34   21   23 2   
    35   21   24 1   
    36   24   34 1   
    37   24   35 1   
    38   24   37 1   
@<TRIPOS>SUBSTRUCTURE
     1 MB6         1 TEMP              0 ****  ****    0 ROOT
