@<TRIPOS>MOLECULE
MB7
   40    41     1     0     0
SMALL
bcc


@<TRIPOS>ATOM
      1 C20         0.5330    1.9890   -0.9680 c3        1 MB7     -0.103800
      2 C19         1.5850    1.0350   -0.5680 ca        1 MB7      0.100700
      3 C18         1.3470   -0.3520   -0.6020 ca        1 MB7     -0.163500
      4 C17         2.3250   -1.2420   -0.2030 ca        1 MB7      0.034000
      5 C21         2.8400    1.4960   -0.1270 ca        1 MB7     -0.163500
      6 C22         3.8150    0.6040    0.2700 ca        1 MB7      0.034000
      7 C16         3.5950   -0.7990    0.2510 ca        1 MB7     -0.590500
      8 S13         4.6780   -1.8050    0.7690 sy        1 MB7      1.747800
      9 O14         5.7730   -1.2640    1.3860 o         1 MB7     -0.611800
     10 O15         4.2940   -3.1020    0.9510 o         1 MB7     -0.611800
     11 N12         7.8540   -1.5580   -0.5370 nh        1 MB7     -0.492100
     12 C10         6.9250   -2.3770   -1.0850 c2        1 MB7      0.736100
     13 O11         5.6680   -2.2690   -0.7350 os        1 MB7     -0.570300
     14 N9          7.2520   -3.3200   -2.0590 nh        1 MB7     -0.326300
     15 C8          6.4280   -4.3590   -2.4990 ca        1 MB7      0.014500
     16 C7          5.3480   -4.8880   -1.7740 ca        1 MB7     -0.140000
     17 C6          4.6280   -5.9610   -2.3120 ca        1 MB7     -0.046300
     18 C23         6.7450   -4.9880   -3.7660 ca        1 MB7      0.382200
     19 N24         6.0540   -5.9960   -4.2660 nb        1 MB7     -0.575000
     20 C5          4.9770   -6.4850   -3.5700 ca        1 MB7     -0.026800
     21 S1          4.0380   -7.6370   -4.3060 sy        1 MB7      1.397800
     22 O2          3.2690   -8.3180   -3.3900 o         1 MB7     -0.542300
     23 O3          3.5760   -7.2930   -5.5500 o         1 MB7     -0.542300
     24 N4          5.3510   -8.8960   -4.7320 n4        1 MB7     -0.793500
     25 H1          0.9740    2.9120   -1.4240 hc        1 MB7      0.088033
     26 H2         -0.1790    1.5320   -1.7000 hc        1 MB7      0.088033
     27 H3         -0.0520    2.2990   -0.0610 hc        1 MB7      0.088033
     28 H4          0.3650   -0.7260   -0.9410 ha        1 MB7      0.178500
     29 H5          2.1160   -2.3280   -0.2210 ha        1 MB7      0.161500
     30 H6          3.0370    2.5830   -0.0930 ha        1 MB7      0.178500
     31 H7          4.7890    0.9850    0.6300 ha        1 MB7      0.161500
     32 H8          8.8210   -1.6080   -0.7770 hn        1 MB7      0.344200
     33 H9          8.1300   -3.2200   -2.5350 hn        1 MB7      0.331700
     34 H10         5.0510   -4.4830   -0.7870 ha        1 MB7      0.206000
     35 H11         3.7860   -6.3920   -1.7350 ha        1 MB7      0.198000
     36 H12         7.5990   -4.6400   -4.3850 h4        1 MB7      0.067100
     37 H13         5.4430   -8.9820   -5.7490 hn        1 MB7      0.472800
     38 H14         5.0990   -9.8200   -4.3710 hn        1 MB7      0.472800
     39 H122        7.5850   -0.9490    0.2160 hn        1 MB7      0.344200
     40 H43         6.2750   -8.6720   -4.3670 hn        1 MB7      0.472800
@<TRIPOS>BOND
     1    1    2 1   
     2    1   25 1   
     3    1   26 1   
     4    1   27 1   
     5    2    3 ar  
     6    2    5 ar  
     7    3    4 ar  
     8    3   28 1   
     9    4    7 ar  
    10    4   29 1   
    11    5    6 ar  
    12    5   30 1   
    13    6    7 ar  
    14    6   31 1   
    15    7    8 1   
    16    8    9 2   
    17    8   10 2   
    18    8   13 1   
    19   11   12 2   
    20   11   32 1   
    21   11   39 1   
    22   12   13 1   
    23   12   14 1   
    24   14   15 1   
    25   14   33 1   
    26   15   16 ar  
    27   15   18 ar  
    28   16   17 ar  
    29   16   34 1   
    30   17   20 ar  
    31   17   35 1   
    32   18   19 ar  
    33   18   36 1   
    34   19   20 ar  
    35   20   21 1   
    36   21   22 2   
    37   21   23 2   
    38   21   24 1   
    39   24   37 1   
    40   24   38 1   
    41   24   40 1   
@<TRIPOS>SUBSTRUCTURE
     1 MB7         1 TEMP              0 ****  ****    0 ROOT
