@<TRIPOS>MOLECULE
MB7
   41    41     1     0     0
SMALL
bcc


@<TRIPOS>ATOM
      1 C20      -467.9050  595.2760  336.8780 c3        1 MB7     -0.110800
      2 C19      -468.7100  595.4640  338.0980 ca        1 MB7      0.131700
      3 C18      -468.0850  595.6540  339.3490 ca        1 MB7     -0.167000
      4 C17      -468.8370  595.8420  340.4870 ca        1 MB7      0.050000
      5 C21      -470.1190  595.4690  338.0350 ca        1 MB7     -0.167000
      6 C22      -470.8720  595.6570  339.1720 ca        1 MB7      0.050000
      7 C16      -470.2650  595.8520  340.4510 ca        1 MB7     -0.668500
      8 S13      -471.1020  596.0580  341.7170 s4        1 MB7      1.662300
      9 O14      -472.4490  596.0560  341.6120 o         1 MB7     -0.396400
     10 O15      -470.4630  596.2360  342.8950 o         1 MB7     -0.396400
     11 N12       344.1520 -427.1140 -241.2410 n         1 MB7     -0.593000
     12 C10       342.9020 -426.6160 -241.1310 c         1 MB7      0.662100
     13 O11       342.0890 -426.7340 -240.2150 o         1 MB7     -0.467100
     14 N9        342.3570 -425.7550 -242.3290 n4        1 MB7     -0.562200
     15 C8        341.0430 -426.2160 -242.7650 ca        1 MB7     -0.074700
     16 C7        339.9210 -426.0930 -241.9400 ca        1 MB7     -0.037000
     17 C6        338.6710 -426.5120 -242.4400 ca        1 MB7     -0.078300
     18 C23       340.8800 -426.8020 -244.0650 ca        1 MB7      0.437200
     19 N24       339.6950 -427.1910 -244.5240 nb        1 MB7     -0.588000
     20 C5        338.5870 -427.0260 -243.7410 ca        1 MB7      0.082200
     21 S1        337.0740 -427.3480 -244.4400 sy        1 MB7      1.373800
     22 O2        336.1520 -427.6100 -243.4580 o         1 MB7     -0.516800
     23 O3        336.8370 -426.5870 -245.5530 o         1 MB7     -0.516800
     24 N4        337.3840 -429.0240 -245.1670 n4        1 MB7     -0.802500
     25 H1       -466.9220  594.7920  337.1080 hc        1 MB7      0.093700
     26 H2       -468.4470  594.6530  336.1220 hc        1 MB7      0.093700
     27 H3       -467.6960  596.2780  336.4140 hc        1 MB7      0.093700
     28 H4       -466.9820  595.6500  339.4100 ha        1 MB7      0.187000
     29 H5       -468.3300  595.9900  341.4620 ha        1 MB7      0.178000
     30 H6       -470.6180  595.3200  337.0600 ha        1 MB7      0.187000
     31 H7       -471.9780  595.6580  339.1040 ha        1 MB7      0.178000
     32 H8        344.7710 -426.9190 -241.9940 hn        1 MB7      0.383500
     33 H9        342.9990 -425.7450 -243.1290 hn        1 MB7      0.477800
     34 H10       339.9870 -425.6930 -240.9070 ha        1 MB7      0.219000
     35 H11       337.7720 -426.4240 -241.7950 ha        1 MB7      0.219000
     36 H12       341.7340 -426.9530 -244.7590 h4        1 MB7      0.076100
     37 H13       336.6780 -429.6970 -244.8470 hn        1 MB7      0.481133
     38 H14       337.3180 -428.9870 -246.1920 hn        1 MB7      0.481133
     39 H122      344.5090 -427.6180 -240.4460 hn        1 MB7      0.383500
     40 H92       342.2640 -424.7910 -241.9700 hn        1 MB7      0.477800
     41 H43       338.2950 -429.4250 -244.9470 hn        1 MB7      0.481133
@<TRIPOS>BOND
     1    1    2 1   
     2    1   25 1   
     3    1   26 1   
     4    1   27 1   
     5    2    3 ar  
     6    2    5 ar  
     7    3    4 ar  
     8    3   28 1   
     9    4    7 ar  
    10    4   29 1   
    11    5    6 ar  
    12    5   30 1   
    13    6    7 ar  
    14    6   31 1   
    15    7    8 1   
    16    8    9 1   
    17    8   10 1   
    18   11   12 1   
    19   11   32 1   
    20   11   39 1   
    21   12   13 2   
    22   12   14 1   
    23   14   15 1   
    24   14   33 1   
    25   14   40 1   
    26   15   16 ar  
    27   15   18 ar  
    28   16   17 ar  
    29   16   34 1   
    30   17   20 ar  
    31   17   35 1   
    32   18   19 ar  
    33   18   36 1   
    34   19   20 ar  
    35   20   21 1   
    36   21   22 2   
    37   21   23 2   
    38   21   24 1   
    39   24   37 1   
    40   24   38 1   
    41   24   41 1   
@<TRIPOS>SUBSTRUCTURE
     1 MB7         1 TEMP              0 ****  ****    0 ROOT
