@<TRIPOS>MOLECULE
MB7
   40    41     1     0     0
SMALL
bcc


@<TRIPOS>ATOM
      1 C20         0.5940    2.0740   -1.3130 c3        1 MB7     -0.103800
      2 C19         1.5930    1.1040   -0.8250 ca        1 MB7      0.100700
      3 C18         1.3290   -0.2790   -0.8620 ca        1 MB7     -0.163500
      4 C17         2.2570   -1.1830   -0.3820 ca        1 MB7      0.034000
      5 C21         2.8210    1.5450   -0.2960 ca        1 MB7     -0.163500
      6 C22         3.7450    0.6380    0.1820 ca        1 MB7      0.034000
      7 C16         3.4980   -0.7600    0.1610 ca        1 MB7     -0.590500
      8 S13         4.5190   -1.7810    0.7690 sy        1 MB7      1.747800
      9 O14         5.5750   -1.2540    1.4610 o         1 MB7     -0.611800
     10 O15         4.0960   -3.0680    0.9350 o         1 MB7     -0.611800
     11 N12         7.7880   -1.6140   -0.2970 nv        1 MB7     -0.492100
     12 C10         6.8850   -2.4200   -0.9060 c2        1 MB7      0.736100
     13 O11         5.6080   -2.2820   -0.6520 os        1 MB7     -0.570300
     14 N9          7.2650   -3.3800   -1.8430 nu        1 MB7     -0.326300
     15 C8          6.4530   -4.4060   -2.3340 ca        1 MB7      0.014500
     16 C7          5.3120   -4.9060   -1.6870 ca        1 MB7     -0.140000
     17 C6          4.6120   -5.9700   -2.2670 ca        1 MB7     -0.046300
     18 C23         6.8510   -5.0550   -3.5680 ca        1 MB7      0.382200
     19 N24         6.1780   -6.0550   -4.1090 nb        1 MB7     -0.575000
     20 C5          5.0420   -6.5140   -3.4900 ca        1 MB7     -0.026800
     21 S1          4.1360   -7.6540   -4.2840 sy        1 MB7      1.397800
     22 O2          3.2880   -8.3110   -3.4210 o         1 MB7     -0.542300
     23 O3          3.7750   -7.3140   -5.5610 o         1 MB7     -0.542300
     24 N4          5.4510   -8.9440   -4.6000 nz        1 MB7     -0.793500
     25 H1          1.0870    2.9820   -1.7440 hc        1 MB7      0.088033
     26 H2         -0.0710    1.6210   -2.0910 hc        1 MB7      0.088033
     27 H3         -0.0510    2.4050   -0.4550 hc        1 MB7      0.088033
     28 H4          0.3680   -0.6370   -1.2700 ha        1 MB7      0.178500
     29 H5          2.0280   -2.2650   -0.4040 ha        1 MB7      0.161500
     30 H6          3.0380    2.6270   -0.2590 ha        1 MB7      0.178500
     31 H7          4.6970    1.0050    0.6110 ha        1 MB7      0.161500
     32 H8          7.4770   -0.9900    0.4270 hn        1 MB7      0.344200
     33 H9          8.1780   -3.3030   -2.2530 hn        1 MB7      0.331700
     34 H10         4.9500   -4.4840   -0.7290 ha        1 MB7      0.206000
     35 H11         3.7200   -6.3770   -1.7510 ha        1 MB7      0.198000
     36 H12         7.7550   -4.7310   -4.1250 h4        1 MB7      0.067100
     37 H13         6.3500   -8.7360   -4.1690 hn        1 MB7      0.472800
     38 H14         5.6160   -9.0420   -5.6060 hn        1 MB7      0.472800
     39 H122        8.7680   -1.6860   -0.4640 hn        1 MB7      0.344200
     40 H43         5.1540   -9.8590   -4.2500 hn        1 MB7      0.472800
@<TRIPOS>BOND
     1    1    2 1   
     2    1   25 1   
     3    1   26 1   
     4    1   27 1   
     5    2    3 ar  
     6    2    5 ar  
     7    3    4 ar  
     8    3   28 1   
     9    4    7 ar  
    10    4   29 1   
    11    5    6 ar  
    12    5   30 1   
    13    6    7 ar  
    14    6   31 1   
    15    7    8 1   
    16    8    9 2   
    17    8   10 2   
    18    8   13 1   
    19   11   12 2   
    20   11   32 1   
    21   11   39 1   
    22   12   13 1   
    23   12   14 1   
    24   14   15 1   
    25   14   33 1   
    26   15   16 ar  
    27   15   18 ar  
    28   16   17 ar  
    29   16   34 1   
    30   17   20 ar  
    31   17   35 1   
    32   18   19 ar  
    33   18   36 1   
    34   19   20 ar  
    35   20   21 1   
    36   21   22 2   
    37   21   23 2   
    38   21   24 1   
    39   24   37 1   
    40   24   38 1   
    41   24   40 1   
@<TRIPOS>SUBSTRUCTURE
     1 MB7         1 TEMP              0 ****  ****    0 ROOT
