@<TRIPOS>MOLECULE
MB8
   14    13     1     0     0
SMALL
bcc


@<TRIPOS>ATOM
      1 C          -0.0950    0.2540    0.1010 c         1 MB8      0.903800
      2 O           0.9240   -0.3960    0.4710 o         1 MB8     -0.839800
      3 O2         -0.6540    1.1410    0.8110 o         1 MB8     -0.839800
      4 C2         -0.7110   -0.0420   -1.2590 ce        1 MB8     -0.144400
      5 C3         -2.1750   -0.2730   -1.2180 c3        1 MB8     -0.048900
      6 C4         -0.0270   -0.0670   -2.4100 c2        1 MB8     -0.216200
      7 C5          1.4270    0.1440   -2.5340 c3        1 MB8     -0.048900
      8 H2         -2.3860   -1.2590   -0.7350 hc        1 MB8      0.025700
      9 H3         -2.6350   -0.2730   -2.2360 hc        1 MB8      0.025700
     10 H4         -2.6530    0.5280   -0.5990 hc        1 MB8      0.025700
     11 H5         -0.5490   -0.2540   -3.3650 ha        1 MB8      0.070000
     12 H6          1.8890   -0.6830   -3.1300 hc        1 MB8      0.029367
     13 H7          1.6380    1.1080   -3.0620 hc        1 MB8      0.029367
     14 H8          1.9120    0.1690   -1.5230 hc        1 MB8      0.029367
@<TRIPOS>BOND
     1    1    2 1   
     2    1    3 1   
     3    1    4 1   
     4    4    5 1   
     5    4    6 2   
     6    5    8 1   
     7    5    9 1   
     8    5   10 1   
     9    6    7 1   
    10    6   11 1   
    11    7   12 1   
    12    7   13 1   
    13    7   14 1   
@<TRIPOS>SUBSTRUCTURE
     1 MB8         1 TEMP              0 ****  ****    0 ROOT
