@<TRIPOS>MOLECULE
MB8
   14    13     1     0     0
SMALL
bcc


@<TRIPOS>ATOM
      1 C          -0.0970   -0.2610    0.0980 c         1 MB8      0.903800
      2 O           0.8680    0.4530    0.4960 o         1 MB8     -0.839800
      3 O2         -0.5980   -1.2020    0.7800 o         1 MB8     -0.839800
      4 C2         -0.7160    0.0200   -1.2640 ce        1 MB8     -0.144400
      5 C3         -2.1930    0.1430   -1.2380 c3        1 MB8     -0.048900
      6 C4         -0.0220    0.1210   -2.4050 c2        1 MB8     -0.216200
      7 C5          1.4450    0.0190   -2.5130 c3        1 MB8     -0.048900
      8 H2         -2.6190   -0.7040   -0.6430 hc        1 MB8      0.025700
      9 H3         -2.6400    0.1340   -2.2620 hc        1 MB8      0.025700
     10 H4         -2.4820    1.1000   -0.7350 hc        1 MB8      0.025700
     11 H5         -0.5450    0.2920   -3.3620 ha        1 MB8      0.070000
     12 H6          1.9180    0.0060   -1.4970 hc        1 MB8      0.029367
     13 H7          1.7320   -0.9150   -3.0590 hc        1 MB8      0.029367
     14 H8          1.8530    0.8900   -3.0850 hc        1 MB8      0.029367
@<TRIPOS>BOND
     1    1    2 1   
     2    1    3 1   
     3    1    4 1   
     4    4    5 1   
     5    4    6 2   
     6    5    8 1   
     7    5    9 1   
     8    5   10 1   
     9    6    7 1   
    10    6   11 1   
    11    7   12 1   
    12    7   13 1   
    13    7   14 1   
@<TRIPOS>SUBSTRUCTURE
     1 MB8         1 TEMP              0 ****  ****    0 ROOT
