@<TRIPOS>MOLECULE
MB9
   40    43     1     0     0
SMALL
bcc


@<TRIPOS>ATOM
      1 C1K        -0.0080    0.0030   -0.0770 c3        1 MB9     -0.133400
      2 C1I         1.5100   -0.1610   -0.0140 c3        1 MB9      0.148800
      3 N1M         2.1000   -0.0780    1.3060 n3        1 MB9     -0.799200
      4 C1J         1.6240    1.0610    2.0640 c3        1 MB9      0.148800
      5 C1L         0.1060    1.2300    2.0970 c3        1 MB9     -0.133400
      6 C1W        -0.4910    1.2700    0.6660 c3        1 MB9      0.134400
      7 N1N        -0.0880    2.4690   -0.0560 n         1 MB9     -0.548900
      8 C1O        -0.6500    3.7140    0.1780 c         1 MB9      0.731700
      9 O1C        -0.1030    4.7480   -0.2560 o         1 MB9     -0.638500
     10 C1Q        -1.9370    3.6980    0.9050 cc        1 MB9     -0.100300
     11 N1V        -2.6670    4.7930    1.3710 na        1 MB9     -0.019400
     12 C1A        -2.3270    6.1760    1.2550 c3        1 MB9      0.008600
     13 C1T        -3.8160    4.2930    1.9970 ca        1 MB9     -0.033200
     14 C1H        -4.8710    4.9750    2.6310 ca        1 MB9     -0.133000
     15 C1P        -5.8930    4.2060    3.1680 ca        1 MB9      0.040400
     16 CL1D       -7.1910    4.9820    3.9470 cl        1 MB9     -0.091400
     17 C1F        -5.8960    2.7940    3.0930 ca        1 MB9     -0.146000
     18 C1G        -4.8630    2.1180    2.4710 ca        1 MB9     -0.072000
     19 C1S        -3.8060    2.8460    1.9130 ca        1 MB9     -0.085800
     20 C1R        -2.6000    2.4980    1.2150 cd        1 MB9     -0.117400
     21 C1U        -2.0510    1.1830    0.8230 c3        1 MB9      0.071600
     22 C1E        -2.6770    0.7100   -0.4030 c1        1 MB9      0.215700
     23 N1B        -3.1980    0.3330   -1.3710 n1        1 MB9     -0.360800
     24 H1K        -0.3220    0.0350   -1.1520 hc        1 MB9      0.062450
     25 H1KA       -0.5070   -0.8800    0.4000 hc        1 MB9      0.062450
     26 H1I         1.7800   -1.1600   -0.4600 h1        1 MB9      0.058700
     27 H1IA        1.9990    0.6310   -0.6510 h1        1 MB9      0.058700
     28 HN1M        1.9210   -0.9250    1.8150 hn        1 MB9      0.353800
     29 H1J         2.0930    1.9840    1.6200 h1        1 MB9      0.058700
     30 H1JA        2.0010    0.9650    3.1210 h1        1 MB9      0.058700
     31 H1L        -0.3550    0.3710    2.6510 hc        1 MB9      0.062450
     32 H1LA       -0.1540    2.1690    2.6480 hc        1 MB9      0.062450
     33 HN1N        0.8120    2.4470   -0.4800 hn        1 MB9      0.328500
     34 H1A        -3.2130    6.7460    0.8630 h1        1 MB9      0.069033
     35 H1AA       -2.0490    6.5860    2.2630 h1        1 MB9      0.069033
     36 H1AB       -1.4600    6.2980    0.5500 h1        1 MB9      0.069033
     37 H1H        -4.8770    6.0720    2.6930 ha        1 MB9      0.153000
     38 H1F        -6.7350    2.2350    3.5340 ha        1 MB9      0.150000
     39 H1G        -4.8680    1.0200    2.4080 ha        1 MB9      0.141000
     40 H1U        -2.2730    0.4240    1.6310 hc        1 MB9      0.092700
@<TRIPOS>BOND
     1    1    2 1   
     2    1    6 1   
     3    1   24 1   
     4    1   25 1   
     5    2    3 1   
     6    2   26 1   
     7    2   27 1   
     8    3    4 1   
     9    3   28 1   
    10    4    5 1   
    11    4   29 1   
    12    4   30 1   
    13    5    6 1   
    14    5   31 1   
    15    5   32 1   
    16    6    7 1   
    17    6   21 1   
    18    7    8 1   
    19    7   33 1   
    20    8    9 2   
    21    8   10 1   
    22   10   11 1   
    23   10   20 2   
    24   11   12 1   
    25   11   13 1   
    26   12   34 1   
    27   12   35 1   
    28   12   36 1   
    29   13   14 ar  
    30   13   19 ar  
    31   14   15 ar  
    32   14   37 1   
    33   15   16 1   
    34   15   17 ar  
    35   17   18 ar  
    36   17   38 1   
    37   18   19 ar  
    38   18   39 1   
    39   19   20 1   
    40   20   21 1   
    41   21   22 1   
    42   21   40 1   
    43   22   23 3   
@<TRIPOS>SUBSTRUCTURE
     1 MB9         1 TEMP              0 ****  ****    0 ROOT
