@<TRIPOS>MOLECULE
MB9
   40    43     1     0     0
SMALL
bcc


@<TRIPOS>ATOM
      1 C1K        -3.7220   -1.2000    0.3520 c3        1 MB9     -0.133400
      2 C1I        -5.0150   -0.6780   -0.2740 c3        1 MB9      0.148800
      3 N1M        -4.9920   -0.4960   -1.7100 n3        1 MB9     -0.799200
      4 C1J        -3.8170    0.2140   -2.1700 c3        1 MB9      0.148800
      5 C1L        -2.4870   -0.3140   -1.6330 c3        1 MB9     -0.133400
      6 C1W        -2.4880   -0.3760   -0.0830 c3        1 MB9      0.134400
      7 N1N        -2.5250    0.9520    0.5140 n         1 MB9     -0.548900
      8 C1O        -1.4160    1.7810    0.5780 c         1 MB9      0.731700
      9 O1C        -1.5450    2.9920    0.8440 o         1 MB9     -0.638500
     10 C1Q        -0.1150    1.1090    0.3750 cc        1 MB9     -0.100300
     11 N1V         1.1450    1.7020    0.2770 na        1 MB9     -0.019400
     12 C1A         1.4560    3.0940    0.3460 c3        1 MB9      0.008600
     13 C1T         2.0770    0.6740    0.0880 ca        1 MB9     -0.033200
     14 C1H         3.4730    0.7360   -0.0720 ca        1 MB9     -0.133000
     15 C1P         4.1480   -0.4640   -0.2420 ca        1 MB9      0.040400
     16 CL1D        5.8380   -0.4430   -0.4410 cl        1 MB9     -0.091400
     17 C1F         3.4810   -1.7100   -0.2570 ca        1 MB9     -0.146000
     18 C1G         2.1090   -1.7790   -0.1000 ca        1 MB9     -0.072000
     19 C1S         1.3800   -0.5970    0.0740 ca        1 MB9     -0.085800
     20 C1R        -0.0110   -0.2870    0.2570 cd        1 MB9     -0.117400
     21 C1U        -1.1970   -1.1650    0.3390 c3        1 MB9      0.071600
     22 C1E        -1.3340   -1.7200    1.6780 c1        1 MB9      0.215700
     23 N1B        -1.4230   -2.1730    2.7450 n1        1 MB9     -0.360800
     24 H1K        -3.8300   -1.1850    1.4670 hc        1 MB9      0.062450
     25 H1KA       -3.5480   -2.2610    0.0390 hc        1 MB9      0.062450
     26 H1I        -5.8480   -1.3930   -0.0200 h1        1 MB9      0.058700
     27 H1IA       -5.2780    0.3170    0.1860 h1        1 MB9      0.058700
     28 HN1M       -5.0520   -1.3880   -2.1690 hn        1 MB9      0.353800
     29 H1J        -3.7950    0.1730   -3.2950 h1        1 MB9      0.058700
     30 H1JA       -3.9360    1.2950   -1.8730 h1        1 MB9      0.058700
     31 H1L        -2.3070   -1.3470   -2.0300 hc        1 MB9      0.062450
     32 H1LA       -1.6520    0.3400   -1.9910 hc        1 MB9      0.062450
     33 HN1N       -3.4210    1.3830    0.5750 hn        1 MB9      0.328500
     34 H1A         2.3010    3.2530    1.0690 h1        1 MB9      0.069033
     35 H1AA        1.7720    3.4650   -0.6670 h1        1 MB9      0.069033
     36 H1AB        0.5550    3.6720    0.6890 h1        1 MB9      0.069033
     37 H1H         4.0010    1.7000   -0.0590 ha        1 MB9      0.153000
     38 H1F         4.0670   -2.6320   -0.3930 ha        1 MB9      0.150000
     39 H1G         1.5900   -2.7480   -0.1070 ha        1 MB9      0.141000
     40 H1U        -1.0760   -2.0330   -0.3760 hc        1 MB9      0.092700
@<TRIPOS>BOND
     1    1    2 1   
     2    1    6 1   
     3    1   24 1   
     4    1   25 1   
     5    2    3 1   
     6    2   26 1   
     7    2   27 1   
     8    3    4 1   
     9    3   28 1   
    10    4    5 1   
    11    4   29 1   
    12    4   30 1   
    13    5    6 1   
    14    5   31 1   
    15    5   32 1   
    16    6    7 1   
    17    6   21 1   
    18    7    8 1   
    19    7   33 1   
    20    8    9 2   
    21    8   10 1   
    22   10   11 1   
    23   10   20 2   
    24   11   12 1   
    25   11   13 1   
    26   12   34 1   
    27   12   35 1   
    28   12   36 1   
    29   13   14 ar  
    30   13   19 ar  
    31   14   15 ar  
    32   14   37 1   
    33   15   16 1   
    34   15   17 ar  
    35   17   18 ar  
    36   17   38 1   
    37   18   19 ar  
    38   18   39 1   
    39   19   20 1   
    40   20   21 1   
    41   21   22 1   
    42   21   40 1   
    43   22   23 3   
@<TRIPOS>SUBSTRUCTURE
     1 MB9         1 TEMP              0 ****  ****    0 ROOT
