@<TRIPOS>MOLECULE
MB9
   40    43     1     0     0
SMALL
bcc


@<TRIPOS>ATOM
      1 C1K         0.0380    0.0490   -0.0410 c3        1 MB9     -0.133400
      2 C1I         1.5550   -0.1310    0.0150 c3        1 MB9      0.148800
      3 N1M         2.1510   -0.0560    1.3330 n7        1 MB9     -0.799200
      4 C1J         1.6900    1.0860    2.0950 c3        1 MB9      0.148800
      5 C1L         0.1740    1.2710    2.1350 c3        1 MB9     -0.133400
      6 C1W        -0.4280    1.3200    0.7060 c3        1 MB9      0.134400
      7 N1N        -0.0170    2.5160   -0.0160 ns        1 MB9     -0.548900
      8 C1O        -0.5640    3.7660    0.2230 c         1 MB9      0.731700
      9 O1C        -0.0090    4.7950   -0.2110 o         1 MB9     -0.638500
     10 C1Q        -1.8480    3.7620    0.9550 cc        1 MB9     -0.100300
     11 N1V        -2.5640    4.8640    1.4270 na        1 MB9     -0.019400
     12 C1A        -2.2110    6.2430    1.3110 c3        1 MB9      0.008600
     13 C1T        -3.7160    4.3750    2.0560 ca        1 MB9     -0.033200
     14 C1H        -4.7610    5.0660    2.6960 ca        1 MB9     -0.133000
     15 C1P        -5.7880    4.3070    3.2370 ca        1 MB9      0.040400
     16 Cl1D       -7.0760    5.0960    4.0220 cl        1 MB9     -0.091400
     17 C1F        -5.8070    2.8960    3.1590 ca        1 MB9     -0.146000
     18 C1G        -4.7840    2.2100    2.5310 ca        1 MB9     -0.072000
     19 C1S        -3.7220    2.9270    1.9700 ca        1 MB9     -0.085800
     20 C1R        -2.5220    2.5690    1.2660 cd        1 MB9     -0.117400
     21 C1U        -1.9890    1.2490    0.8700 c3        1 MB9      0.071600
     22 C1E        -2.6240    0.7840   -0.3540 c1        1 MB9      0.215700
     23 N1B        -3.1530    0.4140   -1.3210 n1        1 MB9     -0.360800
     24 H1K        -0.2800    0.0860   -1.1150 hc        1 MB9      0.062450
     25 H1KA       -0.4680   -0.8300    0.4370 hc        1 MB9      0.062450
     26 H1I         1.8120   -1.1320   -0.4340 h1        1 MB9      0.058700
     27 H1IA        2.0490    0.6560   -0.6220 h1        1 MB9      0.058700
     28 HN1M        1.9650   -0.9030    1.8410 hn        1 MB9      0.353800
     29 H1J         2.0710    0.9850    3.1500 h1        1 MB9      0.058700
     30 H1JA        2.1670    2.0050    1.6500 h1        1 MB9      0.058700
     31 H1L        -0.2930    0.4160    2.6890 hc        1 MB9      0.062450
     32 H1LA       -0.0740    2.2120    2.6880 hc        1 MB9      0.062450
     33 HN1N        0.8820    2.4850   -0.4440 hn        1 MB9      0.328500
     34 H1A        -3.0920    6.8220    0.9220 h1        1 MB9      0.069033
     35 H1AA       -1.9260    6.6490    2.3190 h1        1 MB9      0.069033
     36 H1AB       -1.3450    6.3570    0.6030 h1        1 MB9      0.069033
     37 H1H        -4.7560    6.1630    2.7600 ha        1 MB9      0.153000
     38 H1F        -6.6490    2.3440    3.6030 ha        1 MB9      0.150000
     39 H1G        -4.8000    1.1120    2.4660 ha        1 MB9      0.141000
     40 H1U        -2.2150    0.4900    1.6770 hc        1 MB9      0.092700
@<TRIPOS>BOND
     1    1    2 1   
     2    1    6 1   
     3    1   24 1   
     4    1   25 1   
     5    2    3 1   
     6    2   26 1   
     7    2   27 1   
     8    3    4 1   
     9    3   28 1   
    10    4    5 1   
    11    4   29 1   
    12    4   30 1   
    13    5    6 1   
    14    5   31 1   
    15    5   32 1   
    16    6    7 1   
    17    6   21 1   
    18    7    8 1   
    19    7   33 1   
    20    8    9 2   
    21    8   10 1   
    22   10   11 1   
    23   10   20 2   
    24   11   12 1   
    25   11   13 1   
    26   12   34 1   
    27   12   35 1   
    28   12   36 1   
    29   13   14 ar  
    30   13   19 ar  
    31   14   15 ar  
    32   14   37 1   
    33   15   16 1   
    34   15   17 ar  
    35   17   18 ar  
    36   17   38 1   
    37   18   19 ar  
    38   18   39 1   
    39   19   20 1   
    40   20   21 1   
    41   21   22 1   
    42   21   40 1   
    43   22   23 3   
@<TRIPOS>SUBSTRUCTURE
     1 MB9         1 TEMP              0 ****  ****    0 ROOT
