@<TRIPOS>MOLECULE
MBA
   20    19     1     0     0
SMALL
bcc


@<TRIPOS>ATOM
      1 N          -0.0170    0.0710   -0.0350 n4        1 MBA     -0.837600
      2 C1          1.4710    0.0910    0.0840 c3        1 MBA      0.096800
      3 C2          1.9580   -0.1390    1.5200 c3        1 MBA     -0.089700
      4 C2'         1.4600   -1.4610    2.0620 c3        1 MBA     -0.123100
      5 C3          3.4840   -0.0860    1.5040 c3        1 MBA     -0.076400
      6 C4          4.0460    0.2020    2.8730 c3        1 MBA     -0.100100
      7 HN1        -0.4260    0.8030    0.5540 hn        1 MBA      0.461467
      8 HN2        -0.2960    0.2270   -1.0080 hn        1 MBA      0.461467
      9 H11         1.8790   -0.7170   -0.5910 hx        1 MBA      0.112200
     10 H12         1.8290    1.0940   -0.2870 hx        1 MBA      0.112200
     11 H2          1.5800    0.6960    2.1760 hc        1 MBA      0.075700
     12 H2'1        0.3690   -1.4250    2.2960 hc        1 MBA      0.057367
     13 H2'2        1.9980   -1.7030    3.0140 hc        1 MBA      0.057367
     14 H2'3        1.6540   -2.2920    1.3410 hc        1 MBA      0.057367
     15 H31         3.8250    0.7150    0.7950 hc        1 MBA      0.057200
     16 H32         3.8840   -1.0630    1.1260 hc        1 MBA      0.057200
     17 H41         3.6830    1.1860    3.2560 hc        1 MBA      0.053033
     18 H42         5.1630    0.2360    2.8200 hc        1 MBA      0.053033
     19 H43         3.7570   -0.5910    3.6040 hc        1 MBA      0.053033
     20 HN3        -0.3770   -0.8380    0.2790 hn        1 MBA      0.461467
@<TRIPOS>BOND
     1    1    2 1   
     2    1    7 1   
     3    1    8 1   
     4    1   20 1   
     5    2    3 1   
     6    2    9 1   
     7    2   10 1   
     8    3    4 1   
     9    3    5 1   
    10    3   11 1   
    11    4   12 1   
    12    4   13 1   
    13    4   14 1   
    14    5    6 1   
    15    5   15 1   
    16    5   16 1   
    17    6   17 1   
    18    6   18 1   
    19    6   19 1   
@<TRIPOS>SUBSTRUCTURE
     1 MBA         1 TEMP              0 ****  ****    0 ROOT
