@<TRIPOS>MOLECULE
MBA
   20    19     1     0     0
SMALL
bcc


@<TRIPOS>ATOM
      1 N          -0.0460    0.1080    0.0180 nz        1 MBA     -0.837600
      2 C1          1.4440    0.1340    0.1090 c3        1 MBA      0.096800
      3 C2          1.9600   -0.1450    1.5250 c3        1 MBA     -0.089700
      4 C2'         1.4820   -1.4900    2.0280 c3        1 MBA     -0.123100
      5 C3          3.4850   -0.0810    1.4820 c3        1 MBA     -0.076400
      6 C4          4.0730    0.1600    2.8490 c3        1 MBA     -0.100100
      7 HN1        -0.4480    0.8160    0.6420 hn        1 MBA      0.461467
      8 HN2        -0.3460    0.2980   -0.9430 hn        1 MBA      0.461467
      9 H11         1.8430   -0.6460   -0.6030 hx        1 MBA      0.112200
     10 H12         1.7880    1.1530   -0.2320 hx        1 MBA      0.112200
     11 H2          1.5900    0.6630    2.2190 hc        1 MBA      0.075700
     12 H2'1        0.3950   -1.4700    2.2840 hc        1 MBA      0.057367
     13 H2'2        2.0390   -1.7630    2.9610 hc        1 MBA      0.057367
     14 H2'3        1.6660   -2.2920    1.2740 hc        1 MBA      0.057367
     15 H31         3.8080    0.7480    0.7960 hc        1 MBA      0.057200
     16 H32         3.8840   -1.0410    1.0600 hc        1 MBA      0.057200
     17 H41         3.7110    1.1260    3.2760 hc        1 MBA      0.053033
     18 H42         5.1880    0.2040    2.7760 hc        1 MBA      0.053033
     19 H43         3.8030   -0.6620    3.5550 hc        1 MBA      0.053033
     20 HN3        -0.3940   -0.8140    0.3050 hn        1 MBA      0.461467
@<TRIPOS>BOND
     1    1    2 1   
     2    1    7 1   
     3    1    8 1   
     4    1   20 1   
     5    2    3 1   
     6    2    9 1   
     7    2   10 1   
     8    3    4 1   
     9    3    5 1   
    10    3   11 1   
    11    4   12 1   
    12    4   13 1   
    13    4   14 1   
    14    5    6 1   
    15    5   15 1   
    16    5   16 1   
    17    6   17 1   
    18    6   18 1   
    19    6   19 1   
@<TRIPOS>SUBSTRUCTURE
     1 MBA         1 TEMP              0 ****  ****    0 ROOT
