@<TRIPOS>MOLECULE
MBA
   20    19     1     0     0
SMALL
bcc


@<TRIPOS>ATOM
      1 N          -0.0110    0.0990   -0.0370 n4        1 MBA     -0.837600
      2 C1          1.4750    0.1290    0.0930 c3        1 MBA      0.096800
      3 C2          1.9560   -0.1450    1.5230 c3        1 MBA     -0.089700
      4 C2'         1.4690   -1.4900    2.0160 c3        1 MBA     -0.123100
      5 C3          3.4810   -0.0760    1.5190 c3        1 MBA     -0.076400
      6 C4          4.0330    0.1690    2.9000 c3        1 MBA     -0.100100
      7 HN1        -0.4320    0.8060    0.5750 hn        1 MBA      0.461467
      8 HN2        -0.2870    0.2850   -1.0060 hn        1 MBA      0.461467
      9 H11         1.8960   -0.6510   -0.6060 hx        1 MBA      0.112200
     10 H12         1.8260    1.1480   -0.2420 hx        1 MBA      0.112200
     11 H2          1.5650    0.6630    2.2040 hc        1 MBA      0.075700
     12 H2'1        1.6750   -2.2940    1.2680 hc        1 MBA      0.057367
     13 H2'2        2.0020   -1.7590    2.9630 hc        1 MBA      0.057367
     14 H2'3        0.3750   -1.4730    2.2440 hc        1 MBA      0.057367
     15 H31         3.8940   -1.0360    1.1090 hc        1 MBA      0.057200
     16 H32         3.8190    0.7530    0.8400 hc        1 MBA      0.057200
     17 H41         3.6560    1.1350    3.3150 hc        1 MBA      0.053033
     18 H42         3.7470   -0.6520    3.6010 hc        1 MBA      0.053033
     19 H43         5.1490    0.2170    2.8550 hc        1 MBA      0.053033
     20 HN3        -0.3640   -0.8240    0.2440 hn        1 MBA      0.461467
@<TRIPOS>BOND
     1    1    2 1   
     2    1    7 1   
     3    1    8 1   
     4    1   20 1   
     5    2    3 1   
     6    2    9 1   
     7    2   10 1   
     8    3    4 1   
     9    3    5 1   
    10    3   11 1   
    11    4   12 1   
    12    4   13 1   
    13    4   14 1   
    14    5    6 1   
    15    5   15 1   
    16    5   16 1   
    17    6   17 1   
    18    6   18 1   
    19    6   19 1   
@<TRIPOS>SUBSTRUCTURE
     1 MBA         1 TEMP              0 ****  ****    0 ROOT
