@<TRIPOS>MOLECULE
MBA
   19    18     1     0     0
SMALL
bcc


@<TRIPOS>ATOM
      1 N           0.1800    0.3570   -2.4410 n3        1 MBA     -0.915800
      2 C1          0.6910   -0.2050   -1.2150 c3        1 MBA      0.161800
      3 C2         -0.1190    0.1770    0.0340 c3        1 MBA     -0.069700
      4 C2'        -1.5170   -0.4010   -0.0290 c3        1 MBA     -0.093100
      5 C3          0.6230   -0.3190    1.2680 c3        1 MBA     -0.077400
      6 C4          0.1770    0.3810    2.5260 c3        1 MBA     -0.092100
      7 HN1        -0.7950    0.1620   -2.5510 hn        1 MBA      0.347800
      8 HN2         0.6790   -0.0130   -3.2250 hn        1 MBA      0.347800
      9 H11         1.7430    0.1830   -1.0910 h1        1 MBA      0.023200
     10 H12         0.7560   -1.3340   -1.2480 h1        1 MBA      0.023200
     11 H2         -0.1940    1.3000    0.0860 hc        1 MBA      0.064700
     12 H2'1       -1.4820   -1.4940   -0.2580 hc        1 MBA      0.033700
     13 H2'2       -2.0380   -0.2650    0.9500 hc        1 MBA      0.033700
     14 H2'3       -2.1240    0.1090   -0.8140 hc        1 MBA      0.033700
     15 H31         1.7250   -0.1500    1.1320 hc        1 MBA      0.039200
     16 H32         0.4680   -1.4250    1.3750 hc        1 MBA      0.039200
     17 H41         0.7600    0.0050    3.4020 hc        1 MBA      0.033367
     18 H42         0.3380    1.4840    2.4430 hc        1 MBA      0.033367
     19 H43        -0.9070    0.2000    2.7240 hc        1 MBA      0.033367
@<TRIPOS>BOND
     1    1    2 1   
     2    1    7 1   
     3    1    8 1   
     4    2    3 1   
     5    2    9 1   
     6    2   10 1   
     7    3    4 1   
     8    3    5 1   
     9    3   11 1   
    10    4   12 1   
    11    4   13 1   
    12    4   14 1   
    13    5    6 1   
    14    5   15 1   
    15    5   16 1   
    16    6   17 1   
    17    6   18 1   
    18    6   19 1   
@<TRIPOS>SUBSTRUCTURE
     1 MBA         1 TEMP              0 ****  ****    0 ROOT
