@<TRIPOS>MOLECULE
MBB
   66    71     1     0     0
SMALL
bcc


@<TRIPOS>ATOM
      1 C          -0.0410    0.0600   -0.0720 ca        1 MBB      0.188600
      2 C1          1.2260    0.0280    2.4600 ca        1 MBB     -0.178900
      3 C2          1.3720    0.0050    0.0370 ca        1 MBB     -0.203000
      4 C3          1.9810   -0.0070    1.2820 ca        1 MBB     -0.072000
      5 C4         -0.7920    0.0810    1.1270 ca        1 MBB     -0.205000
      6 C5         -0.1760    0.0670    2.3800 ca        1 MBB      0.014700
      7 N          -0.6670    0.1610   -1.3250 nh        1 MBB     -0.659000
      8 C6          1.9210    0.0060    3.7490 cc        1 MBB      0.488400
      9 C7          2.6080   -0.4550    5.7860 ca        1 MBB      0.058400
     10 C8          3.4620    0.6100    5.2850 ca        1 MBB     -0.061200
     11 C9          4.4940    1.1420    6.0670 ca        1 MBB     -0.140000
     12 C10         4.6700    0.6210    7.3390 ca        1 MBB     -0.103000
     13 C11         3.8430   -0.4090    7.8400 ca        1 MBB     -0.146900
     14 C12         2.8170   -0.9620    7.0750 ca        1 MBB     -0.019000
     15 N1          1.6630   -0.8020    4.8000 nd        1 MBB     -0.555100
     16 N2          3.0110    0.8850    3.9960 na        1 MBB     -0.283300
     17 C13         4.0710   -0.9230    9.1950 cc        1 MBB      0.479400
     18 C14         4.2460   -2.2220   10.9610 ca        1 MBB      0.086400
     19 C15         4.5710   -0.8740   11.3930 ca        1 MBB     -0.091200
     20 C16         4.9120   -0.6120   12.7210 ca        1 MBB     -0.117000
     21 C17         4.9380   -1.6750   13.6090 ca        1 MBB     -0.154000
     22 C18         4.6180   -3.0050   13.2160 ca        1 MBB      0.106600
     23 N3          3.9410   -2.2120    9.5850 nd        1 MBB     -0.565100
     24 N4          4.4660   -0.0700   10.2560 na        1 MBB     -0.283300
     25 C19         4.2690   -3.2750   11.8800 ca        1 MBB     -0.095000
     26 N5          4.5670   -4.0750   14.1540 nh        1 MBB     -0.633000
     27 N6          5.2120   -6.0420   16.1950 n3        1 MBB     -0.733600
     28 C20         4.5950   -3.7050   15.5580 c3        1 MBB      0.183300
     29 C21         4.3360   -4.9150   16.4800 c3        1 MBB      0.165800
     30 C22         5.2160   -6.3950   14.7820 c3        1 MBB      0.165800
     31 C23         5.4630   -5.1860   13.8580 c3        1 MBB      0.183300
     32 C24         4.9440   -7.1780   17.0470 c3        1 MBB      0.157100
     33 CN1        -2.0840   -0.0900   -1.3890 c3        1 MBB      0.187100
     34 CN2         0.1030   -0.2000   -2.4870 c3        1 MBB      0.187100
     35 C25        -1.0210    0.0880    3.5980 c3        1 MBB     -0.062800
     36 H2          2.0070   -0.0300   -0.8600 ha        1 MBB      0.137000
     37 H3          3.0800   -0.0620    1.3370 ha        1 MBB      0.131000
     38 H4         -1.8930    0.1090    1.0960 ha        1 MBB      0.139000
     39 H9          5.1450    1.9400    5.6860 ha        1 MBB      0.138000
     40 H10         5.4890    1.0120    7.9620 ha        1 MBB      0.132000
     41 H12         2.1870   -1.7770    7.4650 ha        1 MBB      0.171000
     42 HN2         3.3640    1.5610    3.3760 hn        1 MBB      0.307700
     43 H16         5.1590    0.4050   13.0560 ha        1 MBB      0.133000
     44 H17         5.2170   -1.4630   14.6530 ha        1 MBB      0.133000
     45 HN4         4.5490    0.9090   10.2170 hn        1 MBB      0.303700
     46 H19         4.0050   -4.2900   11.5470 ha        1 MBB      0.154000
     47 H201        3.7790   -2.9510   15.7400 h1        1 MBB      0.042950
     48 H202        5.5810   -3.2400   15.8520 h1        1 MBB      0.042950
     49 H211        3.2460   -5.2010   16.4030 h1        1 MBB      0.038200
     50 H212        4.5340   -4.5850   17.5380 h1        1 MBB      0.038200
     51 H221        4.2520   -6.8950   14.4750 h1        1 MBB      0.038200
     52 H222        6.0550   -7.1280   14.6160 h1        1 MBB      0.038200
     53 H231        6.5440   -4.8750   13.9490 h1        1 MBB      0.042950
     54 H232        5.2840   -5.5210   12.7990 h1        1 MBB      0.042950
     55 H241        5.7050   -7.9740   16.8360 h1        1 MBB      0.032033
     56 H242        3.9180   -7.6160   16.8980 h1        1 MBB      0.032033
     57 H243        5.0420   -6.8570   18.1170 h1        1 MBB      0.032033
     58 HN11       -2.4300   -0.0550   -2.4550 h1        1 MBB      0.040033
     59 HN12       -2.3620   -1.0880   -0.9530 h1        1 MBB      0.040033
     60 HN13       -2.6230    0.7150   -0.8200 h1        1 MBB      0.040033
     61 HN21        0.5540   -1.2260   -2.4000 h1        1 MBB      0.040033
     62 HN22        0.9310    0.5470   -2.6220 h1        1 MBB      0.040033
     63 HN23       -0.5460   -0.1700   -3.4010 h1        1 MBB      0.040033
     64 H251       -2.0720    0.3820    3.3570 hc        1 MBB      0.055367
     65 H252       -0.6150    0.8100    4.3490 hc        1 MBB      0.055367
     66 H253       -1.0370   -0.9290    4.0660 hc        1 MBB      0.055367
@<TRIPOS>BOND
     1    1    3 ar  
     2    1    5 ar  
     3    1    7 1   
     4    2    4 ar  
     5    2    6 ar  
     6    2    8 1   
     7    3    4 ar  
     8    3   36 1   
     9    4   37 1   
    10    5    6 ar  
    11    5   38 1   
    12    6   35 1   
    13    7   33 1   
    14    7   34 1   
    15    8   15 2   
    16    8   16 1   
    17    9   10 ar  
    18    9   14 ar  
    19    9   15 1   
    20   10   11 ar  
    21   10   16 1   
    22   11   12 ar  
    23   11   39 1   
    24   12   13 ar  
    25   12   40 1   
    26   13   14 ar  
    27   13   17 1   
    28   14   41 1   
    29   16   42 1   
    30   17   23 2   
    31   17   24 1   
    32   18   19 ar  
    33   18   23 1   
    34   18   25 ar  
    35   19   20 ar  
    36   19   24 1   
    37   20   21 ar  
    38   20   43 1   
    39   21   22 ar  
    40   21   44 1   
    41   22   25 ar  
    42   22   26 1   
    43   24   45 1   
    44   25   46 1   
    45   26   28 1   
    46   26   31 1   
    47   27   29 1   
    48   27   30 1   
    49   27   32 1   
    50   28   29 1   
    51   28   47 1   
    52   28   48 1   
    53   29   49 1   
    54   29   50 1   
    55   30   31 1   
    56   30   51 1   
    57   30   52 1   
    58   31   53 1   
    59   31   54 1   
    60   32   55 1   
    61   32   56 1   
    62   32   57 1   
    63   33   58 1   
    64   33   59 1   
    65   33   60 1   
    66   34   61 1   
    67   34   62 1   
    68   34   63 1   
    69   35   64 1   
    70   35   65 1   
    71   35   66 1   
@<TRIPOS>SUBSTRUCTURE
     1 MBB         1 TEMP              0 ****  ****    0 ROOT
