@<TRIPOS>MOLECULE
MBB
   66    71     1     0     0
SMALL
bcc


@<TRIPOS>ATOM
      1 C           1.0910    0.2310   -8.3830 ca        1 MBB      0.165600
      2 C1          0.1680    0.1580   -5.7110 ca        1 MBB     -0.162900
      3 C2          0.2820    1.2720   -7.8650 ca        1 MBB     -0.173000
      4 C3         -0.1660    1.2270   -6.5540 ca        1 MBB     -0.086000
      5 C4          1.4160   -0.8410   -7.5250 ca        1 MBB     -0.197000
      6 C5          0.9720   -0.8830   -6.2000 ca        1 MBB      0.006700
      7 N           1.6100    0.3330   -9.6950 nh        1 MBB     -0.647000
      8 C6         -0.3260    0.1650   -4.3310 cc        1 MBB      0.484400
      9 C7         -0.5180    0.0770   -2.1430 ca        1 MBB      0.057400
     10 C8         -1.8350    0.4000   -2.6680 ca        1 MBB     -0.061200
     11 C9         -2.9290    0.5950   -1.8160 ca        1 MBB     -0.140000
     12 C10        -2.7130    0.4650   -0.4540 ca        1 MBB     -0.102000
     13 C11        -1.4400    0.1450    0.0690 ca        1 MBB     -0.146900
     14 C12        -0.3340   -0.0430   -0.7590 ca        1 MBB     -0.018000
     15 N1          0.3920   -0.0600   -3.2090 nd        1 MBB     -0.552100
     16 N2         -1.6900    0.4500   -4.0530 na        1 MBB     -0.282300
     17 C13        -1.2670    0.0170    1.5200 cc        1 MBB      0.478400
     18 C14        -0.4590    0.0700    3.5650 ca        1 MBB      0.086400
     19 C15        -1.7770   -0.5340    3.6460 ca        1 MBB     -0.091200
     20 C16        -2.2980   -0.9530    4.8720 ca        1 MBB     -0.117000
     21 C17        -1.5220   -0.7690    6.0050 ca        1 MBB     -0.154000
     22 C18        -0.2250   -0.1860    5.9550 ca        1 MBB      0.107600
     23 N3         -0.1770    0.4000    2.2240 nd        1 MBB     -0.564100
     24 N4         -2.2750   -0.5460    2.3410 na        1 MBB     -0.283300
     25 C19         0.3070    0.2340    4.7220 ca        1 MBB     -0.095000
     26 N5          0.5960   -0.0770    7.1140 nh        1 MBB     -0.633000
     27 N6          1.6520    0.5540    9.7470 n3        1 MBB     -0.733600
     28 C20         0.1620   -0.8200    8.2840 c3        1 MBB      0.183300
     29 C21         1.2180   -0.7930    9.4090 c3        1 MBB      0.165800
     30 C22         2.0550    1.3160    8.5730 c3        1 MBB      0.165800
     31 C23         1.0070    1.2810    7.4430 c3        1 MBB      0.183300
     32 C24         2.6590    0.5660   10.7840 c3        1 MBB      0.157100
     33 CN1         2.6390   -0.6060  -10.0680 c3        1 MBB      0.176100
     34 CN2         0.6590    0.6020  -10.7480 c3        1 MBB      0.176100
     35 C25         1.3600   -2.0310   -5.3470 c3        1 MBB     -0.062800
     36 H2          0.0210    2.1400   -8.4890 ha        1 MBB      0.140000
     37 H3         -0.7750    2.0600   -6.1690 ha        1 MBB      0.133000
     38 H4          2.0370   -1.6760   -7.8870 ha        1 MBB      0.139000
     39 H9         -3.9210    0.8490   -2.2120 ha        1 MBB      0.138000
     40 H10        -3.5550    0.6350    0.2330 ha        1 MBB      0.133000
     41 H12         0.6600   -0.2750   -0.3450 ha        1 MBB      0.172000
     42 HN2        -2.3910    0.6460   -4.7150 hn        1 MBB      0.307700
     43 H16        -3.2940   -1.4110    4.9420 ha        1 MBB      0.133000
     44 H17        -1.9430   -1.0920    6.9700 ha        1 MBB      0.133000
     45 HN4        -3.1150   -0.9560    2.0350 hn        1 MBB      0.303700
     46 H19         1.3110    0.6780    4.6490 ha        1 MBB      0.154000
     47 H201        0.0050   -1.8930    7.9840 h1        1 MBB      0.042950
     48 H202       -0.8090   -0.4210    8.7000 h1        1 MBB      0.042950
     49 H211        2.0860   -1.4500    9.1070 h1        1 MBB      0.038200
     50 H212        0.7480   -1.2430   10.3280 h1        1 MBB      0.038200
     51 H221        2.1810    2.3890    8.8890 h1        1 MBB      0.038200
     52 H222        3.0430    0.9570    8.1620 h1        1 MBB      0.038200
     53 H231        1.4710    1.7480    6.5300 h1        1 MBB      0.042950
     54 H232        0.1240    1.9140    7.7480 h1        1 MBB      0.042950
     55 H241        2.8840    1.6300   11.0560 h1        1 MBB      0.032033
     56 H242        2.2520    0.0400   11.6870 h1        1 MBB      0.032033
     57 H243        3.6190    0.0640   10.4810 h1        1 MBB      0.032033
     58 HN11        3.0830   -0.2740  -11.0440 h1        1 MBB      0.038700
     59 HN12        3.4450   -0.6030   -9.2870 h1        1 MBB      0.038700
     60 HN13        2.2530   -1.6550  -10.1910 h1        1 MBB      0.038700
     61 HN21       -0.1010    1.3520  -10.4090 h1        1 MBB      0.038700
     62 HN22        1.2170    1.0270  -11.6250 h1        1 MBB      0.038700
     63 HN23        0.1200   -0.3260  -11.0840 h1        1 MBB      0.038700
     64 H251        2.1520   -1.7140   -4.6210 hc        1 MBB      0.055700
     65 H252        0.4830   -2.4070   -4.7630 hc        1 MBB      0.055700
     66 H253        1.7620   -2.8740   -5.9620 hc        1 MBB      0.055700
@<TRIPOS>BOND
     1    1    3 ar  
     2    1    5 ar  
     3    1    7 1   
     4    2    4 ar  
     5    2    6 ar  
     6    2    8 1   
     7    3    4 ar  
     8    3   36 1   
     9    4   37 1   
    10    5    6 ar  
    11    5   38 1   
    12    6   35 1   
    13    7   33 1   
    14    7   34 1   
    15    8   15 2   
    16    8   16 1   
    17    9   10 ar  
    18    9   14 ar  
    19    9   15 1   
    20   10   11 ar  
    21   10   16 1   
    22   11   12 ar  
    23   11   39 1   
    24   12   13 ar  
    25   12   40 1   
    26   13   14 ar  
    27   13   17 1   
    28   14   41 1   
    29   16   42 1   
    30   17   23 2   
    31   17   24 1   
    32   18   19 ar  
    33   18   23 1   
    34   18   25 ar  
    35   19   20 ar  
    36   19   24 1   
    37   20   21 ar  
    38   20   43 1   
    39   21   22 ar  
    40   21   44 1   
    41   22   25 ar  
    42   22   26 1   
    43   24   45 1   
    44   25   46 1   
    45   26   28 1   
    46   26   31 1   
    47   27   29 1   
    48   27   30 1   
    49   27   32 1   
    50   28   29 1   
    51   28   47 1   
    52   28   48 1   
    53   29   49 1   
    54   29   50 1   
    55   30   31 1   
    56   30   51 1   
    57   30   52 1   
    58   31   53 1   
    59   31   54 1   
    60   32   55 1   
    61   32   56 1   
    62   32   57 1   
    63   33   58 1   
    64   33   59 1   
    65   33   60 1   
    66   34   61 1   
    67   34   62 1   
    68   34   63 1   
    69   35   64 1   
    70   35   65 1   
    71   35   66 1   
@<TRIPOS>SUBSTRUCTURE
     1 MBB         1 TEMP              0 ****  ****    0 ROOT
