@<TRIPOS>MOLECULE
MBB
   66    54     1     0     0
SMALL
bcc


@<TRIPOS>ATOM
      1 C          -3.0600    1.9150   -7.7190 c1        1 MBB      0.084000
      2 C1         -1.6330    1.9660   -5.3320 c1        1 MBB     -0.080000
      3 C2         -1.8020    1.2650   -7.6150 c1        1 MBB     -0.122250
      4 C3         -1.1060    1.2980   -6.4250 c1        1 MBB     -0.122250
      5 C4         -3.5900    2.5870   -6.6190 c1        1 MBB     -0.175000
      6 C5         -2.8980    2.6190   -5.4380 c1        1 MBB      0.009000
      7 N          -3.7960    1.8690   -8.9550 n3        1 MBB     -0.248000
      8 C6         -0.9370    1.9390   -4.0690 c1        1 MBB      0.070000
      9 C7         -0.3930    1.3020   -2.0650 c1        1 MBB     -0.047000
     10 C8          0.4460    2.3160   -2.4400 c1        1 MBB     -0.047000
     11 C9          1.4380    2.7990   -1.5330 c1        1 MBB     -0.122250
     12 C10         1.5560    2.2440   -0.2760 c1        1 MBB     -0.122250
     13 C11         0.7000    1.2040    0.1170 c1        1 MBB     -0.052333
     14 C12        -0.2710    0.7280   -0.7640 c1        1 MBB     -0.078000
     15 N1         -1.2380    1.0780   -3.0720 n1        1 MBB     -0.185500
     16 N2          0.1100    2.7010   -3.6630 n1        1 MBB     -0.185500
     17 C13         0.8860    0.6770    1.3980 c1        1 MBB      0.070000
     18 C14         1.5130   -0.6390    3.0450 c1        1 MBB     -0.052333
     19 C15         0.6430    0.2770    3.5530 c1        1 MBB     -0.052333
     20 C16         0.3100    0.2510    4.9320 c1        1 MBB     -0.078000
     21 C17         0.8780   -0.7230    5.7750 c1        1 MBB     -0.135000
     22 C18         1.7590   -1.6510    5.2580 c1        1 MBB     -0.024000
     23 N3          1.6600   -0.3870    1.7130 n1        1 MBB     -0.185500
     24 N4          0.2540    1.0920    2.5360 n1        1 MBB     -0.185500
     25 C19         2.0880   -1.6230    3.8950 c1        1 MBB     -0.078000
     26 N5          2.4430   -2.7510    5.9460 n3        1 MBB     -0.219000
     27 N6          3.0650   -4.1130    8.3650 n3        1 MBB     -0.259000
     28 C20         1.4730   -3.5850    6.5850 c3        1 MBB     -0.066000
     29 C21         2.1070   -4.6520    7.4450 c3        1 MBB     -0.070000
     30 C22         4.0370   -3.2770    7.7220 c3        1 MBB     -0.070000
     31 C23         3.4030   -2.2120    6.8670 c3        1 MBB     -0.066000
     32 C24         3.7420   -5.2020    9.0480 c3        1 MBB     -0.119000
     33 CN1        -3.2690    2.5000  -10.1240 c3        1 MBB     -0.100500
     34 CN2        -5.0380    1.1490   -9.0240 c3        1 MBB     -0.100500
     35 C25        -3.4740    3.3950   -4.2330 c3        1 MBB     -0.187000
     36 H2         -1.4030    0.7610   -8.4370 ha        1 MBB      0.142250
     37 H3         -0.2750    0.8680   -6.3550 ha        1 MBB      0.142250
     38 H4         -4.4760    3.0450   -6.6910 ha        1 MBB      0.142000
     39 H9          2.0620    3.5530   -1.8150 ha        1 MBB      0.142250
     40 H10         2.2320    2.5750    0.3380 ha        1 MBB      0.142250
     41 H12        -0.8810   -0.0110   -0.4840 ha        1 MBB      0.148000
     42 HN2         0.5990    3.3030   -4.2050 DU        1 MBB      0.259000
     43 H16        -0.3310    0.9280    5.3050 ha        1 MBB      0.148000
     44 H17         0.6530   -0.7420    6.7210 ha        1 MBB      0.136000
     45 HN4        -0.2710    1.8440    2.6170 DU        1 MBB      0.259000
     46 H19         2.7000   -2.2670    3.5370 ha        1 MBB      0.148000
     47 H201        0.9110   -3.0440    7.1280 h1        1 MBB      0.080500
     48 H202        0.9210   -4.0250    5.8890 h1        1 MBB      0.080500
     49 H211        1.3810   -5.1210    7.9690 h1        1 MBB      0.076000
     50 H212        2.5650   -5.3220    6.8510 h1        1 MBB      0.076000
     51 H221        4.6030   -2.8340    8.4260 h1        1 MBB      0.076000
     52 H222        4.5950   -3.8210    7.1760 h1        1 MBB      0.076000
     53 H231        2.9360   -1.5310    7.4730 h1        1 MBB      0.080500
     54 H232        4.0840   -1.7700    6.3760 h1        1 MBB      0.080500
     55 H241        4.1500   -5.7910    8.3950 h1        1 MBB      0.070667
     56 H242        4.4080   -4.8480    9.6150 h1        1 MBB      0.070667
     57 H243        3.0890   -5.7130    9.5850 h1        1 MBB      0.070667
     58 HN11       -3.0840    3.4770   -9.9260 h1        1 MBB      0.078667
     59 HN12       -3.9390    2.4300  -10.8760 h1        1 MBB      0.078667
     60 HN13       -2.4580    2.0690  -10.3810 h1        1 MBB      0.078667
     61 HN21       -5.7490    1.6550   -8.5200 h1        1 MBB      0.078667
     62 HN22       -5.3130    1.0510   -9.9750 h1        1 MBB      0.078667
     63 HN23       -4.9180    0.2270   -8.6080 h1        1 MBB      0.078667
     64 H251       -2.7640    3.8850   -3.7940 hc        1 MBB      0.094333
     65 H252       -3.8660    2.7820   -3.6160 hc        1 MBB      0.094333
     66 H253       -4.1680    4.0320   -4.5520 hc        1 MBB      0.094333
@<TRIPOS>BOND
     1    1    5 1   
     2    1    7 1   
     3    2    6 1   
     4    3    4 1   
     5    3   36 1   
     6    4   37 1   
     7    5   38 1   
     8    6   35 1   
     9    7   33 1   
    10    7   34 1   
    11    8   15 1   
    12    8   16 1   
    13    9   10 1   
    14   11   12 1   
    15   11   39 1   
    16   12   40 1   
    17   13   14 1   
    18   14   41 1   
    19   17   23 1   
    20   17   24 1   
    21   18   25 1   
    22   19   20 1   
    23   20   43 1   
    24   21   22 1   
    25   21   44 1   
    26   22   26 1   
    27   25   46 1   
    28   26   28 1   
    29   26   31 1   
    30   27   29 1   
    31   27   30 1   
    32   27   32 1   
    33   28   29 1   
    34   28   47 1   
    35   28   48 1   
    36   29   49 1   
    37   29   50 1   
    38   30   31 1   
    39   30   51 1   
    40   30   52 1   
    41   31   53 1   
    42   31   54 1   
    43   32   55 1   
    44   32   56 1   
    45   32   57 1   
    46   33   58 1   
    47   33   59 1   
    48   33   60 1   
    49   34   61 1   
    50   34   62 1   
    51   34   63 1   
    52   35   64 1   
    53   35   65 1   
    54   35   66 1   
@<TRIPOS>SUBSTRUCTURE
     1 MBB         1 TEMP              0 ****  ****    0 ROOT
