@<TRIPOS>MOLECULE
MBB
   66    71     1     0     0
SMALL
bcc


@<TRIPOS>ATOM
      1 C          -0.0410    0.0610   -0.0720 ca        1 MBB      0.188600
      2 C1          1.2260    0.0280    2.4600 ca        1 MBB     -0.178900
      3 C2          1.3730    0.0070    0.0370 ca        1 MBB     -0.203000
      4 C3          1.9820   -0.0050    1.2820 ca        1 MBB     -0.072000
      5 C4         -0.7920    0.0800    1.1260 ca        1 MBB     -0.205000
      6 C5         -0.1760    0.0670    2.3790 ca        1 MBB      0.014700
      7 N          -0.6660    0.1630   -1.3250 nh        1 MBB     -0.659000
      8 C6          1.9210    0.0070    3.7500 cc        1 MBB      0.488400
      9 C7          2.6070   -0.4550    5.7870 ca        1 MBB      0.058400
     10 C8          3.4600    0.6110    5.2860 ca        1 MBB     -0.061200
     11 C9          4.4920    1.1430    6.0690 ca        1 MBB     -0.140000
     12 C10         4.6670    0.6220    7.3400 ca        1 MBB     -0.103000
     13 C11         3.8410   -0.4090    7.8410 ca        1 MBB     -0.146900
     14 C12         2.8160   -0.9620    7.0750 ca        1 MBB     -0.019000
     15 N1          1.6630   -0.8020    4.8000 nd        1 MBB     -0.555100
     16 N2          3.0100    0.8860    3.9970 na        1 MBB     -0.283300
     17 C13         4.0690   -0.9230    9.1950 cc        1 MBB      0.479400
     18 C14         4.2450   -2.2220   10.9620 ca        1 MBB      0.086400
     19 C15         4.5670   -0.8750   11.3940 ca        1 MBB     -0.091200
     20 C16         4.9080   -0.6120   12.7230 ca        1 MBB     -0.117000
     21 C17         4.9350   -1.6750   13.6100 ca        1 MBB     -0.154000
     22 C18         4.6170   -3.0060   13.2160 ca        1 MBB      0.106600
     23 N3          3.9410   -2.2120    9.5850 nd        1 MBB     -0.564100
     24 N4          4.4620   -0.0700   10.2570 na        1 MBB     -0.283300
     25 C19         4.2690   -3.2760   11.8800 ca        1 MBB     -0.095000
     26 N5          4.5680   -4.0760   14.1540 nh        1 MBB     -0.633000
     27 N6          5.2140   -6.0430   16.1940 n3        1 MBB     -0.733600
     28 C20         4.5940   -3.7060   15.5580 c3        1 MBB      0.183300
     29 C21         4.3370   -4.9170   16.4790 c3        1 MBB      0.165800
     30 C22         5.2200   -6.3960   14.7820 c3        1 MBB      0.165800
     31 C23         5.4640   -5.1860   13.8580 c3        1 MBB      0.183300
     32 C24         4.9480   -7.1790   17.0460 c3        1 MBB      0.157100
     33 CN1        -2.0820   -0.0900   -1.3900 c3        1 MBB      0.187100
     34 CN2         0.1050   -0.1970   -2.4880 c3        1 MBB      0.187100
     35 C25        -1.0210    0.0860    3.5970 c3        1 MBB     -0.062800
     36 H2          2.0080   -0.0280   -0.8600 ha        1 MBB      0.137000
     37 H3          3.0800   -0.0600    1.3370 ha        1 MBB      0.131000
     38 H4         -1.8920    0.1080    1.0950 ha        1 MBB      0.139000
     39 H9          5.1430    1.9410    5.6880 ha        1 MBB      0.138000
     40 H10         5.4860    1.0130    7.9630 ha        1 MBB      0.132000
     41 H12         2.1860   -1.7770    7.4650 ha        1 MBB      0.171000
     42 HN2         3.3630    1.5630    3.3770 hn        1 MBB      0.307700
     43 H16         5.1530    0.4050   13.0580 ha        1 MBB      0.133000
     44 H17         5.2130   -1.4630   14.6540 ha        1 MBB      0.133000
     45 HN4         4.5440    0.9090   10.2180 hn        1 MBB      0.303700
     46 H19         4.0070   -4.2910   11.5460 ha        1 MBB      0.154000
     47 H201        3.7770   -2.9540   15.7400 h1        1 MBB      0.042950
     48 H202        5.5790   -3.2400   15.8520 h1        1 MBB      0.042950
     49 H211        4.5340   -4.5870   17.5380 h1        1 MBB      0.038200
     50 H212        3.2480   -5.2050   16.4030 h1        1 MBB      0.038200
     51 H221        6.0590   -7.1270   14.6150 h1        1 MBB      0.038200
     52 H222        4.2560   -6.8970   14.4740 h1        1 MBB      0.038200
     53 H231        6.5450   -4.8740   13.9490 h1        1 MBB      0.042950
     54 H232        5.2860   -5.5200   12.7990 h1        1 MBB      0.042950
     55 H241        5.7100   -7.9740   16.8350 h1        1 MBB      0.032033
     56 H242        3.9230   -7.6190   16.8980 h1        1 MBB      0.032033
     57 H243        5.0460   -6.8590   18.1160 h1        1 MBB      0.032033
     58 HN11       -2.3600   -1.0880   -0.9550 h1        1 MBB      0.040033
     59 HN12       -2.4280   -0.0550   -2.4570 h1        1 MBB      0.040033
     60 HN13       -2.6230    0.7140   -0.8210 h1        1 MBB      0.040033
     61 HN21       -0.5440   -0.1670   -3.4020 h1        1 MBB      0.040033
     62 HN22        0.5570   -1.2220   -2.4020 h1        1 MBB      0.040033
     63 HN23        0.9330    0.5510   -2.6220 h1        1 MBB      0.040033
     64 H251       -0.6170    0.8090    4.3480 hc        1 MBB      0.055367
     65 H252       -2.0720    0.3800    3.3560 hc        1 MBB      0.055367
     66 H253       -1.0370   -0.9310    4.0650 hc        1 MBB      0.055367
@<TRIPOS>BOND
     1    1    3 ar  
     2    1    5 ar  
     3    1    7 1   
     4    2    4 ar  
     5    2    6 ar  
     6    2    8 1   
     7    3    4 ar  
     8    3   36 1   
     9    4   37 1   
    10    5    6 ar  
    11    5   38 1   
    12    6   35 1   
    13    7   33 1   
    14    7   34 1   
    15    8   15 2   
    16    8   16 1   
    17    9   10 ar  
    18    9   14 ar  
    19    9   15 1   
    20   10   11 ar  
    21   10   16 1   
    22   11   12 ar  
    23   11   39 1   
    24   12   13 ar  
    25   12   40 1   
    26   13   14 ar  
    27   13   17 1   
    28   14   41 1   
    29   16   42 1   
    30   17   23 2   
    31   17   24 1   
    32   18   19 ar  
    33   18   23 1   
    34   18   25 ar  
    35   19   20 ar  
    36   19   24 1   
    37   20   21 ar  
    38   20   43 1   
    39   21   22 ar  
    40   21   44 1   
    41   22   25 ar  
    42   22   26 1   
    43   24   45 1   
    44   25   46 1   
    45   26   28 1   
    46   26   31 1   
    47   27   29 1   
    48   27   30 1   
    49   27   32 1   
    50   28   29 1   
    51   28   47 1   
    52   28   48 1   
    53   29   49 1   
    54   29   50 1   
    55   30   31 1   
    56   30   51 1   
    57   30   52 1   
    58   31   53 1   
    59   31   54 1   
    60   32   55 1   
    61   32   56 1   
    62   32   57 1   
    63   33   58 1   
    64   33   59 1   
    65   33   60 1   
    66   34   61 1   
    67   34   62 1   
    68   34   63 1   
    69   35   64 1   
    70   35   65 1   
    71   35   66 1   
@<TRIPOS>SUBSTRUCTURE
     1 MBB         1 TEMP              0 ****  ****    0 ROOT
