@<TRIPOS>MOLECULE
MBB
   67    72     1     0     0
SMALL
bcc


@<TRIPOS>ATOM
      1 C          -0.2700   -0.0020    0.1070 ca        1 MBB     -0.046400
      2 C1          1.1440    0.0950    2.5150 ca        1 MBB     -0.044900
      3 C2          1.1300   -0.1180    0.0930 ca        1 MBB     -0.113000
      4 C3          1.8220   -0.0690    1.2990 ca        1 MBB     -0.096000
      5 C4         -0.9590    0.1770    1.3160 ca        1 MBB     -0.124000
      6 C5         -0.2590    0.2280    2.5280 ca        1 MBB      0.003700
      7 N          -1.0360   -0.0780   -1.1500 n4        1 MBB     -0.547800
      8 C6          1.9140    0.0840    3.7610 cc        1 MBB      0.403400
      9 C7          2.6360   -0.3810    5.7830 ca        1 MBB      0.049400
     10 C8          3.6010    0.5260    5.1850 ca        1 MBB     -0.051200
     11 C9          4.7410    0.9410    5.8890 ca        1 MBB     -0.140000
     12 C10         4.9120    0.4510    7.1720 ca        1 MBB     -0.081000
     13 C11         3.9790   -0.4320    7.7670 ca        1 MBB     -0.121900
     14 C12         2.8430   -0.8610    7.0860 ca        1 MBB     -0.013000
     15 N1          1.5990   -0.6290    4.8670 nd        1 MBB     -0.518100
     16 N2          3.1360    0.7910    3.8970 na        1 MBB     -0.269300
     17 C13         4.2160   -0.9320    9.1250 cc        1 MBB      0.450400
     18 C14         4.2910   -2.2050   10.9180 ca        1 MBB      0.084400
     19 C15         4.8750   -0.9270   11.2790 ca        1 MBB     -0.090200
     20 C16         5.3520   -0.6980   12.5720 ca        1 MBB     -0.114000
     21 C17         5.2560   -1.7290   13.4910 ca        1 MBB     -0.147000
     22 C18         4.6820   -2.9940   13.1670 ca        1 MBB      0.120600
     23 N3          3.8930   -2.1710    9.5670 nd        1 MBB     -0.556100
     24 N4          4.8330   -0.1410   10.1240 na        1 MBB     -0.277300
     25 C19         4.1970   -3.2270   11.8670 ca        1 MBB     -0.100000
     26 N5          4.5110   -4.0100   14.1460 nh        1 MBB     -0.636000
     27 N6          4.9360   -6.0230   16.1990 n3        1 MBB     -0.732600
     28 C20         4.7360   -3.6250   15.5280 c3        1 MBB      0.184300
     29 C21         4.3300   -4.7380   16.5160 c3        1 MBB      0.165800
     30 C22         4.7240   -6.4020   14.8100 c3        1 MBB      0.165800
     31 C23         5.1210   -5.2920   13.8170 c3        1 MBB      0.184300
     32 C24         4.5450   -7.0630   17.1230 c3        1 MBB      0.156100
     33 CN1        -0.8690   -1.4060   -1.8010 c3        1 MBB      0.088600
     34 CN2        -0.6640    1.0250   -2.0780 c3        1 MBB      0.088600
     35 C25        -1.0200    0.4140    3.7850 c3        1 MBB     -0.075800
     36 H2          1.6900   -0.2580   -0.8450 ha        1 MBB      0.153000
     37 H3          2.9190   -0.1850    1.2890 ha        1 MBB      0.170000
     38 H4         -2.0580    0.2760    1.3400 ha        1 MBB      0.155000
     39 H9          5.4750    1.6210    5.4370 ha        1 MBB      0.147000
     40 H10         5.8130    0.7460    7.7340 ha        1 MBB      0.147000
     41 H12         2.1260   -1.5610    7.5450 ha        1 MBB      0.180000
     42 HN2         3.5070    1.4460    3.2630 hn        1 MBB      0.308700
     43 H16         5.7970    0.2660   12.8540 ha        1 MBB      0.138000
     44 H17         5.6440   -1.5470   14.5050 ha        1 MBB      0.140000
     45 HN4         5.0630    0.8130   10.0550 hn        1 MBB      0.304700
     46 H19         3.7390   -4.1860   11.5850 ha        1 MBB      0.156000
     47 H201        4.1030   -2.7210   15.7510 h1        1 MBB      0.043950
     48 H202        5.8170   -3.3580   15.7180 h1        1 MBB      0.043950
     49 H211        3.2030   -4.8020   16.5460 h1        1 MBB      0.039950
     50 H212        4.6870   -4.4320   17.5390 h1        1 MBB      0.039950
     51 H221        5.3720   -7.2980   14.5960 h1        1 MBB      0.039950
     52 H222        3.6510   -6.6950   14.6150 h1        1 MBB      0.039950
     53 H231        6.2470   -5.2110   13.7940 h1        1 MBB      0.043950
     54 H232        4.7740   -5.6070   12.7940 h1        1 MBB      0.043950
     55 H241        5.1130   -7.9970   16.8750 h1        1 MBB      0.034700
     56 H242        4.8160   -6.7410   18.1630 h1        1 MBB      0.034700
     57 H243        3.4450   -7.2950   17.0950 h1        1 MBB      0.034700
     58 HN11       -1.5130   -1.4470   -2.7200 hx        1 MBB      0.105033
     59 HN12        0.2070   -1.5530   -2.0850 hx        1 MBB      0.105033
     60 HN13       -1.1750   -2.2110   -1.0800 hx        1 MBB      0.105033
     61 HN21        0.4150    0.9240   -2.3690 hx        1 MBB      0.105033
     62 HN22       -1.3100    0.9670   -2.9940 hx        1 MBB      0.105033
     63 HN23       -0.8190    2.0100   -1.5610 hx        1 MBB      0.105033
     64 H251       -2.0540    0.7900    3.5830 hc        1 MBB      0.076700
     65 H252       -1.0990   -0.5620    4.3320 hc        1 MBB      0.076700
     66 H253       -0.5030    1.1450    4.4580 hc        1 MBB      0.076700
     67 HN1        -2.0340    0.0340   -0.9110 hn        1 MBB      0.452800
@<TRIPOS>BOND
     1    1    3 ar  
     2    1    5 ar  
     3    1    7 1   
     4    2    4 ar  
     5    2    6 ar  
     6    2    8 1   
     7    3    4 ar  
     8    3   36 1   
     9    4   37 1   
    10    5    6 ar  
    11    5   38 1   
    12    6   35 1   
    13    7   33 1   
    14    7   34 1   
    15    7   67 1   
    16    8   15 2   
    17    8   16 1   
    18    9   10 ar  
    19    9   14 ar  
    20    9   15 1   
    21   10   11 ar  
    22   10   16 1   
    23   11   12 ar  
    24   11   39 1   
    25   12   13 ar  
    26   12   40 1   
    27   13   14 ar  
    28   13   17 1   
    29   14   41 1   
    30   16   42 1   
    31   17   23 2   
    32   17   24 1   
    33   18   19 ar  
    34   18   23 1   
    35   18   25 ar  
    36   19   20 ar  
    37   19   24 1   
    38   20   21 ar  
    39   20   43 1   
    40   21   22 ar  
    41   21   44 1   
    42   22   25 ar  
    43   22   26 1   
    44   24   45 1   
    45   25   46 1   
    46   26   28 1   
    47   26   31 1   
    48   27   29 1   
    49   27   30 1   
    50   27   32 1   
    51   28   29 1   
    52   28   47 1   
    53   28   48 1   
    54   29   49 1   
    55   29   50 1   
    56   30   31 1   
    57   30   51 1   
    58   30   52 1   
    59   31   53 1   
    60   31   54 1   
    61   32   55 1   
    62   32   56 1   
    63   32   57 1   
    64   33   58 1   
    65   33   59 1   
    66   33   60 1   
    67   34   61 1   
    68   34   62 1   
    69   34   63 1   
    70   35   64 1   
    71   35   65 1   
    72   35   66 1   
@<TRIPOS>SUBSTRUCTURE
     1 MBB         1 TEMP              0 ****  ****    0 ROOT
