@<TRIPOS>MOLECULE
MBC
   42    45     1     0     0
SMALL
bcc


@<TRIPOS>ATOM
      1 C1          1.8420   -2.2390    8.6070 cc        1 MBC     -0.246300
      2 C2          1.1850   -1.6450    7.4710 cc        1 MBC     -0.186300
      3 C3          1.9890   -1.8980    6.3730 cd        1 MBC      0.223400
      4 O4          3.1270   -2.6270    6.7560 os        1 MBC     -0.371800
      5 C5          3.0110   -2.8240    8.1430 cd        1 MBC      0.322200
      6 C6          4.0710   -3.5570    8.7910 ca        1 MBC     -0.119500
      7 C7          1.8560   -1.5570    4.9780 cd        1 MBC      0.375800
      8 C8          4.0110   -3.7830   10.1750 ca        1 MBC     -0.111500
      9 C9          5.0280   -4.4860   10.8160 ca        1 MBC     -0.105500
     10 C10         6.1120   -4.9750   10.0820 ca        1 MBC     -0.186900
     11 C11         6.1760   -4.7560    8.7020 ca        1 MBC     -0.105500
     12 C12         5.1630   -4.0500    8.0600 ca        1 MBC     -0.111500
     13 N13         2.8130   -1.9360    4.0040 na        1 MBC     -0.265300
     14 C14         2.3550   -1.4390    2.7860 ca        1 MBC     -0.055200
     15 C15         1.1030   -0.7570    3.0780 ca        1 MBC      0.059400
     16 N16         0.8240   -0.8500    4.4530 nc        1 MBC     -0.545100
     17 C17         0.3920   -0.1450    2.0360 ca        1 MBC     -0.049000
     18 C18         0.9220   -0.2120    0.7520 ca        1 MBC     -0.220900
     19 C19         2.1380   -0.8750    0.4810 ca        1 MBC     -0.079000
     20 C20         2.8660   -1.4960    1.4830 ca        1 MBC     -0.141000
     21 C21         0.1620    0.4210   -0.3740 ce        1 MBC      0.639800
     22 C22         7.2010   -5.7550   10.7530 ce        1 MBC      0.636800
     23 N23         7.6200   -6.9180   10.3470 n2        1 MBC     -0.830100
     24 N24         7.7070   -5.1550   11.9270 nh        1 MBC     -0.892800
     25 N25        -1.0870    0.1750   -0.6410 n2        1 MBC     -0.834100
     26 N26         0.9370    1.2780   -1.1870 nh        1 MBC     -0.892800
     27 H1          1.4750   -2.2240    9.6300 ha        1 MBC      0.169000
     28 H2          0.2410   -1.1030    7.4780 ha        1 MBC      0.183000
     29 H8          3.1560   -3.4030   10.7560 ha        1 MBC      0.144000
     30 H9          4.9720   -4.6620   11.9020 ha        1 MBC      0.149000
     31 H11         7.0280   -5.1400    8.1200 ha        1 MBC      0.149000
     32 H12         5.2140   -3.8750    6.9740 ha        1 MBC      0.144000
     33 HN13        3.6310   -2.4590    4.1710 hn        1 MBC      0.317700
     34 H17        -0.5570    0.3720    2.2410 ha        1 MBC      0.156000
     35 H19         2.5100   -0.9050   -0.5550 ha        1 MBC      0.153000
     36 H20         3.8090   -2.0150    1.2630 ha        1 MBC      0.142000
     37 HN23        7.1170   -7.2860    9.5690 hn        1 MBC      0.396400
     38 H241        8.5280   -5.5790   12.3030 hn        1 MBC      0.399300
     39 H242        7.7660   -4.1630   11.8640 hn        1 MBC      0.399300
     40 HN25       -1.4990   -0.5210   -0.0580 hn        1 MBC      0.396400
     41 H261        0.4200    1.8310   -1.8360 hn        1 MBC      0.397300
     42 H262        1.6090    1.8010   -0.6700 hn        1 MBC      0.397300
@<TRIPOS>BOND
     1    1    2 1   
     2    1    5 2   
     3    1   27 1   
     4    2    3 2   
     5    2   28 1   
     6    3    4 1   
     7    3    7 1   
     8    4    5 1   
     9    5    6 1   
    10    6    8 ar  
    11    6   12 ar  
    12    7   13 1   
    13    7   16 2   
    14    8    9 ar  
    15    8   29 1   
    16    9   10 ar  
    17    9   30 1   
    18   10   11 ar  
    19   10   22 1   
    20   11   12 ar  
    21   11   31 1   
    22   12   32 1   
    23   13   14 1   
    24   13   33 1   
    25   14   15 ar  
    26   14   20 ar  
    27   15   16 1   
    28   15   17 ar  
    29   17   18 ar  
    30   17   34 1   
    31   18   19 ar  
    32   18   21 1   
    33   19   20 ar  
    34   19   35 1   
    35   20   36 1   
    36   21   25 2   
    37   21   26 1   
    38   22   23 2   
    39   22   24 1   
    40   23   37 1   
    41   24   38 1   
    42   24   39 1   
    43   25   40 1   
    44   26   41 1   
    45   26   42 1   
@<TRIPOS>SUBSTRUCTURE
     1 MBC         1 TEMP              0 ****  ****    0 ROOT
