@<TRIPOS>MOLECULE
MBC
   44    47     1     0     0
SMALL
bcc


@<TRIPOS>ATOM
      1 C1         -0.0530   -0.7710    0.1450 cc        1 MBC     -0.202300
      2 C2          1.3850   -0.7340    0.0790 cc        1 MBC     -0.164300
      3 C3          1.8270   -0.3740    1.3420 cd        1 MBC      0.224400
      4 O4          0.7420   -0.1760    2.2110 os        1 MBC     -0.367800
      5 C5         -0.4110   -0.4290    1.4430 cd        1 MBC      0.288200
      6 C6         -1.6880   -0.2940    2.0970 ca        1 MBC     -0.061500
      7 C7          3.1600   -0.1840    1.8620 cd        1 MBC      0.400800
      8 C8         -2.8560   -0.6730    1.4100 ca        1 MBC     -0.104000
      9 C9         -4.1000   -0.5500    2.0180 ca        1 MBC     -0.086500
     10 C10        -4.1920   -0.0480    3.3230 ca        1 MBC     -0.262900
     11 C11        -3.0350    0.3300    4.0160 ca        1 MBC     -0.086500
     12 C12        -1.7910    0.2080    3.4050 ca        1 MBC     -0.104000
     13 N13         3.4300    0.0970    3.2270 na        1 MBC     -0.253300
     14 C14         4.8100    0.2100    3.3410 ca        1 MBC     -0.030200
     15 C15         5.3430   -0.0150    2.0010 ca        1 MBC      0.065400
     16 N16         4.2860   -0.2590    1.1080 nc        1 MBC     -0.525100
     17 C17         6.7240    0.0460    1.7830 ca        1 MBC     -0.012000
     18 C18         7.5420    0.3160    2.8780 ca        1 MBC     -0.289900
     19 C19         7.0220    0.5260    4.1750 ca        1 MBC     -0.097000
     20 C20         5.6610    0.4800    4.4240 ca        1 MBC     -0.108000
     21 C21         8.9980    0.4430    2.6650 ce        1 MBC      0.592800
     22 C22        -5.5020    0.0300    4.0000 ce        1 MBC      0.587800
     23 N23        -5.9810   -0.6060    4.9980 n2        1 MBC     -0.700100
     24 N24        -6.4030    1.0610    3.3680 nz        1 MBC     -0.823600
     25 N25         9.7040    1.3550    2.1210 n2        1 MBC     -0.703100
     26 N26         9.7450   -0.7510    3.2070 nz        1 MBC     -0.825600
     27 H1         -0.7160   -1.0210   -0.6820 ha        1 MBC      0.183000
     28 H2          1.9990   -0.9480   -0.7970 ha        1 MBC      0.200000
     29 H8         -2.7850   -1.0770    0.3860 ha        1 MBC      0.168000
     30 H9         -5.0010   -0.8770    1.4750 ha        1 MBC      0.150500
     31 H11        -3.1010    0.7200    5.0450 ha        1 MBC      0.150500
     32 H12        -0.8790    0.5040    3.9480 ha        1 MBC      0.168000
     33 HN13        2.7570    0.2020    3.9420 hn        1 MBC      0.330700
     34 H17         7.1320   -0.1090    0.7720 ha        1 MBC      0.170000
     35 H19         7.7090    0.7590    5.0050 ha        1 MBC      0.144000
     36 H20         5.2630    0.6550    5.4350 ha        1 MBC      0.167000
     37 HN23       -5.4200   -1.3060    5.4400 hn        1 MBC      0.492400
     38 H241       -6.4580    0.8660    2.3630 hn        1 MBC      0.472467
     39 H242       -7.3480    1.0500    3.7740 hn        1 MBC      0.472467
     40 HN25        9.2470    2.1660    1.7550 hn        1 MBC      0.493400
     41 H261        9.4610   -1.5780    2.6700 hn        1 MBC      0.470800
     42 H262       10.7640   -0.6350    3.1410 hn        1 MBC      0.470800
     43 H243       -5.9840    1.9860    3.5100 hn        1 MBC      0.472467
     44 H263        9.4750   -0.8770    4.1880 hn        1 MBC      0.470800
@<TRIPOS>BOND
     1    1    2 1   
     2    1    5 2   
     3    1   27 1   
     4    2    3 2   
     5    2   28 1   
     6    3    4 1   
     7    3    7 1   
     8    4    5 1   
     9    5    6 1   
    10    6    8 ar  
    11    6   12 ar  
    12    7   13 1   
    13    7   16 2   
    14    8    9 ar  
    15    8   29 1   
    16    9   10 ar  
    17    9   30 1   
    18   10   11 ar  
    19   10   22 1   
    20   11   12 ar  
    21   11   31 1   
    22   12   32 1   
    23   13   14 1   
    24   13   33 1   
    25   14   15 ar  
    26   14   20 ar  
    27   15   16 1   
    28   15   17 ar  
    29   17   18 ar  
    30   17   34 1   
    31   18   19 ar  
    32   18   21 1   
    33   19   20 ar  
    34   19   35 1   
    35   20   36 1   
    36   21   25 2   
    37   21   26 1   
    38   22   23 2   
    39   22   24 1   
    40   23   37 1   
    41   24   38 1   
    42   24   39 1   
    43   24   43 1   
    44   25   40 1   
    45   26   41 1   
    46   26   42 1   
    47   26   44 1   
@<TRIPOS>SUBSTRUCTURE
     1 MBC         1 TEMP              0 ****  ****    0 ROOT
