@<TRIPOS>MOLECULE
MBC
   44    47     1     0     0
SMALL
bcc


@<TRIPOS>ATOM
      1 C1         -0.0140   -0.8860    0.2070 cc        1 MBC     -0.203300
      2 C2          1.4240   -0.8440    0.1540 cc        1 MBC     -0.164300
      3 C3          1.8510   -0.4230    1.4040 cd        1 MBC      0.224400
      4 O4          0.7550   -0.1920    2.2510 os        1 MBC     -0.367800
      5 C5         -0.3880   -0.4870    1.4840 cd        1 MBC      0.289200
      6 C6         -1.6720   -0.3310    2.1180 ca        1 MBC     -0.061500
      7 C7          3.1760   -0.2010    1.9310 cd        1 MBC      0.402800
      8 C8         -2.8330   -0.7360    1.4320 ca        1 MBC     -0.104000
      9 C9         -4.0830   -0.5960    2.0230 ca        1 MBC     -0.086500
     10 C10        -4.1900   -0.0490    3.3090 ca        1 MBC     -0.262900
     11 C11        -3.0420    0.3570    4.0000 ca        1 MBC     -0.086500
     12 C12        -1.7910    0.2160    3.4060 ca        1 MBC     -0.104000
     13 N13         3.4250    0.1650    3.2790 na        1 MBC     -0.253300
     14 C14         4.8030    0.2870    3.4080 ca        1 MBC     -0.028200
     15 C15         5.3560   -0.0190    2.0920 ca        1 MBC      0.066400
     16 N16         4.3130   -0.3210    1.2000 nc        1 MBC     -0.529100
     17 C17         6.7390    0.0310    1.8940 ca        1 MBC     -0.031000
     18 C18         7.5420    0.3700    2.9820 ca        1 MBC     -0.283900
     19 C19         7.0010    0.6620    4.2550 ca        1 MBC     -0.083000
     20 C20         5.6360    0.6250    4.4840 ca        1 MBC     -0.109000
     21 C21         9.0030    0.4890    2.8020 ce        1 MBC      0.592800
     22 C22        -5.5080    0.0480    3.9700 ce        1 MBC      0.587800
     23 N23        -5.9950   -0.5560    4.9820 n2        1 MBC     -0.700100
     24 N24        -6.4030    1.0560    3.2950 n4        1 MBC     -0.823600
     25 N25         9.7860    1.4960    2.8400 n2        1 MBC     -0.705100
     26 N26         9.6450   -0.8510    2.5380 n4        1 MBC     -0.825600
     27 H1         -0.6660   -1.1780   -0.6150 ha        1 MBC      0.183000
     28 H2          2.0490   -1.0940   -0.7040 ha        1 MBC      0.199000
     29 H8         -2.7510   -1.1750    0.4240 ha        1 MBC      0.167500
     30 H9         -4.9780   -0.9430    1.4830 ha        1 MBC      0.151000
     31 H11        -3.1190    0.7820    5.0140 ha        1 MBC      0.151000
     32 H12        -0.8850    0.5340    3.9490 ha        1 MBC      0.167500
     33 HN13        2.7410    0.3100    3.9770 hn        1 MBC      0.330700
     34 H17         7.1590   -0.1670    0.8950 ha        1 MBC      0.158000
     35 H19         7.6770    0.9300    5.0830 ha        1 MBC      0.155000
     36 H20         5.2230    0.8580    5.4780 ha        1 MBC      0.168000
     37 HN23       -5.4380   -1.2400    5.4530 hn        1 MBC      0.493400
     38 H241       -6.4480    0.8280    2.2960 hn        1 MBC      0.472467
     39 H242       -7.3530    1.0560    3.6920 hn        1 MBC      0.472467
     40 HN25        9.3970    2.4020    3.0040 hn        1 MBC      0.492400
     41 H261        9.1500   -1.2920    1.7550 hn        1 MBC      0.471133
     42 H262       10.6440   -0.7640    2.3110 hn        1 MBC      0.471133
     43 H243       -5.9880    1.9870    3.4110 hn        1 MBC      0.472467
     44 H263        9.5360   -1.4310    3.3760 hn        1 MBC      0.471133
@<TRIPOS>BOND
     1    1    2 1   
     2    1    5 2   
     3    1   27 1   
     4    2    3 2   
     5    2   28 1   
     6    3    4 1   
     7    3    7 1   
     8    4    5 1   
     9    5    6 1   
    10    6    8 ar  
    11    6   12 ar  
    12    7   13 1   
    13    7   16 2   
    14    8    9 ar  
    15    8   29 1   
    16    9   10 ar  
    17    9   30 1   
    18   10   11 ar  
    19   10   22 1   
    20   11   12 ar  
    21   11   31 1   
    22   12   32 1   
    23   13   14 1   
    24   13   33 1   
    25   14   15 ar  
    26   14   20 ar  
    27   15   16 1   
    28   15   17 ar  
    29   17   18 ar  
    30   17   34 1   
    31   18   19 ar  
    32   18   21 1   
    33   19   20 ar  
    34   19   35 1   
    35   20   36 1   
    36   21   25 2   
    37   21   26 1   
    38   22   23 2   
    39   22   24 1   
    40   23   37 1   
    41   24   38 1   
    42   24   39 1   
    43   24   43 1   
    44   25   40 1   
    45   26   41 1   
    46   26   42 1   
    47   26   44 1   
@<TRIPOS>SUBSTRUCTURE
     1 MBC         1 TEMP              0 ****  ****    0 ROOT
