@<TRIPOS>MOLECULE
MBD
   17    17     1     0     0
SMALL
bcc


@<TRIPOS>ATOM
      1 CA1         0.0620   -0.0130   -0.0200 ca        1 MBD      0.042100
      2 OA1        -0.5230    0.0100   -1.2710 oh        1 MBD     -0.519100
      3 CA2         1.4720    0.0370    0.0060 ca        1 MBD      0.105100
      4 OA2         2.2290    0.1040   -1.1400 oh        1 MBD     -0.495100
      5 CA3         2.1520    0.0180    1.2380 ca        1 MBD     -0.074300
      6 CB3         3.6300    0.0770    1.2650 c3        1 MBD     -0.044800
      7 CA4         1.4030   -0.0510    2.4170 ca        1 MBD     -0.130000
      8 CA5         0.0110   -0.0990    2.3850 ca        1 MBD     -0.126000
      9 CA6        -0.6690   -0.0800    1.1690 ca        1 MBD     -0.175000
     10 HA1        -1.4820   -0.0350   -1.1490 ho        1 MBD      0.429000
     11 HA2         1.6250    0.0940   -1.8980 ho        1 MBD      0.436000
     12 HB31        4.0580   -0.6590    0.5380 hc        1 MBD      0.049033
     13 HB32        4.0260   -0.1460    2.2840 hc        1 MBD      0.049033
     14 HB33        3.9750    1.0970    0.9590 hc        1 MBD      0.049033
     15 HA4         1.9280   -0.0670    3.3840 ha        1 MBD      0.136000
     16 HA5        -0.5570   -0.1530    3.3250 ha        1 MBD      0.135000
     17 HA6        -1.7670   -0.1190    1.1410 ha        1 MBD      0.134000
@<TRIPOS>BOND
     1    1    2 1   
     2    1    3 ar  
     3    1    9 ar  
     4    2   10 1   
     5    3    4 1   
     6    3    5 ar  
     7    4   11 1   
     8    5    6 1   
     9    5    7 ar  
    10    6   12 1   
    11    6   13 1   
    12    6   14 1   
    13    7    8 ar  
    14    7   15 1   
    15    8    9 ar  
    16    8   16 1   
    17    9   17 1   
@<TRIPOS>SUBSTRUCTURE
     1 MBD         1 TEMP              0 ****  ****    0 ROOT
