@<TRIPOS>MOLECULE
MBD
   17    17     1     0     0
SMALL
bcc


@<TRIPOS>ATOM
      1 CA1         0.0970   -0.0980   -1.2680 ca        1 MBD      0.113100
      2 OA1        -0.5200   -0.1220   -2.4970 oh        1 MBD     -0.496100
      3 CA2        -0.6240   -0.1300   -0.0540 ca        1 MBD      0.040100
      4 OA2        -1.9980   -0.1880   -0.1830 oh        1 MBD     -0.520100
      5 CA3         0.0510   -0.1030    1.1760 ca        1 MBD     -0.115300
      6 CB3        -0.6960   -0.1370    2.4540 c3        1 MBD     -0.057800
      7 CA4         1.4500   -0.0440    1.1700 ca        1 MBD     -0.132000
      8 CA5         2.1600   -0.0120   -0.0270 ca        1 MBD     -0.124000
      9 CA6         1.4950   -0.0380   -1.2510 ca        1 MBD     -0.137000
     10 HA1        -1.4780   -0.1630   -2.3530 ho        1 MBD      0.437000
     11 HA2        -2.3830   -0.2070    0.7040 ho        1 MBD      0.430000
     12 HB31       -1.3840    0.7430    2.5300 hc        1 MBD      0.046700
     13 HB32       -1.3070   -1.0720    2.5270 hc        1 MBD      0.046700
     14 HB33        0.0010   -0.1080    3.3270 hc        1 MBD      0.046700
     15 HA4         1.9920   -0.0220    2.1270 ha        1 MBD      0.134000
     16 HA5         3.2590    0.0350   -0.0100 ha        1 MBD      0.136000
     17 HA6         2.0450   -0.0140   -2.2030 ha        1 MBD      0.153000
@<TRIPOS>BOND
     1    1    2 1   
     2    1    3 ar  
     3    1    9 ar  
     4    2   10 1   
     5    3    4 1   
     6    3    5 ar  
     7    4   11 1   
     8    5    6 1   
     9    5    7 ar  
    10    6   12 1   
    11    6   13 1   
    12    6   14 1   
    13    7    8 ar  
    14    7   15 1   
    15    8    9 ar  
    16    8   16 1   
    17    9   17 1   
@<TRIPOS>SUBSTRUCTURE
     1 MBD         1 TEMP              0 ****  ****    0 ROOT
