@<TRIPOS>MOLECULE
MBD
   17    17     1     0     0
SMALL
bcc


@<TRIPOS>ATOM
      1 CA1         0.0680   -0.0280   -0.0290 ca        1 MBD      0.042100
      2 OA1        -0.5070   -0.0270   -1.2840 oh        1 MBD     -0.519100
      3 CA2         1.4780    0.0230    0.0070 ca        1 MBD      0.105100
      4 OA2         2.2440    0.0700   -1.1340 oh        1 MBD     -0.495100
      5 CA3         2.1490    0.0250    1.2440 ca        1 MBD     -0.074300
      6 CB3         3.6270    0.0840    1.2810 c3        1 MBD     -0.044800
      7 CA4         1.3910   -0.0240    2.4190 ca        1 MBD     -0.130000
      8 CA5         0.0000   -0.0730    2.3770 ca        1 MBD     -0.126000
      9 CA6        -0.6710   -0.0750    1.1560 ca        1 MBD     -0.175000
     10 HA1        -1.4660   -0.0690   -1.1680 ho        1 MBD      0.429000
     11 HA2         1.6450    0.0460   -1.8970 ho        1 MBD      0.436000
     12 HB31        4.0610   -0.6550    0.5620 hc        1 MBD      0.049033
     13 HB32        4.0160   -0.1330    2.3050 hc        1 MBD      0.049033
     14 HB33        3.9740    1.1030    0.9740 hc        1 MBD      0.049033
     15 HA4         1.9090   -0.0250    3.3900 ha        1 MBD      0.136000
     16 HA5        -0.5760   -0.1110    3.3130 ha        1 MBD      0.135000
     17 HA6        -1.7690   -0.1140    1.1200 ha        1 MBD      0.134000
@<TRIPOS>BOND
     1    1    2 1   
     2    1    3 ar  
     3    1    9 ar  
     4    2   10 1   
     5    3    4 1   
     6    3    5 ar  
     7    4   11 1   
     8    5    6 1   
     9    5    7 ar  
    10    6   12 1   
    11    6   13 1   
    12    6   14 1   
    13    7    8 ar  
    14    7   15 1   
    15    8    9 ar  
    16    8   16 1   
    17    9   17 1   
@<TRIPOS>SUBSTRUCTURE
     1 MBD         1 TEMP              0 ****  ****    0 ROOT
