@<TRIPOS>MOLECULE
MBF
   23    23     1     0     0
SMALL
bcc


@<TRIPOS>ATOM
      1 O1          0.1700    0.0270   -0.2550 oh        1 MBF     -0.572800
      2 C1          1.5500    0.1910   -0.1300 c3        1 MBF      0.322900
      3 C2          2.0140    0.1640    1.3520 c3        1 MBF      0.077600
      4 F2          1.4260   -0.8850    2.0400 f         1 MBF     -0.235300
      5 C3          3.5530    0.0650    1.3970 c3        1 MBF      0.075100
      6 O3          4.0270   -0.0870    2.7180 oh        1 MBF     -0.587800
      7 C4          4.0480   -1.0990    0.5210 c3        1 MBF      0.086100
      8 O4          5.4600   -1.0820    0.4200 oh        1 MBF     -0.589800
      9 C5          3.4890   -0.9640   -0.9030 c3        1 MBF      0.111100
     10 O5          2.0620   -0.9150   -0.8600 os        1 MBF     -0.453600
     11 C6          3.8410   -2.1890   -1.7530 c3        1 MBF      0.141400
     12 O6          3.4570   -2.0020   -3.0960 oh        1 MBF     -0.593800
     13 H1         -0.0490   -0.8720    0.0340 ho        1 MBF      0.430000
     14 HA          1.8160    1.1710   -0.6130 h2        1 MBF      0.090700
     15 H2          1.6890    1.1250    1.8460 h1        1 MBF      0.086700
     16 H3          4.0040    1.0340    1.0420 h1        1 MBF      0.100700
     17 HB          3.5500   -0.8300    3.1160 ho        1 MBF      0.416000
     18 H4          3.7120   -2.0740    0.9750 h1        1 MBF      0.057700
     19 HC          5.7980   -0.9560    1.3190 ho        1 MBF      0.423000
     20 H5          3.8840   -0.0290   -1.3880 h1        1 MBF      0.070700
     21 H6C1        4.9570   -2.3120   -1.7700 h1        1 MBF      0.065200
     22 H6C2        3.3510   -3.1030   -1.3260 h1        1 MBF      0.065200
     23 H6          2.5010   -1.8650   -3.1020 ho        1 MBF      0.412000
@<TRIPOS>BOND
     1    1    2 1   
     2    1   13 1   
     3    2    3 1   
     4    2   10 1   
     5    2   14 1   
     6    3    4 1   
     7    3    5 1   
     8    3   15 1   
     9    5    6 1   
    10    5    7 1   
    11    5   16 1   
    12    6   17 1   
    13    7    8 1   
    14    7    9 1   
    15    7   18 1   
    16    8   19 1   
    17    9   10 1   
    18    9   11 1   
    19    9   20 1   
    20   11   12 1   
    21   11   21 1   
    22   11   22 1   
    23   12   23 1   
@<TRIPOS>SUBSTRUCTURE
     1 MBF         1 TEMP              0 ****  ****    0 ROOT
