@<TRIPOS>MOLECULE
MBF
   23    23     1     0     0
SMALL
bcc


@<TRIPOS>ATOM
      1 O1         -2.7770   -0.4000   -0.4870 oh        1 MBF     -0.572800
      2 C1         -1.4480   -0.7950   -0.3250 c3        1 MBF      0.322900
      3 C2         -0.5740   -0.4340   -1.5560 c3        1 MBF      0.077600
      4 F2         -0.8130    0.8660   -1.9750 f         1 MBF     -0.235300
      5 C3          0.9120   -0.6360   -1.1960 c3        1 MBF      0.075100
      6 O3          1.7650   -0.2070   -2.2360 oh        1 MBF     -0.587800
      7 C4          1.2600    0.1000    0.1100 c3        1 MBF      0.086100
      8 O4          2.5700   -0.2280    0.5330 oh        1 MBF     -0.589800
      9 C5          0.2990   -0.3260    1.2290 c3        1 MBF      0.111100
     10 O5         -1.0500   -0.0730    0.8320 os        1 MBF     -0.453600
     11 C6          0.5250    0.5040    2.4960 c3        1 MBF      0.141400
     12 O6         -0.2510    0.0170    3.5670 oh        1 MBF     -0.593800
     13 H1         -2.8000    0.5690   -0.5030 ho        1 MBF      0.430000
     14 HA         -1.4480   -1.9050   -0.1470 h2        1 MBF      0.090700
     15 H2         -0.8480   -1.1250   -2.4050 h1        1 MBF      0.086700
     16 H3          1.1280   -1.7360   -1.0870 h1        1 MBF      0.100700
     17 HB          1.5120    0.6990   -2.4660 ho        1 MBF      0.416000
     18 H4          1.1840    1.2110   -0.0600 h1        1 MBF      0.057700
     19 HC          3.1390   -0.1530   -0.2460 ho        1 MBF      0.423000
     20 H5          0.4270   -1.4200    1.4540 h1        1 MBF      0.070700
     21 H6C1        0.2890    1.5820    2.2950 h1        1 MBF      0.065200
     22 H6C2        1.5950    0.3910    2.8210 h1        1 MBF      0.065200
     23 H6         -1.1770    0.0790    3.2990 ho        1 MBF      0.412000
@<TRIPOS>BOND
     1    1    2 1   
     2    1   13 1   
     3    2    3 1   
     4    2   10 1   
     5    2   14 1   
     6    3    4 1   
     7    3    5 1   
     8    3   15 1   
     9    5    6 1   
    10    5    7 1   
    11    5   16 1   
    12    6   17 1   
    13    7    8 1   
    14    7    9 1   
    15    7   18 1   
    16    8   19 1   
    17    9   10 1   
    18    9   11 1   
    19    9   20 1   
    20   11   12 1   
    21   11   21 1   
    22   11   22 1   
    23   12   23 1   
@<TRIPOS>SUBSTRUCTURE
     1 MBF         1 TEMP              0 ****  ****    0 ROOT
