@<TRIPOS>MOLECULE
MBF
   23    23     1     0     0
SMALL
bcc


@<TRIPOS>ATOM
      1 O1          0.1460   -0.1110   -0.3250 oh        1 MBF     -0.572800
      2 C1          1.5160    0.1190   -0.1860 c3        1 MBF      0.322900
      3 C2          1.9560    0.1640    1.3030 c3        1 MBF      0.077600
      4 F2          1.4040   -0.8860    2.0190 f         1 MBF     -0.235300
      5 C3          3.4960    0.1340    1.3740 c3        1 MBF      0.075100
      6 O3          3.9560    0.0490    2.7060 oh        1 MBF     -0.587800
      7 C4          4.0560   -1.0360    0.5470 c3        1 MBF      0.086100
      8 O4          5.4680   -0.9600    0.4670 oh        1 MBF     -0.589800
      9 C5          3.5150   -0.9760   -0.8890 c3        1 MBF      0.111100
     10 O5          2.0870   -0.9890   -0.8690 os        1 MBF     -0.453600
     11 C6          3.9340   -2.2120   -1.6900 c3        1 MBF      0.141400
     12 O6          3.5650   -2.0900   -3.0440 oh        1 MBF     -0.593800
     13 H1         -0.0380   -1.0080   -0.0080 ho        1 MBF      0.430000
     14 HA          1.7460    1.0910   -0.6990 h2        1 MBF      0.090700
     15 H2          1.5810    1.1260    1.7580 h1        1 MBF      0.086700
     16 H3          3.9110    1.1090    0.9920 h1        1 MBF      0.100700
     17 HB          3.5060   -0.6990    3.1230 ho        1 MBF      0.416000
     18 H4          3.7560   -2.0090    1.0300 h1        1 MBF      0.057700
     19 HC          5.7860   -0.7890    1.3650 ho        1 MBF      0.423000
     20 H5          3.8760   -0.0420   -1.4010 h1        1 MBF      0.070700
     21 H6C1        3.4780   -3.1330   -1.2380 h1        1 MBF      0.065200
     22 H6C2        5.0550   -2.2870   -1.6860 h1        1 MBF      0.065200
     23 H6          2.6030   -1.9960   -3.0690 ho        1 MBF      0.412000
@<TRIPOS>BOND
     1    1    2 1   
     2    1   13 1   
     3    2    3 1   
     4    2   10 1   
     5    2   14 1   
     6    3    4 1   
     7    3    5 1   
     8    3   15 1   
     9    5    6 1   
    10    5    7 1   
    11    5   16 1   
    12    6   17 1   
    13    7    8 1   
    14    7    9 1   
    15    7   18 1   
    16    8   19 1   
    17    9   10 1   
    18    9   11 1   
    19    9   20 1   
    20   11   12 1   
    21   11   21 1   
    22   11   22 1   
    23   12   23 1   
@<TRIPOS>SUBSTRUCTURE
     1 MBF         1 TEMP              0 ****  ****    0 ROOT
