@<TRIPOS>MOLECULE
MBH
   28    26     1     0     0
SMALL
bcc


@<TRIPOS>ATOM
      1 N1         -0.0570   -0.9440   -0.7900 n4        1 MBH      0.095000
      2 N2          1.3350   -0.8940   -0.6870 n3        1 MBH     -0.246000
      3 C          -0.6420   -0.8590    0.5380 c3        1 MBH     -0.057000
      4 C1         -0.2730    0.4920    1.1740 c2        1 MBH     -0.125000
      5 C2         -1.2180    1.5290    1.2150 c2        1 MBH     -0.113000
      6 C3         -0.9250    2.7040    1.8830 c1        1 MBH     -0.131000
      7 C4          0.3190    2.8590    2.5190 c1        1 MBH     -0.117000
      8 C5          1.2510    1.8380    2.4790 c1        1 MBH     -0.117000
      9 C6          0.9560    0.6480    1.8040 c1        1 MBH     -0.082000
     10 C1M        -0.5190    0.1530   -1.5840 c3        1 MBH     -0.174000
     11 CA2        -0.4360   -2.1460   -1.3930 c3        1 MBH     -0.275000
     12 CA1         0.3670   -2.3400   -2.7300 c2        1 MBH      0.349000
     13 O          -0.0900   -1.8860   -3.8080 o         1 MBH     -0.507000
     14 HN21        1.6860   -0.4730   -1.4350 hn        1 MBH      0.199500
     15 HN22        1.6720   -1.7540   -0.6320 hn        1 MBH      0.199500
     16 H1         -0.2870   -1.6080    1.1110 hx        1 MBH      0.125000
     17 H2A        -1.6260   -0.9330    0.4700 hx        1 MBH      0.125000
     18 H2         -2.0640    1.4470    0.7090 ha        1 MBH      0.132000
     19 H3         -1.5990    3.4470    1.9140 ha        1 MBH      0.142000
     20 H4          0.5490    3.7060    2.9240 ha        1 MBH      0.142500
     21 H5          2.1130    1.9470    2.9200 ha        1 MBH      0.142500
     22 H6          1.5900   -0.0970    1.8290 ha        1 MBH      0.143000
     23 H1M1       -0.4020    0.9770   -1.0930 hx        1 MBH      0.138000
     24 H1M2        0.0010    0.1950   -2.4330 hx        1 MBH      0.138000
     25 H1M3       -1.4950    0.0250   -1.7950 hx        1 MBH      0.138000
     26 HA21       -0.2440   -2.8930   -0.7840 hx        1 MBH      0.120500
     27 HA22       -1.4200   -2.1220   -1.5950 hx        1 MBH      0.120500
     28 OXT         1.4600   -3.0180   -2.7320 o         1 MBH     -0.507000
@<TRIPOS>BOND
     1    1    2 1   
     2    1    3 1   
     3    1   10 1   
     4    1   11 1   
     5    2   14 1   
     6    2   15 1   
     7    3    4 1   
     8    3   16 1   
     9    3   17 1   
    10    4    5 1   
    11    4    9 1   
    12    5    6 1   
    13    5   18 1   
    14    6   19 1   
    15    7    8 1   
    16    7   20 1   
    17    8   21 1   
    18    9   22 1   
    19   10   23 1   
    20   10   24 1   
    21   10   25 1   
    22   11   12 1   
    23   11   26 1   
    24   11   27 1   
    25   12   13 1   
    26   12   28 1   
@<TRIPOS>SUBSTRUCTURE
     1 MBH         1 TEMP              0 ****  ****    0 ROOT
