@<TRIPOS>MOLECULE
MBH
   28    28     1     0     0
SMALL
bcc


@<TRIPOS>ATOM
      1 N1          0.8750   -0.8410   -0.4000 n4        1 MBH     -0.380600
      2 N2          0.6980   -0.0890   -1.5950 n3        1 MBH     -0.649600
      3 C           0.0750   -0.2340    0.7590 c3        1 MBH      0.173100
      4 C1         -1.3550    0.0440    0.4440 ca        1 MBH     -0.128300
      5 C2         -2.3400   -0.9150    0.7050 ca        1 MBH     -0.101500
      6 C3         -3.6790   -0.6260    0.4530 ca        1 MBH     -0.130000
      7 C4         -4.0410    0.6190   -0.0620 ca        1 MBH     -0.105000
      8 C5         -3.0620    1.5780   -0.3200 ca        1 MBH     -0.130000
      9 C6         -1.7200    1.2940   -0.0680 ca        1 MBH     -0.101500
     10 C1M         0.3990   -2.2520   -0.6160 c3        1 MBH      0.108100
     11 CA2         2.3230   -0.8990    0.0570 c3        1 MBH     -0.087200
     12 CA1         3.0330    0.5090    0.1600 c         1 MBH      0.927600
     13 O           2.3260    1.5320   -0.0420 o         1 MBH     -0.774300
     14 HN21        0.7570    0.9020   -1.3470 hn        1 MBH      0.402800
     15 HN22        1.4850   -0.2870   -2.2030 hn        1 MBH      0.402800
     16 H1          0.1570   -0.9660    1.6100 hx        1 MBH      0.116200
     17 H2A         0.6100    0.7290    1.0420 hx        1 MBH      0.116200
     18 H2         -2.0590   -1.8950    1.1210 ha        1 MBH      0.141000
     19 H3         -4.4520   -1.3810    0.6630 ha        1 MBH      0.141500
     20 H4         -5.0990    0.8460   -0.2610 ha        1 MBH      0.140000
     21 H5         -3.3460    2.5630   -0.7220 ha        1 MBH      0.141500
     22 H6         -0.9470    2.0570   -0.2620 ha        1 MBH      0.141000
     23 H1M1        0.9620   -2.7190   -1.4650 hx        1 MBH      0.083033
     24 H1M2        0.5920   -2.8310    0.3240 hx        1 MBH      0.083033
     25 H1M3       -0.6990   -2.2490   -0.8470 hx        1 MBH      0.083033
     26 HA21        2.3540   -1.3770    1.0690 hx        1 MBH      0.082200
     27 HA22        2.8980   -1.5300   -0.6710 hx        1 MBH      0.082200
     28 OXT         4.2440    0.4380    0.4380 o         1 MBH     -0.774300
@<TRIPOS>BOND
     1    1    2 1   
     2    1    3 1   
     3    1   10 1   
     4    1   11 1   
     5    2   14 1   
     6    2   15 1   
     7    3    4 1   
     8    3   16 1   
     9    3   17 1   
    10    4    5 ar  
    11    4    9 ar  
    12    5    6 ar  
    13    5   18 1   
    14    6    7 ar  
    15    6   19 1   
    16    7    8 ar  
    17    7   20 1   
    18    8    9 ar  
    19    8   21 1   
    20    9   22 1   
    21   10   23 1   
    22   10   24 1   
    23   10   25 1   
    24   11   12 1   
    25   11   26 1   
    26   11   27 1   
    27   12   13 1   
    28   12   28 1   
@<TRIPOS>SUBSTRUCTURE
     1 MBH         1 TEMP              0 ****  ****    0 ROOT
