@<TRIPOS>MOLECULE
MBM
   70    74     1     0     0
SMALL
bcc


@<TRIPOS>ATOM
      1 C          -7.2020   -0.4030    1.5320 ca        1 MBM      0.420200
      2 N          -0.4680   -2.4940    0.8350 ne        1 MBM     -0.648100
      3 O          -3.2590   -0.4660   -1.5050 o         1 MBM     -0.602100
      4 C1         -6.8140    0.5640    0.5860 ca        1 MBM     -0.253300
      5 N1         -6.4310   -1.4500    1.8830 nb        1 MBM     -0.664000
      6 O1          4.5650   -4.7730    0.2490 os        1 MBM     -0.205200
      7 C2         -5.5620    0.4400   -0.0160 ca        1 MBM     -0.037000
      8 N2         -2.3710   -1.2130    0.5020 n         1 MBM     -0.499400
      9 O2         -0.4480    5.0200   -1.7190 o         1 MBM     -0.623100
     10 C3         -1.0570   -1.6010    0.0700 c2        1 MBM      0.670800
     11 N3         -0.5160   -1.0420   -1.1350 nh        1 MBM     -0.828200
     12 N4          0.8330    5.1850    0.1610 n         1 MBM     -0.458800
     13 C5         -5.2230   -1.5590    1.3000 ca        1 MBM      0.426200
     14 N5         -0.5570    2.0930   -0.8080 n         1 MBM     -0.452800
     15 C6         -4.7390   -0.6340    0.3510 ca        1 MBM     -0.270900
     16 C7          5.1090   -4.4030    1.5020 cc        1 MBM      0.037900
     17 C8          4.2160   -3.6620    2.2400 cd        1 MBM     -0.176200
     18 C9          6.4740   -4.8730    1.7500 c3        1 MBM     -0.039900
     19 C10         0.8230   -3.0020    0.5880 ca        1 MBM      0.134400
     20 C11         1.7800   -2.9160    1.6230 ca        1 MBM     -0.077000
     21 C12         3.0110   -3.5310    1.4400 ca        1 MBM     -0.099800
     22 C13         1.1280   -3.7010   -0.6110 ca        1 MBM     -0.121000
     23 C14         2.3540   -4.3290   -0.8070 ca        1 MBM     -0.120000
     24 C15         3.2790   -4.2320    0.2250 ca        1 MBM      0.055100
     25 C16         1.5900    6.3140   -0.3580 c3        1 MBM      0.080000
     26 C17        -0.8300    3.3010   -0.0650 c3        1 MBM      0.023000
     27 C18        -0.1090    4.5470   -0.6130 c         1 MBM      0.633100
     28 C19         1.4830    4.5970    1.3190 c3        1 MBM      0.080000
     29 C20         2.8740    6.4370    0.4750 c3        1 MBM     -0.090900
     30 C21         2.8070    5.3480    1.5400 c3        1 MBM     -0.090900
     31 C22         1.3850    0.0630   -2.2970 c3        1 MBM     -0.074400
     32 C23         0.3500    1.1820   -0.2900 c         1 MBM      0.658500
     33 C24         0.6290   -0.1730   -0.9830 c3        1 MBM      0.146500
     34 C25        -1.0460    2.0470   -2.1700 c3        1 MBM      0.077000
     35 C26         0.5610    0.5620   -3.4590 c3        1 MBM     -0.086400
     36 C27         0.0150    1.9550   -3.2640 c3        1 MBM     -0.100400
     37 H          -8.1850   -0.3430    2.0340 h4        1 MBM      0.030100
     38 H1         -7.4860    1.3930    0.3270 ha        1 MBM      0.154000
     39 H2         -5.2170    1.1610   -0.7750 ha        1 MBM      0.161000
     40 HN2        -2.6090   -1.4930    1.4330 hn        1 MBM      0.339500
     41 HN3        -1.2000   -0.6940   -1.7810 hn        1 MBM      0.431800
     42 H5         -4.6330   -2.4450    1.6020 h4        1 MBM      0.031100
     43 H8          4.3610   -3.2450    3.2330 ha        1 MBM      0.165000
     44 H9          7.1690   -4.4780    0.9660 hc        1 MBM      0.060700
     45 H9A         6.8180   -4.5240    2.7540 hc        1 MBM      0.060700
     46 H9B         6.5100   -5.9910    1.7190 hc        1 MBM      0.060700
     47 H11         1.5600   -2.3760    2.5550 ha        1 MBM      0.152000
     48 H13         0.3720   -3.7550   -1.4110 ha        1 MBM      0.147000
     49 H14         2.5800   -4.8750   -1.7310 ha        1 MBM      0.150000
     50 H16         1.8190    6.1590   -1.4480 h1        1 MBM      0.058950
     51 H16A        0.9610    7.2420   -0.2690 h1        1 MBM      0.058950
     52 H17        -1.9330    3.5270   -0.1470 h1        1 MBM      0.082700
     53 H17A       -0.5830    3.1300    1.0220 h1        1 MBM      0.082700
     54 H19         0.8110    4.7170    2.2140 h1        1 MBM      0.058950
     55 H19A        1.6670    3.4960    1.1650 h1        1 MBM      0.058950
     56 H20         3.7720    6.3050   -0.1760 hc        1 MBM      0.051950
     57 H20A        2.9360    7.4510    0.9420 hc        1 MBM      0.051950
     58 H21         2.8330    5.7870    2.5670 hc        1 MBM      0.051950
     59 H21A        3.6690    4.6420    1.4470 hc        1 MBM      0.051950
     60 H22         2.2060    0.7970   -2.0750 hc        1 MBM      0.060200
     61 H22A        1.8680   -0.9070   -2.5930 hc        1 MBM      0.060200
     62 H24         1.3590   -0.6950   -0.2820 h1        1 MBM      0.103700
     63 H25        -1.7690    1.1860   -2.2670 h1        1 MBM      0.071700
     64 H25A       -1.6290    2.9990   -2.3540 h1        1 MBM      0.071700
     65 H26         1.2220    0.5680   -4.3700 hc        1 MBM      0.049700
     66 H26A       -0.2790   -0.1480   -3.6820 hc        1 MBM      0.049700
     67 H27        -0.4720    2.2860   -4.2210 hc        1 MBM      0.058700
     68 H27A        0.8500    2.6740   -3.0550 hc        1 MBM      0.058700
     69 C4         -3.4110   -0.7770   -0.3060 c         1 MBM      0.694700
     70 O3          0.9330    1.4150    0.7900 o         1 MBM     -0.657500
@<TRIPOS>BOND
     1    1    4 ar  
     2    1    5 ar  
     3    1   37 1   
     4    2   10 2   
     5    2   19 1   
     6    3   69 2   
     7    4    7 ar  
     8    4   38 1   
     9    5   13 ar  
    10    6   16 1   
    11    6   24 1   
    12    7   15 ar  
    13    7   39 1   
    14    8   10 1   
    15    8   40 1   
    16    8   69 1   
    17    9   27 2   
    18   10   11 1   
    19   11   33 1   
    20   11   41 1   
    21   12   25 1   
    22   12   27 1   
    23   12   28 1   
    24   13   15 ar  
    25   13   42 1   
    26   14   26 1   
    27   14   32 1   
    28   14   34 1   
    29   15   69 1   
    30   16   17 2   
    31   16   18 1   
    32   17   21 1   
    33   17   43 1   
    34   18   44 1   
    35   18   45 1   
    36   18   46 1   
    37   19   20 ar  
    38   19   22 ar  
    39   20   21 ar  
    40   20   47 1   
    41   21   24 ar  
    42   22   23 ar  
    43   22   48 1   
    44   23   24 ar  
    45   23   49 1   
    46   25   29 1   
    47   25   50 1   
    48   25   51 1   
    49   26   27 1   
    50   26   52 1   
    51   26   53 1   
    52   28   30 1   
    53   28   54 1   
    54   28   55 1   
    55   29   30 1   
    56   29   56 1   
    57   29   57 1   
    58   30   58 1   
    59   30   59 1   
    60   31   33 1   
    61   31   35 1   
    62   31   60 1   
    63   31   61 1   
    64   32   33 1   
    65   32   70 2   
    66   33   62 1   
    67   34   36 1   
    68   34   63 1   
    69   34   64 1   
    70   35   36 1   
    71   35   65 1   
    72   35   66 1   
    73   36   67 1   
    74   36   68 1   
@<TRIPOS>SUBSTRUCTURE
     1 MBM         1 TEMP              0 ****  ****    0 ROOT
