@<TRIPOS>MOLECULE
MBN
   15    15     1     0     0
SMALL
bcc


@<TRIPOS>ATOM
      1 C           0.0000   -0.0010    2.4260 c3        1 MBN     -0.053800
      2 C1         -0.0000   -0.0090    0.9450 ca        1 MBN     -0.077300
      3 C2          1.2080   -0.0060    0.2370 ca        1 MBN     -0.131000
      4 C3          1.2070    0.0010   -1.1570 ca        1 MBN     -0.127000
      5 C4          0.0000    0.0050   -1.8560 ca        1 MBN     -0.135000
      6 C5         -1.2070    0.0010   -1.1570 ca        1 MBN     -0.127000
      7 C6         -1.2080   -0.0060    0.2370 ca        1 MBN     -0.131000
      8 H1          0.9060   -0.5170    2.8290 hc        1 MBN      0.044033
      9 H2A         0.0010    1.0530    2.8010 hc        1 MBN      0.044033
     10 H3A        -0.9070   -0.5140    2.8290 hc        1 MBN      0.044033
     11 H2          2.1610   -0.0110    0.7850 ha        1 MBN      0.130000
     12 H3          2.1600    0.0030   -1.7050 ha        1 MBN      0.130000
     13 H4          0.0000    0.0110   -2.9560 ha        1 MBN      0.130000
     14 H5         -2.1600    0.0040   -1.7050 ha        1 MBN      0.130000
     15 H6         -2.1610   -0.0110    0.7850 ha        1 MBN      0.130000
@<TRIPOS>BOND
     1    1    2 1   
     2    1    8 1   
     3    1    9 1   
     4    1   10 1   
     5    2    3 ar  
     6    2    7 ar  
     7    3    4 ar  
     8    3   11 1   
     9    4    5 ar  
    10    4   12 1   
    11    5    6 ar  
    12    5   13 1   
    13    6    7 ar  
    14    6   14 1   
    15    7   15 1   
@<TRIPOS>SUBSTRUCTURE
     1 MBN         1 TEMP              0 ****  ****    0 ROOT
