@<TRIPOS>MOLECULE
MBN
   15    15     1     0     0
SMALL
bcc


@<TRIPOS>ATOM
      1 C           0.0070   -0.0000    0.0030 c3        1 MBN     -0.053800
      2 C1          1.4880    0.0080    0.0010 ca        1 MBN     -0.077300
      3 C2          2.1980   -0.0180    1.2080 ca        1 MBN     -0.131000
      4 C3          3.5910   -0.0250    1.2050 ca        1 MBN     -0.127000
      5 C4          4.2890   -0.0050   -0.0030 ca        1 MBN     -0.135000
      6 C5          3.5880    0.0220   -1.2080 ca        1 MBN     -0.127000
      7 C6          2.1950    0.0290   -1.2070 ca        1 MBN     -0.131000
      8 H1         -0.3970    0.5450   -0.8860 hc        1 MBN      0.044033
      9 H2A        -0.3960    0.4820    0.9270 hc        1 MBN      0.044033
     10 H3A        -0.3680   -1.0540   -0.0340 hc        1 MBN      0.044033
     11 H2          1.6500   -0.0320    2.1620 ha        1 MBN      0.130000
     12 H3          4.1410   -0.0460    2.1570 ha        1 MBN      0.130000
     13 H4          5.3890   -0.0110   -0.0040 ha        1 MBN      0.130000
     14 H5          4.1360    0.0390   -2.1620 ha        1 MBN      0.130000
     15 H6          1.6450    0.0520   -2.1600 ha        1 MBN      0.130000
@<TRIPOS>BOND
     1    1    2 1   
     2    1    8 1   
     3    1    9 1   
     4    1   10 1   
     5    2    3 ar  
     6    2    7 ar  
     7    3    4 ar  
     8    3   11 1   
     9    4    5 ar  
    10    4   12 1   
    11    5    6 ar  
    12    5   13 1   
    13    6    7 ar  
    14    6   14 1   
    15    7   15 1   
@<TRIPOS>SUBSTRUCTURE
     1 MBN         1 TEMP              0 ****  ****    0 ROOT
