@<TRIPOS>MOLECULE
MBP
   30    31     1     0     0
SMALL
bcc


@<TRIPOS>ATOM
      1 C2          2.0320    0.1410   -2.1790 ca        1 MBP      0.878900
      2 C4         -0.0460   -0.0520   -3.1630 ca        1 MBP      0.607300
      3 C5         -0.6590   -0.0640   -1.8320 ca        1 MBP     -0.378800
      4 C4'        -0.4750    0.1180    2.8800 c         1 MBP      0.564100
      5 O4'        -1.7040    0.1140    2.8080 o         1 MBP     -0.498100
      6 C3'        -0.4180    0.9000    5.2420 c3        1 MBP     -0.089100
      7 C2'         0.2840    0.0710    4.1880 c3        1 MBP     -0.162700
      8 C12         0.4210   -1.3710    4.6350 c3        1 MBP     -0.089100
      9 N9         -1.0820   -0.1670   -4.1250 nc        1 MBP     -0.642700
     10 N3          1.2970    0.0600   -3.3440 nb        1 MBP     -0.713000
     11 N2          3.4320    0.1340   -2.3040 nh        1 MBP     -0.917500
     12 N1          1.5320    0.1700   -0.8670 nb        1 MBP     -0.812000
     13 C6          0.2020    0.0560   -0.7170 ca        1 MBP      0.711600
     14 O6         -0.4180    0.0590    0.5130 os        1 MBP     -0.430100
     15 C60         0.4260    0.1600    1.6670 c3        1 MBP      0.033400
     16 N7         -2.0340   -0.1870   -2.0220 na        1 MBP     -0.242300
     17 C8         -2.2220   -0.2430   -3.4060 cd        1 MBP      0.442700
     18 H3'1        0.1170    0.8110    6.2180 hc        1 MBP      0.046033
     19 H3'2       -0.4410    1.9750    4.9410 hc        1 MBP      0.046033
     20 H3'3       -1.4700    0.5480    5.3730 hc        1 MBP      0.046033
     21 H2'         1.3150    0.4960    4.0200 hc        1 MBP      0.060700
     22 H121       -0.5860   -1.8250    4.8010 hc        1 MBP      0.046033
     23 H122        0.9630   -1.9710    3.8650 hc        1 MBP      0.046033
     24 H123        0.9940   -1.4180    5.5920 hc        1 MBP      0.046033
     25 H2N1        3.7840    0.3720   -3.2030 hn        1 MBP      0.421800
     26 H2N2        3.9380    0.5070   -1.5340 hn        1 MBP      0.421800
     27 H601        0.9910    1.1290    1.6430 h1        1 MBP      0.079200
     28 H602        1.1450   -0.7020    1.6930 h1        1 MBP      0.079200
     29 H7         -2.7110   -0.2240   -1.3070 hn        1 MBP      0.324700
     30 H8         -3.2230   -0.3420   -3.8500 h5        1 MBP      0.073800
@<TRIPOS>BOND
     1    1   10 ar  
     2    1   11 1   
     3    1   12 ar  
     4    2    3 ar  
     5    2    9 1   
     6    2   10 ar  
     7    3   13 ar  
     8    3   16 1   
     9    4    5 2   
    10    4    7 1   
    11    4   15 1   
    12    6    7 1   
    13    6   18 1   
    14    6   19 1   
    15    6   20 1   
    16    7    8 1   
    17    7   21 1   
    18    8   22 1   
    19    8   23 1   
    20    8   24 1   
    21    9   17 2   
    22   11   25 1   
    23   11   26 1   
    24   12   13 ar  
    25   13   14 1   
    26   14   15 1   
    27   15   27 1   
    28   15   28 1   
    29   16   17 1   
    30   16   29 1   
    31   17   30 1   
@<TRIPOS>SUBSTRUCTURE
     1 MBP         1 TEMP              0 ****  ****    0 ROOT
