@<TRIPOS>MOLECULE
MBP
   30    31     1     0     0
SMALL
bcc


@<TRIPOS>ATOM
      1 C2          0.1920   -0.1270   -0.2560 ca        1 MBP      0.879900
      2 C4          2.0490    0.0010    1.1070 ca        1 MBP      0.607300
      3 C5          1.1690    0.0320    2.2780 ca        1 MBP     -0.378800
      4 C4'        -3.0700    0.0130    4.3510 c         1 MBP      0.564100
      5 O4'        -2.4220    0.0080    5.3960 o         1 MBP     -0.498100
      6 C3'        -5.1790   -0.7680    5.4150 c3        1 MBP     -0.089100
      7 C2'        -4.5810    0.0700    4.3060 c3        1 MBP     -0.162700
      8 C12        -5.0310    1.5140    4.4170 c3        1 MBP     -0.089100
      9 N9          3.3910    0.0600    1.5640 nc        1 MBP     -0.642700
     10 N3          1.5660   -0.0680   -0.1630 nb        1 MBP     -0.713000
     11 N2         -0.3550   -0.3260   -1.5350 nh        1 MBP     -0.917500
     12 N1         -0.7290   -0.0700    0.8030 nb        1 MBP     -0.812000
     13 C6         -0.2250   -0.0020    2.0460 ca        1 MBP      0.711600
     14 O6         -1.0150    0.0550    3.1740 os        1 MBP     -0.430100
     15 C60        -2.4330   -0.0270    2.9800 c3        1 MBP      0.033400
     16 N7          1.9930    0.1070    3.4000 na        1 MBP     -0.242300
     17 C8          3.3020    0.1180    2.9090 cd        1 MBP      0.442700
     18 H3'1       -6.2910   -0.6720    5.4110 hc        1 MBP      0.046033
     19 H3'2       -4.7910   -0.4310    6.4070 hc        1 MBP      0.046033
     20 H3'3       -4.9110   -1.8430    5.2790 hc        1 MBP      0.046033
     21 H2'        -4.9270   -0.3400    3.3150 hc        1 MBP      0.061700
     22 H121       -4.6080    2.1210    3.5800 hc        1 MBP      0.046033
     23 H122       -6.1450    1.5690    4.3690 hc        1 MBP      0.046033
     24 H123       -4.6930    1.9540    5.3860 hc        1 MBP      0.046033
     25 H2N1       -1.3040   -0.0520   -1.6500 hn        1 MBP      0.421800
     26 H2N2        0.2470   -0.1110   -2.2980 hn        1 MBP      0.421800
     27 H601       -2.6940   -0.9890    2.4650 h1        1 MBP      0.079700
     28 H602       -2.7860    0.8440    2.3680 h1        1 MBP      0.079700
     29 H7          1.6860    0.1310    4.3360 hn        1 MBP      0.324700
     30 H8          4.1700    0.1710    3.5800 h5        1 MBP      0.073800
@<TRIPOS>BOND
     1    1   10 ar  
     2    1   11 1   
     3    1   12 ar  
     4    2    3 ar  
     5    2    9 1   
     6    2   10 ar  
     7    3   13 ar  
     8    3   16 1   
     9    4    5 2   
    10    4    7 1   
    11    4   15 1   
    12    6    7 1   
    13    6   18 1   
    14    6   19 1   
    15    6   20 1   
    16    7    8 1   
    17    7   21 1   
    18    8   22 1   
    19    8   23 1   
    20    8   24 1   
    21    9   17 2   
    22   11   25 1   
    23   11   26 1   
    24   12   13 ar  
    25   13   14 1   
    26   14   15 1   
    27   15   27 1   
    28   15   28 1   
    29   16   17 1   
    30   16   29 1   
    31   17   30 1   
@<TRIPOS>SUBSTRUCTURE
     1 MBP         1 TEMP              0 ****  ****    0 ROOT
