@<TRIPOS>MOLECULE
MBP
   30    31     1     0     0
SMALL
bcc


@<TRIPOS>ATOM
      1 C2          0.1830   -0.0640   -0.2610 ca        1 MBP      0.878900
      2 C4          2.0430    0.0340    1.1010 ca        1 MBP      0.607300
      3 C5          1.1650    0.0510    2.2740 ca        1 MBP     -0.378800
      4 C4'        -3.0710   -0.0260    4.3520 c         1 MBP      0.564100
      5 O4'        -2.4240   -0.0690    5.3980 o         1 MBP     -0.498100
      6 C3'        -5.2030   -0.7550    5.4110 c3        1 MBP     -0.089100
      7 C2'        -4.5800    0.0750    4.3090 c3        1 MBP     -0.162700
      8 C12        -4.9870    1.5300    4.4320 c3        1 MBP     -0.089100
      9 N9          3.3850    0.0900    1.5560 nc        1 MBP     -0.642700
     10 N3          1.5590   -0.0340   -0.1680 nb        1 MBP     -0.713000
     11 N2         -0.3730   -0.0070   -1.5510 nv        1 MBP     -0.917500
     12 N1         -0.7340   -0.0830    0.8020 nb        1 MBP     -0.812000
     13 C6         -0.2290   -0.0150    2.0450 ca        1 MBP      0.711600
     14 O6         -1.0160   -0.0150    3.1760 os        1 MBP     -0.430100
     15 C60        -2.4350   -0.0610    2.9810 c3        1 MBP      0.033400
     16 N7          1.9900    0.1190    3.3940 na        1 MBP     -0.242300
     17 C8          3.2980    0.1400    2.9020 cd        1 MBP      0.442700
     18 H3'1       -4.9660   -1.8370    5.2650 hc        1 MBP      0.046033
     19 H3'2       -6.3110   -0.6270    5.4070 hc        1 MBP      0.046033
     20 H3'3       -4.8050   -0.4380    6.4060 hc        1 MBP      0.046033
     21 H2'        -4.9380   -0.3170    3.3140 hc        1 MBP      0.060700
     22 H121       -4.6380    1.9510    5.4050 hc        1 MBP      0.046033
     23 H122       -4.5460    2.1320    3.6010 hc        1 MBP      0.046033
     24 H123       -6.1000    1.6170    4.3850 hc        1 MBP      0.046033
     25 H2N1       -1.3040   -0.3460   -1.6380 hn        1 MBP      0.421800
     26 H2N2        0.2420   -0.2520   -2.2950 hn        1 MBP      0.421800
     27 H601       -2.7690    0.8270    2.3810 h1        1 MBP      0.079200
     28 H602       -2.7170   -1.0090    2.4520 h1        1 MBP      0.079200
     29 H7          1.6840    0.1460    4.3310 hn        1 MBP      0.324700
     30 H8          4.1670    0.1930    3.5720 h5        1 MBP      0.073800
@<TRIPOS>BOND
     1    1   10 ar  
     2    1   11 1   
     3    1   12 ar  
     4    2    3 ar  
     5    2    9 1   
     6    2   10 ar  
     7    3   13 ar  
     8    3   16 1   
     9    4    5 2   
    10    4    7 1   
    11    4   15 1   
    12    6    7 1   
    13    6   18 1   
    14    6   19 1   
    15    6   20 1   
    16    7    8 1   
    17    7   21 1   
    18    8   22 1   
    19    8   23 1   
    20    8   24 1   
    21    9   17 2   
    22   11   25 1   
    23   11   26 1   
    24   12   13 ar  
    25   13   14 1   
    26   14   15 1   
    27   15   27 1   
    28   15   28 1   
    29   16   17 1   
    30   16   29 1   
    31   17   30 1   
@<TRIPOS>SUBSTRUCTURE
     1 MBP         1 TEMP              0 ****  ****    0 ROOT
