@<TRIPOS>MOLECULE
MBP
   31    32     1     0     0
SMALL
bcc


@<TRIPOS>ATOM
      1 C2          0.2520   -0.0840   -0.2350 ca        1 MBP      0.698900
      2 C4          2.0660    0.0140    1.1410 ca        1 MBP      0.566300
      3 C5          1.1430    0.0470    2.2860 ca        1 MBP     -0.296800
      4 C4'        -3.0890    0.0190    4.3300 c         1 MBP      0.566100
      5 O4'        -2.3880    0.0010    5.3380 o         1 MBP     -0.480100
      6 C3'        -5.1610   -0.8080    5.4200 c3        1 MBP     -0.093100
      7 C2'        -4.5970    0.0820    4.3310 c3        1 MBP     -0.153700
      8 C12        -5.0370    1.5200    4.5270 c3        1 MBP     -0.093100
      9 N9          3.3890    0.0610    1.6270 nc        1 MBP     -0.587700
     10 N3          1.6040   -0.0530   -0.1450 nb        1 MBP     -0.608000
     11 N2         -0.2890   -0.1590   -1.6270 n4        1 MBP     -0.810300
     12 N1         -0.7180   -0.0580    0.7560 nb        1 MBP     -0.770000
     13 C6         -0.2570    0.0080    2.0250 ca        1 MBP      0.731600
     14 O6         -1.0600    0.0450    3.1240 os        1 MBP     -0.400100
     15 C60        -2.4880   -0.0090    2.9350 c3        1 MBP      0.021400
     16 N7          1.9310    0.1130    3.4210 na        1 MBP     -0.210300
     17 C8          3.2610    0.1180    2.9720 cd        1 MBP      0.472700
     18 H3'1       -4.7440   -0.5150    6.4150 hc        1 MBP      0.053200
     19 H3'2       -6.2730   -0.7090    5.4520 hc        1 MBP      0.053200
     20 H3'3       -4.9010   -1.8760    5.2270 hc        1 MBP      0.053200
     21 H2'        -4.9770   -0.2810    3.3340 hc        1 MBP      0.058700
     22 H121       -4.6410    2.1680    3.7080 hc        1 MBP      0.053200
     23 H122       -4.6700    1.9120    5.5060 hc        1 MBP      0.053200
     24 H123       -6.1530    1.5760    4.5190 hc        1 MBP      0.053200
     25 H2N1       -0.8480   -1.0150   -1.7240 hn        1 MBP      0.478800
     26 H2N2       -0.8830    0.6600   -1.7990 hn        1 MBP      0.478800
     27 H601       -2.7650   -0.9600    2.4100 h1        1 MBP      0.084200
     28 H602       -2.8250    0.8820    2.3460 h1        1 MBP      0.084200
     29 H7          1.6000    0.1450    4.3560 hn        1 MBP      0.352700
     30 H8          4.1120    0.1650    3.6730 h5        1 MBP      0.110800
     31 H23         0.4860   -0.1730   -2.3040 hn        1 MBP      0.478800
@<TRIPOS>BOND
     1    1   10 ar  
     2    1   11 1   
     3    1   12 ar  
     4    2    3 ar  
     5    2    9 1   
     6    2   10 ar  
     7    3   13 ar  
     8    3   16 1   
     9    4    5 2   
    10    4    7 1   
    11    4   15 1   
    12    6    7 1   
    13    6   18 1   
    14    6   19 1   
    15    6   20 1   
    16    7    8 1   
    17    7   21 1   
    18    8   22 1   
    19    8   23 1   
    20    8   24 1   
    21    9   17 2   
    22   11   25 1   
    23   11   26 1   
    24   11   31 1   
    25   12   13 ar  
    26   13   14 1   
    27   14   15 1   
    28   15   27 1   
    29   15   28 1   
    30   16   17 1   
    31   16   29 1   
    32   17   30 1   
@<TRIPOS>SUBSTRUCTURE
     1 MBP         1 TEMP              0 ****  ****    0 ROOT
