@<TRIPOS>MOLECULE
MBQ
   49    50     1     0     0
SMALL
bcc


@<TRIPOS>ATOM
      1 N           4.8330   -4.3990    2.6900 n3        1 MBQ     -0.885800
      2 CA          3.9710   -3.7190    1.7290 c3        1 MBQ      0.021500
      3 CB          4.1480   -2.1890    1.7690 c3        1 MBQ     -0.014100
      4 CQ1         2.8490   -1.4720    1.9080 ca        1 MBQ     -0.080300
      5 CQ2         2.6480   -0.4930    2.9000 ca        1 MBQ      0.133100
      6 OQ2         3.7040   -0.1960    3.7350 oh        1 MBQ     -0.490100
      7 CQ3         1.4210    0.1700    3.0260 ca        1 MBQ     -0.294000
      8 CQ4         0.3850   -0.1340    2.1370 ca        1 MBQ      0.098100
      9 OQ4        -0.8460    0.4910    2.2290 oh        1 MBQ     -0.517100
     10 CQ5         0.5550   -1.1070    1.1190 ca        1 MBQ      0.051600
     11 CQ6         1.8020   -1.7590    1.0310 ca        1 MBQ     -0.080000
     12 NQ5        -0.5160   -1.4850    0.2750 nh        1 MBQ     -0.588400
     13 CAD        -0.3910   -1.4030   -1.1170 c2        1 MBQ      0.152800
     14 CAC         0.6980   -0.9330   -1.7760 ce        1 MBQ     -0.335200
     15 CAB         0.8890   -0.9930   -3.2210 c         1 MBQ      0.590100
     16 OAA         1.4210   -0.0900   -3.8760 o         1 MBQ     -0.556100
     17 CAE        -1.5640   -1.9780   -1.8890 c3        1 MBQ      0.152600
     18 OAF        -2.7480   -1.2960   -1.4440 os        1 MBQ     -0.330900
     19 CAG        -3.9330   -1.7340   -1.9980 ca        1 MBQ      0.134100
     20 CAM        -4.0450   -2.7540   -2.9490 ca        1 MBQ     -0.178000
     21 CAL        -5.3060   -3.0990   -3.4330 ca        1 MBQ     -0.098000
     22 CAJ        -6.4540   -2.4420   -2.9820 ca        1 MBQ     -0.122300
     23 CAK        -7.7920   -2.8230   -3.4880 c3        1 MBQ     -0.043800
     24 CAI        -6.3260   -1.4200   -2.0300 ca        1 MBQ     -0.098000
     25 CAH        -5.0810   -1.0600   -1.5340 ca        1 MBQ     -0.178000
     26 C           4.1610   -4.2150    0.2560 c         1 MBQ      0.885600
     27 OXT         3.2690   -3.9080   -0.5860 o         1 MBQ     -0.841800
     28 O           5.1810   -4.9090   -0.0130 o         1 MBQ     -0.841800
     29 H           5.7870   -4.1500    2.4900 hn        1 MBQ      0.331800
     30 H2          4.7600   -5.3860    2.5100 hn        1 MBQ      0.331800
     31 HA          2.9110   -3.9720    2.0200 h1        1 MBQ      0.047700
     32 HB2         4.8300   -1.8830    2.6060 hc        1 MBQ      0.056700
     33 HB3         4.6290   -1.8620    0.8070 hc        1 MBQ      0.056700
     34 HQ2         3.3750    0.4000    4.4230 ho        1 MBQ      0.402000
     35 HQ3         1.2710    0.9220    3.8100 ha        1 MBQ      0.119000
     36 HQ4        -0.8130    1.0880    2.9880 ho        1 MBQ      0.412000
     37 HQ6         1.9830   -2.5380    0.2500 ha        1 MBQ      0.234000
     38 HQ5        -1.4150   -1.2010    0.6120 hn        1 MBQ      0.426800
     39 HAC         1.5520   -0.5050   -1.2200 ha        1 MBQ      0.173000
     40 HAB         0.5550   -1.9320   -3.7230 h4        1 MBQ     -0.018800
     41 HAE1       -1.6580   -3.0770   -1.6750 h1        1 MBQ      0.060200
     42 HAE2       -1.4440   -1.8070   -2.9900 h1        1 MBQ      0.060200
     43 HAM        -3.1580   -3.2870   -3.3190 ha        1 MBQ      0.145500
     44 HAL        -5.3940   -3.9020   -4.1800 ha        1 MBQ      0.128000
     45 HAK3       -8.2940   -3.5120   -2.7630 hc        1 MBQ      0.037700
     46 HAK2       -8.4390   -1.9210   -3.6180 hc        1 MBQ      0.037700
     47 HAK1       -7.7160   -3.3470   -4.4730 hc        1 MBQ      0.037700
     48 HAI        -7.2260   -0.8970   -1.6720 ha        1 MBQ      0.128000
     49 HAH        -4.9720   -0.2610   -0.7880 ha        1 MBQ      0.145500
@<TRIPOS>BOND
     1    1    2 1   
     2    1   29 1   
     3    1   30 1   
     4    2    3 1   
     5    2   26 1   
     6    2   31 1   
     7    3    4 1   
     8    3   32 1   
     9    3   33 1   
    10    4    5 ar  
    11    4   11 ar  
    12    5    6 1   
    13    5    7 ar  
    14    6   34 1   
    15    7    8 ar  
    16    7   35 1   
    17    8    9 1   
    18    8   10 ar  
    19    9   36 1   
    20   10   11 ar  
    21   10   12 1   
    22   11   37 1   
    23   12   13 1   
    24   12   38 1   
    25   13   14 2   
    26   13   17 1   
    27   14   15 1   
    28   14   39 1   
    29   15   16 2   
    30   15   40 1   
    31   17   18 1   
    32   17   41 1   
    33   17   42 1   
    34   18   19 1   
    35   19   20 ar  
    36   19   25 ar  
    37   20   21 ar  
    38   20   43 1   
    39   21   22 ar  
    40   21   44 1   
    41   22   23 1   
    42   22   24 ar  
    43   23   45 1   
    44   23   46 1   
    45   23   47 1   
    46   24   25 ar  
    47   24   48 1   
    48   25   49 1   
    49   26   27 1   
    50   26   28 1   
@<TRIPOS>SUBSTRUCTURE
     1 MBQ         1 TEMP              0 ****  ****    0 ROOT
