@<TRIPOS>MOLECULE
MBR
    5     4     1     0     0
SMALL
bcc


@<TRIPOS>ATOM
      1 C1         -0.0000    0.5560    0.0000 c3        1 MBR      0.055500
      2 BR2        -1.8220   -0.0050   -0.0370 br        1 MBR     -0.062400
      3 BR1         0.8780   -0.0050    1.5970 br        1 MBR     -0.062400
      4 BR3         0.9430   -0.0050   -1.5590 br        1 MBR     -0.062400
      5 H1         -0.0000    1.6690    0.0000 h3        1 MBR      0.132700
@<TRIPOS>BOND
     1    1    2 1   
     2    1    3 1   
     3    1    4 1   
     4    1    5 1   
@<TRIPOS>SUBSTRUCTURE
     1 MBR         1 TEMP              0 ****  ****    0 ROOT
