@<TRIPOS>MOLECULE
MBR
    5     4     1     0     0
SMALL
bcc


@<TRIPOS>ATOM
      1 C1          0.0200    0.0510    0.0290 c3        1 MBR      0.055500
      2 Br2         1.9250   -0.0280   -0.0080 br        1 MBR     -0.062400
      3 Br1        -0.6540   -0.0200    1.8110 br        1 MBR     -0.062400
      4 Br3        -0.6410    1.5690   -0.9160 br        1 MBR     -0.062400
      5 H1         -0.3550   -0.8530   -0.4990 h3        1 MBR      0.132700
@<TRIPOS>BOND
     1    1    2 1   
     2    1    3 1   
     3    1    4 1   
     4    1    5 1   
@<TRIPOS>SUBSTRUCTURE
     1 MBR         1 TEMP              0 ****  ****    0 ROOT
