@<TRIPOS>MOLECULE
MBR
    5     4     1     0     0
SMALL
bcc


@<TRIPOS>ATOM
      1 C1          0.0210    0.0500    0.0290 c3        1 MBR      0.055500
      2 BR2         1.9260   -0.0200   -0.0120 br        1 MBR     -0.062400
      3 BR1        -0.6490   -0.0150    1.8130 br        1 MBR     -0.062400
      4 BR3        -0.6500    1.5620   -0.9200 br        1 MBR     -0.062400
      5 H1         -0.3520   -0.8570   -0.4940 h3        1 MBR      0.132700
@<TRIPOS>BOND
     1    1    2 1   
     2    1    3 1   
     3    1    4 1   
     4    1    5 1   
@<TRIPOS>SUBSTRUCTURE
     1 MBR         1 TEMP              0 ****  ****    0 ROOT
