@<TRIPOS>MOLECULE
MBS
   49    50     1     0     0
SMALL
bcc


@<TRIPOS>ATOM
      1 C5          0.0740    1.0920    1.0220 c3        1 MBS      0.115700
      2 O6          1.4500    1.0820    1.3620 os        1 MBS     -0.425600
      3 C16         1.9720   -0.2510    1.4460 c3        1 MBS      0.208500
      4 C12         3.3620   -0.1660    1.8020 c1        1 MBS     -0.127100
      5 C4          4.5180   -0.1000    2.1040 c1        1 MBS     -0.131100
      6 C3          5.9020   -0.0380    2.4630 c3        1 MBS     -0.011300
      7 C2          6.2130    0.9690    3.5700 c3        1 MBS     -0.056500
      8 C1          6.0510    0.2780    5.0070 c         1 MBS      0.937600
      9 O2          6.6130   -0.8210    5.1410 o         1 MBS     -0.771800
     10 O1          5.3910    0.9470    5.8500 o         1 MBS     -0.771800
     11 N1          5.3900    2.2140    3.5050 ny        1 MBS     -0.717900
     12 S11         6.3100    3.7720    3.6440 sy        1 MBS      1.464200
     13 O3          6.0190    4.4070    2.4330 o         1 MBS     -0.601800
     14 O4          7.6360    3.4530    3.8970 o         1 MBS     -0.601800
     15 C21         5.5240    4.4400    4.8970 ca        1 MBS     -0.511500
     16 C22         5.5710    3.8880    6.1920 ca        1 MBS      0.016500
     17 C23         4.9490    4.5190    7.2630 ca        1 MBS     -0.161000
     18 C24         4.2520    5.7220    7.0770 cp        1 MBS      0.091000
     19 C25         4.1870    6.2740    5.7820 ca        1 MBS     -0.161000
     20 C26         4.8060    5.6430    4.7200 ca        1 MBS      0.016500
     21 C6          3.6030    6.3890    8.2000 cp        1 MBS     -0.119000
     22 C32         4.1980    6.3740    9.4730 ca        1 MBS     -0.064500
     23 C33         3.5930    7.0080   10.5480 ca        1 MBS     -0.185500
     24 C34         2.3610    7.6650   10.3570 ca        1 MBS      0.150100
     25 C35         1.7520    7.6840    9.0950 ca        1 MBS     -0.185500
     26 C36         2.3800    7.0490    8.0260 ca        1 MBS     -0.064500
     27 O5          1.8410    8.2600   11.4850 os        1 MBS     -0.319900
     28 C7          0.5870    8.9190   11.3330 c3        1 MBS      0.110700
     29 H51        -0.1950    2.1770    0.9890 h1        1 MBS      0.036700
     30 H52        -0.0900    0.6170    0.0230 h1        1 MBS      0.036700
     31 H53        -0.5290    0.5610    1.8000 h1        1 MBS      0.036700
     32 H161        1.8520   -0.7610    0.4490 h1        1 MBS      0.053700
     33 H162        1.4010   -0.8260    2.2300 h1        1 MBS      0.053700
     34 H31         6.5100    0.2030    1.5460 hc        1 MBS      0.097200
     35 H32         6.2470   -1.0470    2.8490 hc        1 MBS      0.097200
     36 H21         7.3020    1.2550    3.4910 hx        1 MBS      0.110700
     37 HN1         4.8240    2.2010    2.6540 hn        1 MBS      0.471300
     38 H221        6.0840    2.9160    6.3640 ha        1 MBS      0.182500
     39 H231        4.9900    4.0520    8.2610 ha        1 MBS      0.158500
     40 H251        3.6480    7.2210    5.6200 ha        1 MBS      0.158500
     41 H261        4.7490    6.0880    3.7090 ha        1 MBS      0.182500
     42 H321        5.1630    5.8620    9.6200 ha        1 MBS      0.140500
     43 H331        4.0540    7.0050   11.5460 ha        1 MBS      0.151500
     44 H351        0.7890    8.1890    8.9380 ha        1 MBS      0.151500
     45 H361        1.8960    7.0580    7.0370 ha        1 MBS      0.140500
     46 H71         0.3730    9.3060   12.3620 h1        1 MBS      0.049033
     47 H72        -0.2010    8.1960   11.0110 h1        1 MBS      0.049033
     48 H73         0.6710    9.7610   10.6040 h1        1 MBS      0.049033
     49 H12         4.7320    2.1190    4.3110 hn        1 MBS      0.471300
@<TRIPOS>BOND
     1    1    2 1   
     2    1   29 1   
     3    1   30 1   
     4    1   31 1   
     5    2    3 1   
     6    3    4 1   
     7    3   32 1   
     8    3   33 1   
     9    4    5 3   
    10    5    6 1   
    11    6    7 1   
    12    6   34 1   
    13    6   35 1   
    14    7    8 1   
    15    7   11 1   
    16    7   36 1   
    17    8    9 1   
    18    8   10 1   
    19   11   12 1   
    20   11   37 1   
    21   11   49 1   
    22   12   13 2   
    23   12   14 2   
    24   12   15 1   
    25   15   16 ar  
    26   15   20 ar  
    27   16   17 ar  
    28   16   38 1   
    29   17   18 ar  
    30   17   39 1   
    31   18   19 ar  
    32   18   21 1   
    33   19   20 ar  
    34   19   40 1   
    35   20   41 1   
    36   21   22 ar  
    37   21   26 ar  
    38   22   23 ar  
    39   22   42 1   
    40   23   24 ar  
    41   23   43 1   
    42   24   25 ar  
    43   24   27 1   
    44   25   26 ar  
    45   25   44 1   
    46   26   45 1   
    47   27   28 1   
    48   28   46 1   
    49   28   47 1   
    50   28   48 1   
@<TRIPOS>SUBSTRUCTURE
     1 MBS         1 TEMP              0 ****  ****    0 ROOT
