@<TRIPOS>MOLECULE
MBS
   49    50     1     0     0
SMALL
bcc


@<TRIPOS>ATOM
      1 C5          0.6290   -0.1240    1.0630 c3        1 MBS      0.110700
      2 O6          0.8720    0.1250    2.4390 os        1 MBS     -0.427600
      3 C16         1.8010    1.1790    2.6730 c3        1 MBS      0.204500
      4 C12         3.1520    0.8430    2.3070 c1        1 MBS     -0.177100
      5 C4          4.2890    0.5890    2.0230 c1        1 MBS     -0.133100
      6 C3          5.6370    0.3260    1.6240 c3        1 MBS     -0.018300
      7 C2          6.4380   -0.5270    2.6010 c3        1 MBS     -0.062500
      8 C1          7.8630   -0.7990    1.8860 c         1 MBS      0.942600
      9 O2          8.5520    0.2170    1.7100 o         1 MBS     -0.752300
     10 O1          8.0720   -2.0020    1.5890 o         1 MBS     -0.752300
     11 N1          5.7870   -1.8230    2.9430 n4        1 MBS     -0.718900
     12 S11         5.8960   -2.3150    4.6820 sy        1 MBS      1.465200
     13 O3          5.7530   -3.7000    4.6080 o         1 MBS     -0.586800
     14 O4          7.0370   -1.7600    5.2370 o         1 MBS     -0.586800
     15 C21         4.5350   -1.5900    5.2260 ca        1 MBS     -0.492500
     16 C22         3.2700   -2.1770    5.0370 ca        1 MBS      0.006000
     17 C23         2.1170   -1.5630    5.4980 ca        1 MBS     -0.151500
     18 C24         2.1920   -0.3340    6.1800 cp        1 MBS      0.087000
     19 C25         3.4530    0.2410    6.4100 ca        1 MBS     -0.151500
     20 C26         4.6000   -0.3740    5.9310 ca        1 MBS      0.006000
     21 C6          0.9760    0.3350    6.6250 cp        1 MBS     -0.129000
     22 C32         0.9130    0.9290    7.8960 ca        1 MBS     -0.068000
     23 C33        -0.2460    1.5600    8.3250 ca        1 MBS     -0.185500
     24 C34        -1.3630    1.6090    7.4670 ca        1 MBS      0.151100
     25 C35        -1.3090    1.0310    6.1920 ca        1 MBS     -0.185500
     26 C36        -0.1410    0.3940    5.7800 ca        1 MBS     -0.068000
     27 O5         -2.4610    2.2590    7.9840 os        1 MBS     -0.319900
     28 C7         -3.6130    2.3220    7.1490 c3        1 MBS      0.110700
     29 H51        -0.0920   -0.9790    1.0590 h1        1 MBS      0.039700
     30 H52         0.1760    0.7750    0.5780 h1        1 MBS      0.039700
     31 H53         1.5770   -0.4040    0.5410 h1        1 MBS      0.039700
     32 H161        1.4780    2.1070    2.1220 h1        1 MBS      0.070200
     33 H162        1.7250    1.3510    3.7870 h1        1 MBS      0.070200
     34 H31         6.2120    1.2940    1.5140 hc        1 MBS      0.106200
     35 H32         5.6370   -0.1670    0.6090 hc        1 MBS      0.106200
     36 H21         6.6290    0.0340    3.5560 hx        1 MBS      0.090700
     37 HN1         6.3090   -2.5260    2.3610 hn        1 MBS      0.465800
     38 H221        3.2010   -3.1530    4.5230 ha        1 MBS      0.160000
     39 H231        1.1350   -2.0320    5.3290 ha        1 MBS      0.159000
     40 H251        3.5270    1.1940    6.9580 ha        1 MBS      0.159000
     41 H261        5.5880    0.0940    6.1050 ha        1 MBS      0.160000
     42 H321        1.7870    0.8850    8.5640 ha        1 MBS      0.148500
     43 H331       -0.3090    2.0210    9.3220 ha        1 MBS      0.152000
     44 H351       -2.1720    1.0720    5.5130 ha        1 MBS      0.152000
     45 H361       -0.0880   -0.0480    4.7690 ha        1 MBS      0.148500
     46 H71        -3.9840    1.2950    6.9120 h1        1 MBS      0.049700
     47 H72        -3.3880    2.8850    6.2110 h1        1 MBS      0.049700
     48 H73        -4.3560    2.8770    7.7760 h1        1 MBS      0.049700
     49 H12         4.8250   -1.8120    2.6120 hn        1 MBS      0.465800
@<TRIPOS>BOND
     1    1    2 1   
     2    1   29 1   
     3    1   30 1   
     4    1   31 1   
     5    2    3 1   
     6    3    4 1   
     7    3   32 1   
     8    3   33 1   
     9    4    5 3   
    10    5    6 1   
    11    6    7 1   
    12    6   34 1   
    13    6   35 1   
    14    7    8 1   
    15    7   11 1   
    16    7   36 1   
    17    8    9 1   
    18    8   10 1   
    19   11   12 1   
    20   11   37 1   
    21   11   49 1   
    22   12   13 2   
    23   12   14 2   
    24   12   15 1   
    25   15   16 ar  
    26   15   20 ar  
    27   16   17 ar  
    28   16   38 1   
    29   17   18 ar  
    30   17   39 1   
    31   18   19 ar  
    32   18   21 1   
    33   19   20 ar  
    34   19   40 1   
    35   20   41 1   
    36   21   22 ar  
    37   21   26 ar  
    38   22   23 ar  
    39   22   42 1   
    40   23   24 ar  
    41   23   43 1   
    42   24   25 ar  
    43   24   27 1   
    44   25   26 ar  
    45   25   44 1   
    46   26   45 1   
    47   27   28 1   
    48   28   46 1   
    49   28   47 1   
    50   28   48 1   
@<TRIPOS>SUBSTRUCTURE
     1 MBS         1 TEMP              0 ****  ****    0 ROOT
