@<TRIPOS>MOLECULE
MBS
   48    49     1     0     0
SMALL
bcc


@<TRIPOS>ATOM
      1 C5          4.3350    1.0380    2.0920 c3        1 MBS      0.118700
      2 O6          3.9900    0.3920    0.8830 os        1 MBS     -0.410600
      3 C16         3.0090    1.1330    0.1400 c3        1 MBS      0.229500
      4 C12         2.6180    0.3770   -1.0120 c1        1 MBS     -0.223100
      5 C4          2.2490   -0.2300   -1.9760 c1        1 MBS     -0.041100
      6 C3          1.8380   -0.9490   -3.1420 c3        1 MBS     -0.029300
      7 C2          0.3270   -0.9310   -3.4350 c3        1 MBS      0.105500
      8 C1          0.1580   -1.8550   -4.7100 c         1 MBS      0.914600
      9 O2         -0.1790   -3.0440   -4.4810 o         1 MBS     -0.815800
     10 O1          0.4060   -1.3410   -5.8310 o         1 MBS     -0.815800
     11 N1         -0.2100    0.3900   -3.6510 n3        1 MBS     -0.914100
     12 S11        -1.4420    1.0930   -2.9410 sy        1 MBS      1.514200
     13 O3         -1.3280    2.5040   -3.0900 o         1 MBS     -0.680300
     14 O4         -2.7040    0.5860   -3.3150 o         1 MBS     -0.680300
     15 C21        -1.2590    0.7330   -1.2780 ca        1 MBS     -0.328500
     16 C22        -0.6600    1.6550   -0.4160 ca        1 MBS     -0.014000
     17 C23        -0.5470    1.3940    0.9470 ca        1 MBS     -0.155000
     18 C24        -1.0420    0.1940    1.4770 cp        1 MBS      0.009000
     19 C25        -1.6570   -0.7290    0.6200 ca        1 MBS     -0.155000
     20 C26        -1.7590   -0.4580   -0.7430 ca        1 MBS     -0.014000
     21 C6         -0.9120   -0.0900    2.9050 cp        1 MBS     -0.067000
     22 C32        -1.9850   -0.6470    3.6200 ca        1 MBS     -0.083000
     23 C33        -1.8700   -0.9180    4.9770 ca        1 MBS     -0.182000
     24 C34        -0.6590   -0.6340    5.6350 ca        1 MBS      0.118100
     25 C35         0.4210   -0.0850    4.9360 ca        1 MBS     -0.182000
     26 C36         0.2850    0.1850    3.5750 ca        1 MBS     -0.083000
     27 O5         -0.6460   -0.9350    6.9860 os        1 MBS     -0.331900
     28 C7          0.5890   -0.7280    7.6590 c3        1 MBS      0.115700
     29 H51         5.1050    0.3730    2.5570 h1        1 MBS      0.024033
     30 H52         4.7610    2.0530    1.8960 h1        1 MBS      0.024033
     31 H53         3.4430    1.1290    2.7630 h1        1 MBS      0.024033
     32 H161        2.1130    1.3260    0.8000 h1        1 MBS      0.032700
     33 H162        3.4610    2.1200   -0.1630 h1        1 MBS      0.032700
     34 H31         2.3820   -0.5450   -4.0440 hc        1 MBS      0.081700
     35 H32         2.1270   -2.0330   -3.0320 hc        1 MBS      0.081700
     36 H21        -0.2190   -1.4080   -2.5720 h1        1 MBS      0.047700
     37 HN1         0.1640    0.7730   -4.4960 hn        1 MBS      0.468800
     38 H221       -0.2810    2.6070   -0.8280 ha        1 MBS      0.158500
     39 H231       -0.0750    2.1320    1.6120 ha        1 MBS      0.131000
     40 H251       -2.0450   -1.6770    1.0220 ha        1 MBS      0.131000
     41 H261       -2.2500   -1.1880   -1.4120 ha        1 MBS      0.158500
     42 H321       -2.9290   -0.8680    3.0970 ha        1 MBS      0.141000
     43 H331       -2.7050   -1.3500    5.5440 ha        1 MBS      0.139000
     44 H351        1.3730    0.1320    5.4390 ha        1 MBS      0.139000
     45 H361        1.1370    0.6060    3.0160 ha        1 MBS      0.141000
     46 H71         0.3770   -1.0670    8.7050 h1        1 MBS      0.041367
     47 H72         1.3990   -1.3470    7.2020 h1        1 MBS      0.041367
     48 H73         0.8690    0.3530    7.6450 h1        1 MBS      0.041367
@<TRIPOS>BOND
     1    1    2 1   
     2    1   29 1   
     3    1   30 1   
     4    1   31 1   
     5    2    3 1   
     6    3    4 1   
     7    3   32 1   
     8    3   33 1   
     9    4    5 3   
    10    5    6 1   
    11    6    7 1   
    12    6   34 1   
    13    6   35 1   
    14    7    8 1   
    15    7   11 1   
    16    7   36 1   
    17    8    9 1   
    18    8   10 1   
    19   11   12 1   
    20   11   37 1   
    21   12   13 2   
    22   12   14 2   
    23   12   15 1   
    24   15   16 ar  
    25   15   20 ar  
    26   16   17 ar  
    27   16   38 1   
    28   17   18 ar  
    29   17   39 1   
    30   18   19 ar  
    31   18   21 1   
    32   19   20 ar  
    33   19   40 1   
    34   20   41 1   
    35   21   22 ar  
    36   21   26 ar  
    37   22   23 ar  
    38   22   42 1   
    39   23   24 ar  
    40   23   43 1   
    41   24   25 ar  
    42   24   27 1   
    43   25   26 ar  
    44   25   44 1   
    45   26   45 1   
    46   27   28 1   
    47   28   46 1   
    48   28   47 1   
    49   28   48 1   
@<TRIPOS>SUBSTRUCTURE
     1 MBS         1 TEMP              0 ****  ****    0 ROOT
