@<TRIPOS>MOLECULE
MBS
   49    50     1     0     0
SMALL
bcc


@<TRIPOS>ATOM
      1 C5          0.8780   -2.3760    0.8930 c3        1 MBS      0.115700
      2 O6          1.8040   -1.3780    1.2900 os        1 MBS     -0.432600
      3 C16         2.5300   -0.8440    0.1730 c3        1 MBS      0.210500
      4 C12         3.5470    0.0370    0.6780 c1        1 MBS     -0.138100
      5 C4          4.4050    0.7590    1.0980 c1        1 MBS     -0.138100
      6 C3          5.4150    1.6410    1.6010 c3        1 MBS     -0.015300
      7 C2          5.8670    1.2710    3.0100 c3        1 MBS     -0.053500
      8 C1          6.8500    2.4270    3.5420 c         1 MBS      0.931600
      9 O2          6.3900    3.5790    3.4700 o         1 MBS     -0.757300
     10 O1          7.9550    2.0190    3.9840 o         1 MBS     -0.757300
     11 N1          6.5350   -0.0590    3.0940 n4        1 MBS     -0.721900
     12 S11         5.7710   -1.4250    4.0170 sy        1 MBS      1.452200
     13 O3          5.3820   -2.3000    3.0010 o         1 MBS     -0.603800
     14 O4          6.8020   -1.8390    4.8620 o         1 MBS     -0.603800
     15 C21         4.5350   -0.7480    4.8110 ca        1 MBS     -0.499500
     16 C22         3.2360   -0.7180    4.2660 ca        1 MBS      0.019000
     17 C23         2.1710   -0.1910    4.9800 ca        1 MBS     -0.160000
     18 C24         2.3650    0.3330    6.2700 cp        1 MBS      0.098000
     19 C25         3.6580    0.3090    6.8240 ca        1 MBS     -0.160000
     20 C26         4.7180   -0.2170    6.1050 ca        1 MBS      0.019000
     21 C6          1.2480    0.8960    7.0180 cp        1 MBS     -0.122000
     22 C32         1.1580    0.7110    8.4090 ca        1 MBS     -0.063000
     23 C33         0.1000    1.2430    9.1290 ca        1 MBS     -0.185500
     24 C34        -0.8890    1.9870    8.4540 ca        1 MBS      0.152100
     25 C35        -0.8110    2.1850    7.0700 ca        1 MBS     -0.185500
     26 C36         0.2540    1.6350    6.3620 ca        1 MBS     -0.063000
     27 O5         -1.8960    2.4750    9.2580 os        1 MBS     -0.320900
     28 C7         -2.8930    3.2640    8.6160 c3        1 MBS      0.110700
     29 H51         0.3840   -2.6890    1.8460 h1        1 MBS      0.038033
     30 H52         0.1260   -1.9540    0.1810 h1        1 MBS      0.038033
     31 H53         1.4070   -3.2410    0.4230 h1        1 MBS      0.038033
     32 H161        2.9970   -1.6880   -0.4100 h1        1 MBS      0.053700
     33 H162        1.8150   -0.2820   -0.4920 h1        1 MBS      0.053700
     34 H31         6.2940    1.6670    0.8980 hc        1 MBS      0.104700
     35 H32         5.0190    2.6990    1.6690 hc        1 MBS      0.104700
     36 H21         4.9810    1.2720    3.7030 hx        1 MBS      0.093700
     37 HN1         7.4690    0.1630    3.5330 hn        1 MBS      0.469800
     38 H221        3.0590   -1.1230    3.2470 ha        1 MBS      0.176000
     39 H231        1.1650   -0.1870    4.5310 ha        1 MBS      0.159500
     40 H251        3.8310    0.7300    7.8270 ha        1 MBS      0.159500
     41 H261        5.7310   -0.2250    6.5510 ha        1 MBS      0.176000
     42 H321        1.9310    0.1280    8.9340 ha        1 MBS      0.141500
     43 H331        0.0180    1.0980   10.2160 ha        1 MBS      0.152000
     44 H351       -1.5730    2.7690    6.5370 ha        1 MBS      0.152000
     45 H361        0.3210    1.7980    5.2740 ha        1 MBS      0.141500
     46 H71        -3.5720    3.5540    9.4570 h1        1 MBS      0.049700
     47 H72        -2.4370    4.1690    8.1460 h1        1 MBS      0.049700
     48 H73        -3.4420    2.6590    7.8550 h1        1 MBS      0.049700
     49 H12         6.7320   -0.3690    2.1420 hn        1 MBS      0.469800
@<TRIPOS>BOND
     1    1    2 1   
     2    1   29 1   
     3    1   30 1   
     4    1   31 1   
     5    2    3 1   
     6    3    4 1   
     7    3   32 1   
     8    3   33 1   
     9    4    5 3   
    10    5    6 1   
    11    6    7 1   
    12    6   34 1   
    13    6   35 1   
    14    7    8 1   
    15    7   11 1   
    16    7   36 1   
    17    8    9 1   
    18    8   10 1   
    19   11   12 1   
    20   11   37 1   
    21   11   49 1   
    22   12   13 2   
    23   12   14 2   
    24   12   15 1   
    25   15   16 ar  
    26   15   20 ar  
    27   16   17 ar  
    28   16   38 1   
    29   17   18 ar  
    30   17   39 1   
    31   18   19 ar  
    32   18   21 1   
    33   19   20 ar  
    34   19   40 1   
    35   20   41 1   
    36   21   22 ar  
    37   21   26 ar  
    38   22   23 ar  
    39   22   42 1   
    40   23   24 ar  
    41   23   43 1   
    42   24   25 ar  
    43   24   27 1   
    44   25   26 ar  
    45   25   44 1   
    46   26   45 1   
    47   27   28 1   
    48   28   46 1   
    49   28   47 1   
    50   28   48 1   
@<TRIPOS>SUBSTRUCTURE
     1 MBS         1 TEMP              0 ****  ****    0 ROOT
