@<TRIPOS>MOLECULE
MBT
   38    40     1     0     0
SMALL
bcc


@<TRIPOS>ATOM
      1 C1         -0.1510    0.0010    0.0030 ca        1 MBT      0.312600
      2 C2          1.2860    0.0000    0.0850 ca        1 MBT     -0.049400
      3 S3          2.0850   -0.0010    1.5390 ss        1 MBT      0.171200
      4 C4          0.8850    0.0000    2.6850 cc        1 MBT     -0.049400
      5 C5         -0.5100    0.0020    2.3300 cc        1 MBT      0.357100
      6 N6         -0.9760    0.0020    1.0670 nd        1 MBT     -0.525000
      7 C7          1.2840    0.0000    4.0140 cd        1 MBT     -0.337600
      8 C8          0.3400    0.0010    5.0780 cd        1 MBT      0.434900
      9 C9         -1.0600    0.0020    4.7170 cd        1 MBT     -0.282600
     10 C10        -1.4620    0.0020    3.4180 cc        1 MBT     -0.104800
     11 C11         2.0680   -0.0000   -1.0620 ca        1 MBT     -0.251000
     12 C12         1.4880    0.0010   -2.3610 ca        1 MBT      0.288600
     13 C13         0.0440    0.0010   -2.4390 ca        1 MBT     -0.196000
     14 C14        -0.7310    0.0010   -1.3210 ca        1 MBT     -0.060300
     15 N15         0.7320    0.0020    6.3850 nh        1 MBT     -0.241100
     16 C16         2.1310    0.0010    6.7310 c3        1 MBT      0.003100
     17 C17        -0.2440    0.0030    7.4460 c3        1 MBT      0.003100
     18 N18         2.2560    0.0010   -3.4890 nh        1 MBT     -0.623000
     19 C19         3.6940   -0.0000   -3.3970 c3        1 MBT      0.180600
     20 C20         1.6440    0.0030   -4.7950 c3        1 MBT      0.180600
     21 H191        4.1480    0.0000   -4.4230 h1        1 MBT      0.065367
     22 H192        4.0480    0.9150   -2.8480 h1        1 MBT      0.065367
     23 H193        4.0470   -0.9160   -2.8490 h1        1 MBT      0.065367
     24 H201        1.0060    0.9190   -4.9240 h1        1 MBT      0.065367
     25 H202        1.0060   -0.9130   -4.9260 h1        1 MBT      0.065367
     26 H203        2.4350    0.0040   -5.5910 h1        1 MBT      0.065367
     27 H13        -0.4460    0.0010   -3.4280 ha        1 MBT      0.165000
     28 H14        -1.8330    0.0020   -1.4090 ha        1 MBT      0.176000
     29 H10        -2.5400    0.0030    3.1700 ha        1 MBT      0.176000
     30 H9         -1.8250    0.0030    5.5120 ha        1 MBT      0.165000
     31 H7          2.3650   -0.0010    4.2360 ha        1 MBT      0.160000
     32 H11         3.1650   -0.0010   -0.9480 ha        1 MBT      0.160000
     33 H161        2.6350    0.9150    6.3140 h1        1 MBT      0.065367
     34 H162        2.2550    0.0020    7.8460 h1        1 MBT      0.065367
     35 H163        2.6330   -0.9160    6.3150 h1        1 MBT      0.065367
     36 H171       -0.8930   -0.9120    7.3780 h1        1 MBT      0.065367
     37 H172       -0.8910    0.9200    7.3770 h1        1 MBT      0.065367
     38 H173        0.2700    0.0030    8.4440 h1        1 MBT      0.065367
@<TRIPOS>BOND
     1    1    2 ar  
     2    1    6 1   
     3    1   14 ar  
     4    2    3 1   
     5    2   11 ar  
     6    3    4 1   
     7    4    5 1   
     8    4    7 2   
     9    5    6 2   
    10    5   10 1   
    11    7    8 1   
    12    7   31 1   
    13    8    9 1   
    14    8   15 2   
    15    9   10 2   
    16    9   30 1   
    17   10   29 1   
    18   11   12 ar  
    19   11   32 1   
    20   12   13 ar  
    21   12   18 1   
    22   13   14 ar  
    23   13   27 1   
    24   14   28 1   
    25   15   16 1   
    26   15   17 1   
    27   16   33 1   
    28   16   34 1   
    29   16   35 1   
    30   17   36 1   
    31   17   37 1   
    32   17   38 1   
    33   18   19 1   
    34   18   20 1   
    35   19   21 1   
    36   19   22 1   
    37   19   23 1   
    38   20   24 1   
    39   20   25 1   
    40   20   26 1   
@<TRIPOS>SUBSTRUCTURE
     1 MBT         1 TEMP              0 ****  ****    0 ROOT
