@<TRIPOS>MOLECULE
MBT
   38    40     1     0     0
SMALL
bcc


@<TRIPOS>ATOM
      1 C1         -1.1770    1.2580   -0.0030 ca        1 MBT      0.312600
      2 C2         -1.3160   -0.1750   -0.0030 ca        1 MBT     -0.049400
      3 S3         -0.0000   -1.1860   -0.0000 ss        1 MBT      0.171200
      4 C4          1.3160   -0.1750    0.0030 cc        1 MBT     -0.049400
      5 C5          1.1770    1.2580    0.0030 cc        1 MBT      0.357100
      6 N6         -0.0000    1.9120   -0.0000 nd        1 MBT     -0.525000
      7 C7          2.5680   -0.7720    0.0060 cd        1 MBT     -0.337600
      8 C8          3.7630   -0.0010    0.0090 cd        1 MBT      0.434900
      9 C9          3.6200    1.4380    0.0080 cd        1 MBT     -0.282600
     10 C10         2.3980    2.0330    0.0050 cc        1 MBT     -0.104800
     11 C11        -2.5680   -0.7720   -0.0060 ca        1 MBT     -0.251000
     12 C12        -3.7630   -0.0010   -0.0090 ca        1 MBT      0.288600
     13 C13        -3.6200    1.4380   -0.0090 ca        1 MBT     -0.196000
     14 C14        -2.3980    2.0330   -0.0060 ca        1 MBT     -0.060300
     15 N15         4.9950   -0.5880    0.0120 nh        1 MBT     -0.241100
     16 C16         5.1230   -2.0230    0.0120 c3        1 MBT      0.003100
     17 C17         6.1930    0.2150    0.0140 c3        1 MBT      0.003100
     18 N18        -4.9950   -0.5880   -0.0120 nh        1 MBT     -0.623000
     19 C19        -5.1230   -2.0230   -0.0120 c3        1 MBT      0.180600
     20 C20        -6.1930    0.2150   -0.0150 c3        1 MBT      0.180600
     21 H191       -4.6380   -2.4560    0.9040 h1        1 MBT      0.065367
     22 H192       -6.2070   -2.3160   -0.0150 h1        1 MBT      0.065367
     23 H193       -4.6330   -2.4560   -0.9270 h1        1 MBT      0.065367
     24 H201       -6.2220    0.8660   -0.9310 h1        1 MBT      0.065367
     25 H202       -7.1010   -0.4450   -0.0170 h1        1 MBT      0.065367
     26 H203       -6.2260    0.8660    0.9010 h1        1 MBT      0.065367
     27 H13        -4.5230    2.0730   -0.0110 ha        1 MBT      0.165000
     28 H14        -2.3170    3.1360   -0.0060 ha        1 MBT      0.176000
     29 H10         2.3170    3.1360    0.0050 ha        1 MBT      0.176000
     30 H9          4.5230    2.0730    0.0100 ha        1 MBT      0.165000
     31 H7          2.6230   -1.8740    0.0060 ha        1 MBT      0.160000
     32 H11        -2.6230   -1.8740   -0.0060 ha        1 MBT      0.160000
     33 H161        4.6380   -2.4560   -0.9050 h1        1 MBT      0.065367
     34 H162        6.2070   -2.3160    0.0150 h1        1 MBT      0.065367
     35 H163        4.6330   -2.4560    0.9270 h1        1 MBT      0.065367
     36 H171        6.2220    0.8660    0.9300 h1        1 MBT      0.065367
     37 H172        7.1010   -0.4450    0.0160 h1        1 MBT      0.065367
     38 H173        6.2260    0.8660   -0.9020 h1        1 MBT      0.065367
@<TRIPOS>BOND
     1    1    2 ar  
     2    1    6 1   
     3    1   14 ar  
     4    2    3 1   
     5    2   11 ar  
     6    3    4 1   
     7    4    5 1   
     8    4    7 2   
     9    5    6 2   
    10    5   10 1   
    11    7    8 1   
    12    7   31 1   
    13    8    9 1   
    14    8   15 2   
    15    9   10 2   
    16    9   30 1   
    17   10   29 1   
    18   11   12 ar  
    19   11   32 1   
    20   12   13 ar  
    21   12   18 1   
    22   13   14 ar  
    23   13   27 1   
    24   14   28 1   
    25   15   16 1   
    26   15   17 1   
    27   16   33 1   
    28   16   34 1   
    29   16   35 1   
    30   17   36 1   
    31   17   37 1   
    32   17   38 1   
    33   18   19 1   
    34   18   20 1   
    35   19   21 1   
    36   19   22 1   
    37   19   23 1   
    38   20   24 1   
    39   20   25 1   
    40   20   26 1   
@<TRIPOS>SUBSTRUCTURE
     1 MBT         1 TEMP              0 ****  ****    0 ROOT
