@<TRIPOS>MOLECULE
MBT
   40    42     1     0     0
SMALL
bcc


@<TRIPOS>ATOM
      1 C1          0.3380    0.6250    0.0740 ca        1 MBT      0.185600
      2 C2          1.4550   -0.2850    0.1390 ca        1 MBT     -0.226400
      3 S3          2.0100   -0.9070    1.5290 ss        1 MBT      0.609200
      4 C4          1.0600   -0.2840    2.6840 ca        1 MBT     -0.226400
      5 C5         -0.0240    0.6260    2.4080 ca        1 MBT      0.185600
      6 N6         -0.3460    1.0420    1.1630 n2        1 MBT      0.002000
      7 C7          1.3190   -0.6620    4.0340 ca        1 MBT     -0.098000
      8 C8          0.5470   -0.1680    5.0690 ca        1 MBT      0.078600
      9 C9         -0.5320    0.7370    4.8000 ca        1 MBT     -0.093000
     10 C10        -0.8090    1.1210    3.5190 ca        1 MBT     -0.079300
     11 C11         2.1100   -0.6630   -1.0690 ca        1 MBT     -0.098000
     12 C12         1.6870   -0.1690   -2.2890 ca        1 MBT      0.078600
     13 C13         0.5780    0.7350   -2.3600 ca        1 MBT     -0.093000
     14 C14        -0.0740    1.1200   -1.2220 ca        1 MBT     -0.079300
     15 N15         0.8220   -0.5640    6.4640 n4        1 MBT     -0.570800
     16 C16         1.1960    0.6190    7.3000 c3        1 MBT      0.082100
     17 C17        -0.3440   -1.2880    7.0620 c3        1 MBT      0.082100
     18 N18         2.3720   -0.5660   -3.5350 n4        1 MBT     -0.570800
     19 C19         2.9820    0.6170   -4.2190 c3        1 MBT      0.082100
     20 C20         1.4420   -1.2900   -4.4570 c3        1 MBT      0.082100
     21 H191        3.5490    0.2520   -5.1220 hx        1 MBT      0.124367
     22 H192        3.6850    1.1370   -3.5150 hx        1 MBT      0.124367
     23 H193        2.1760    1.3260   -4.5490 hx        1 MBT      0.124367
     24 H201        0.6190   -0.6030   -4.7900 hx        1 MBT      0.124367
     25 H202        2.0280   -1.6320   -5.3570 hx        1 MBT      0.124367
     26 H203        1.0060   -2.1810   -3.9300 hx        1 MBT      0.124367
     27 H13         0.2390    1.1310   -3.3380 ha        1 MBT      0.205000
     28 H14        -0.9350    1.8220   -1.2760 ha        1 MBT      0.230000
     29 H10        -1.6460    1.8230    3.3090 ha        1 MBT      0.230000
     30 H9         -1.1510    1.1340    5.6300 ha        1 MBT      0.205000
     31 H7          2.1580   -1.3630    4.2210 ha        1 MBT      0.187000
     32 H11         2.9660   -1.3640   -0.9920 ha        1 MBT      0.187000
     33 H161        0.3290    1.3290    7.3700 hx        1 MBT      0.124367
     34 H162        2.0800    1.1390    6.8420 hx        1 MBT      0.124367
     35 H163        1.4640    0.2550    8.3320 hx        1 MBT      0.124367
     36 H171       -0.6000   -2.1780    6.4280 hx        1 MBT      0.124367
     37 H172       -1.2280   -0.5990    7.1300 hx        1 MBT      0.124367
     38 H173       -0.0580   -1.6290    8.0970 hx        1 MBT      0.124367
     39 H151        1.6260   -1.2130    6.4630 hn        1 MBT      0.467800
     40 H181        3.1380   -1.2160   -3.2900 hn        1 MBT      0.467800
@<TRIPOS>BOND
     1    1    2 ar  
     2    1    6 1   
     3    1   14 ar  
     4    2    3 1   
     5    2   11 ar  
     6    3    4 1   
     7    4    5 ar  
     8    4    7 ar  
     9    5    6 1   
    10    5   10 ar  
    11    7    8 ar  
    12    7   31 1   
    13    8    9 ar  
    14    8   15 1   
    15    9   10 ar  
    16    9   30 1   
    17   10   29 1   
    18   11   12 ar  
    19   11   32 1   
    20   12   13 ar  
    21   12   18 1   
    22   13   14 ar  
    23   13   27 1   
    24   14   28 1   
    25   15   16 1   
    26   15   17 1   
    27   15   39 1   
    28   16   33 1   
    29   16   34 1   
    30   16   35 1   
    31   17   36 1   
    32   17   37 1   
    33   17   38 1   
    34   18   19 1   
    35   18   20 1   
    36   18   40 1   
    37   19   21 1   
    38   19   22 1   
    39   19   23 1   
    40   20   24 1   
    41   20   25 1   
    42   20   26 1   
@<TRIPOS>SUBSTRUCTURE
     1 MBT         1 TEMP              0 ****  ****    0 ROOT
