@<TRIPOS>MOLECULE
MBV
   79    82     1     0     0
SMALL
bcc


@<TRIPOS>ATOM
      1 O1         17.5210  -12.0040    1.1130 o         1 MBV     -0.633500
      2 C1         16.3460  -12.2300    1.4350 c         1 MBV      0.697700
      3 N1         15.8140  -12.0370    2.7230 n         1 MBV     -0.492100
      4 C4         14.4350  -12.3490    2.7280 cc        1 MBV      0.060600
      5 C2         15.2180  -12.7350    0.5730 cd        1 MBV     -0.214400
      6 C3         14.0910  -12.8100    1.3400 cc        1 MBV     -0.006200
      7 C1A        15.4200  -13.0610   -0.8380 c3        1 MBV     -0.025900
      8 C2A        12.7420  -13.2450    0.9450 c3        1 MBV     -0.069200
      9 C5         13.5440  -12.2290    3.7350 cf        1 MBV     -0.236600
     10 C6         13.8130  -11.7520    5.0700 cd        1 MBV      0.497900
     11 N2         14.9920  -11.6310    5.6780 nc        1 MBV     -0.612300
     12 C9         14.7310  -11.0890    6.9770 cc        1 MBV      0.057600
     13 C7         12.6790  -11.3090    5.9540 cd        1 MBV     -0.180800
     14 C8         13.2560  -10.8830    7.1210 cc        1 MBV     -0.136200
     15 C1B        11.2630  -11.3910    5.5700 c3        1 MBV     -0.022200
     16 C6B        12.6340  -10.3340    8.3250 c3        1 MBV     -0.028900
     17 C10        15.6270  -10.7960    7.9490 cf        1 MBV     -0.003200
     18 C11        17.0390  -11.0080    7.9700 cd        1 MBV     -0.112100
     19 N3         17.7820  -11.7530    7.0540 na        1 MBV     -0.135100
     20 C14        19.1190  -11.7380    7.4430 cd        1 MBV     -0.082100
     21 C12        17.9290  -10.5230    8.9760 cc        1 MBV     -0.131300
     22 C13        19.2360  -10.9730    8.6420 cc        1 MBV     -0.098300
     23 C6C        17.5340   -9.7110   10.1290 c3        1 MBV     -0.018800
     24 C1C        20.5000  -10.7590    9.3690 c3        1 MBV     -0.005100
     25 C15        20.2190  -12.3830    6.7820 cf        1 MBV     -0.083200
     26 C16        20.1830  -13.5210    6.0590 cc        1 MBV     -0.022400
     27 N4         19.0570  -14.3500    5.7750 n         1 MBV     -0.479100
     28 C19        19.5100  -15.5270    5.1320 c         1 MBV      0.690700
     29 C17        21.3660  -14.1500    5.3980 cc        1 MBV      0.015800
     30 C18        20.9710  -15.3340    4.8400 cd        1 MBV     -0.228400
     31 C2D        22.7040  -13.5340    5.3920 c3        1 MBV     -0.068200
     32 C1D        21.7390  -16.3170    4.0780 c3        1 MBV     -0.022900
     33 O20        18.7930  -16.5060    4.8750 o         1 MBV     -0.640500
     34 C3A        12.5070  -14.7060    1.2540 c3        1 MBV     -0.073100
     35 C2B        10.8880  -10.4540    4.4360 c3        1 MBV     -0.194400
     36 C3B         9.9990  -11.1570    3.3990 c         1 MBV      0.908600
     37 O4B         8.9260  -10.5960    3.0450 o         1 MBV     -0.854800
     38 O5B        10.3950  -12.2690    2.9280 o         1 MBV     -0.854800
     39 C2C        21.4320   -9.7790    8.6780 c3        1 MBV     -0.194400
     40 C3C        22.8570  -10.3420    8.5650 c         1 MBV      0.909600
     41 O4C        23.0230  -11.4290    7.9280 o         1 MBV     -0.857300
     42 O5C        23.8060   -9.6980    9.0930 o         1 MBV     -0.857300
     43 C3D        22.8580  -12.5310    4.2720 c3        1 MBV     -0.076100
     44 HN1        16.3200  -11.7260    3.5100 hn        1 MBV      0.354500
     45 H1A1       14.5910  -12.6440   -1.4630 hc        1 MBV      0.041033
     46 H1A2       16.3930  -12.6420   -1.1980 hc        1 MBV      0.041033
     47 H1A3       15.4400  -14.1720   -0.9830 hc        1 MBV      0.041033
     48 H2A1       11.9560  -12.6300    1.4820 hc        1 MBV      0.088200
     49 H2A2       12.6110  -13.0710   -0.1580 hc        1 MBV      0.088200
     50 HC5        12.4700  -12.4670    3.5300 ha        1 MBV      0.225000
     51 H1B1       11.0440  -12.4510    5.2480 hc        1 MBV      0.052200
     52 H1B2       10.6160  -11.1770    6.4630 hc        1 MBV      0.052200
     53 H6B1       11.5230  -10.2720    8.2110 hc        1 MBV      0.036033
     54 H6B2       12.8620  -10.9770    9.2130 hc        1 MBV      0.036033
     55 H6B3       13.0250   -9.3060    8.5320 hc        1 MBV      0.036033
     56 H10        15.2390  -10.3290    8.8760 ha        1 MBV      0.131000
     57 HN3        17.4320  -12.1180    6.2030 hn        1 MBV      0.320700
     58 H6C1       18.4300   -9.3970   10.7200 hc        1 MBV      0.033033
     59 H6C2       16.9930   -8.7890    9.7950 hc        1 MBV      0.033033
     60 H6C3       16.8510  -10.2880   10.8030 hc        1 MBV      0.033033
     61 H1C1       20.2800  -10.4010   10.4090 hc        1 MBV      0.045200
     62 H1C2       21.0270  -11.7510    9.4630 hc        1 MBV      0.045200
     63 H15        21.2100  -11.8910    6.9750 ha        1 MBV      0.237000
     64 HN4        18.2600  -14.3530    6.3620 hn        1 MBV      0.319500
     65 H2D1       23.4770  -14.3420    5.2780 hc        1 MBV      0.085700
     66 H2D2       22.8970  -13.0130    6.3780 hc        1 MBV      0.085700
     67 H1D1       22.7440  -16.4810    4.5410 hc        1 MBV      0.039367
     68 H1D2       21.1920  -17.2930    4.0410 hc        1 MBV      0.039367
     69 H1D3       21.8940  -15.9610    3.0270 hc        1 MBV      0.039367
     70 H3A1       11.4750  -14.9910    0.9380 hc        1 MBV      0.031700
     71 H3A2       13.2420  -15.3540    0.7200 hc        1 MBV      0.031700
     72 H3A3       12.5990  -14.8870    2.3520 hc        1 MBV      0.031700
     73 H2B1       10.3560   -9.5570    4.8370 hc        1 MBV      0.033700
     74 H2B2       11.8070  -10.1000    3.9020 hc        1 MBV      0.033700
     75 H2C1       21.0720   -9.5580    7.6410 hc        1 MBV      0.031700
     76 H2C2       21.4600   -8.8150    9.2440 hc        1 MBV      0.031700
     77 H3D1       23.8840  -12.0910    4.3050 hc        1 MBV      0.033700
     78 H3D2       22.7020  -13.0120    3.2770 hc        1 MBV      0.033700
     79 H3D3       22.1160  -11.7040    4.3890 hc        1 MBV      0.033700
@<TRIPOS>BOND
     1    1    2 2   
     2    2    3 1   
     3    2    5 1   
     4    3    4 1   
     5    3   44 1   
     6    4    6 1   
     7    4    9 2   
     8    5    6 2   
     9    5    7 1   
    10    6    8 1   
    11    7   45 1   
    12    7   46 1   
    13    7   47 1   
    14    8   34 1   
    15    8   48 1   
    16    8   49 1   
    17    9   10 1   
    18    9   50 1   
    19   10   11 2   
    20   10   13 1   
    21   11   12 1   
    22   12   14 1   
    23   12   17 2   
    24   13   14 2   
    25   13   15 1   
    26   14   16 1   
    27   15   35 1   
    28   15   51 1   
    29   15   52 1   
    30   16   53 1   
    31   16   54 1   
    32   16   55 1   
    33   17   18 1   
    34   17   56 1   
    35   18   19 1   
    36   18   21 2   
    37   19   20 1   
    38   19   57 1   
    39   20   22 2   
    40   20   25 1   
    41   21   22 1   
    42   21   23 1   
    43   22   24 1   
    44   23   58 1   
    45   23   59 1   
    46   23   60 1   
    47   24   39 1   
    48   24   61 1   
    49   24   62 1   
    50   25   26 2   
    51   25   63 1   
    52   26   27 1   
    53   26   29 1   
    54   27   28 1   
    55   27   64 1   
    56   28   30 1   
    57   28   33 2   
    58   29   30 2   
    59   29   31 1   
    60   30   32 1   
    61   31   43 1   
    62   31   65 1   
    63   31   66 1   
    64   32   67 1   
    65   32   68 1   
    66   32   69 1   
    67   34   70 1   
    68   34   71 1   
    69   34   72 1   
    70   35   36 1   
    71   35   73 1   
    72   35   74 1   
    73   36   37 1   
    74   36   38 1   
    75   39   40 1   
    76   39   75 1   
    77   39   76 1   
    78   40   41 1   
    79   40   42 1   
    80   43   77 1   
    81   43   78 1   
    82   43   79 1   
@<TRIPOS>SUBSTRUCTURE
     1 MBV         1 TEMP              0 ****  ****    0 ROOT
