@<TRIPOS>MOLECULE
MBV
   79    73     1     0     0
SMALL
bcc


@<TRIPOS>ATOM
      1 O1         -0.8300   -4.1060    5.8970 o         1 MBV     -0.358000
      2 C1         -1.3890   -4.0640    4.8190 c1        1 MBV      0.337000
      3 N1         -0.7180   -3.7070    3.4420 n2        1 MBV     -0.337000
      4 C4         -1.8960   -3.2320    2.5360 c2        1 MBV      0.054000
      5 C2         -2.7880   -3.7810    4.6000 c2        1 MBV     -0.191000
      6 C3         -3.0560   -3.3350    3.3740 c2        1 MBV     -0.002000
      7 C1A        -3.6740   -3.3760    5.7670 c3        1 MBV     -0.148000
      8 C2A        -4.4160   -3.5840    2.7590 c3        1 MBV     -0.151000
      9 C5         -1.8370   -2.8150    1.2430 c1        1 MBV     -0.146000
     10 C6         -0.4930   -2.7750    0.5130 c1        1 MBV      0.035000
     11 N2         -0.1080   -1.5950   -0.2270 n1        1 MBV     -0.182000
     12 C9          0.6740   -1.9980   -1.4700 c1        1 MBV     -0.085000
     13 C7         -0.0110   -3.9410   -0.1630 c2        1 MBV     -0.091000
     14 C8          0.6910   -3.5440   -1.3500 c2        1 MBV     -0.130000
     15 C1B        -0.8350   -5.2150   -0.1600 c3        1 MBV     -0.105000
     16 C6B         1.9080   -4.3300   -1.8120 c3        1 MBV     -0.151000
     17 C10         1.2230   -1.2000   -2.4440 c1        1 MBV     -0.013000
     18 C11         1.0810    0.3330   -2.3580 c1        1 MBV     -0.060000
     19 N3          1.2800    1.0960   -1.2420 n2        1 MBV     -0.133000
     20 C14         1.0910    2.4090   -1.5860 c1        1 MBV     -0.060000
     21 C12         0.7660    1.1800   -3.4040 c1        1 MBV     -0.107500
     22 C13         0.7730    2.4560   -2.9290 c1        1 MBV     -0.107500
     23 C6C         0.5270    0.7670   -4.8430 c2        1 MBV     -0.144000
     24 C1C         0.4000    3.7030   -3.7140 c2        1 MBV     -0.089000
     25 C15         1.1010    3.5960   -0.6280 c1        1 MBV     -0.099000
     26 C16         2.2760    4.2430   -0.3510 c1        1 MBV     -0.025000
     27 N4          3.7070    3.9200   -0.9110 n2        1 MBV     -0.325000
     28 C19         4.6290    4.9960   -0.2350 c2        1 MBV      0.329000
     29 C17         2.4780    5.3750    0.5230 c2        1 MBV      0.016000
     30 C18         3.7320    5.7770    0.5840 c2        1 MBV     -0.205000
     31 C2D         1.3540    6.3630    0.7550 c3        1 MBV     -0.128000
     32 C1D         4.2500    6.4630    1.8370 c3        1 MBV     -0.145000
     33 O20         5.8280    5.1390   -0.3710 o         1 MBV     -0.362000
     34 C3A        -5.0950   -4.7360    3.4810 c3        1 MBV     -0.194000
     35 C2B        -0.0520   -6.3230    0.5210 c3        1 MBV     -0.223000
     36 C3B        -0.3980   -7.6550   -0.1210 c2        1 MBV      0.330000
     37 O4B        -1.6020   -8.0260   -0.1940 o         1 MBV     -0.590000
     38 O5B         0.5180   -8.4030   -0.5500 o         1 MBV     -0.590000
     39 C2C        -1.1010    3.9060   -3.6560 c3        1 MBV     -0.223000
     40 C3C        -1.4770    5.1310   -4.4660 c2        1 MBV      0.328000
     41 O4C        -1.6910    5.0260   -5.7030 o         1 MBV     -0.591000
     42 O5C        -1.6310    6.2390   -3.8940 o         1 MBV     -0.591000
     43 C3D         1.7510    7.7210    0.2030 c3        1 MBV     -0.203000
     44 HN1         0.1620   -3.7670    3.2220 hn        1 MBV      0.267000
     45 H1A1       -4.1120   -4.1710    6.1370 hc        1 MBV      0.080667
     46 H1A2       -3.1260   -2.9510    6.4620 hc        1 MBV      0.080667
     47 H1A3       -4.3540   -2.7440    5.4570 hc        1 MBV      0.080667
     48 H2A1       -4.3090   -3.8090    1.8150 hc        1 MBV      0.128000
     49 H2A2       -4.9650   -2.7760    2.8430 hc        1 MBV      0.128000
     50 HC5        -2.6510   -2.5410    0.7820 ha        1 MBV      0.228000
     51 H1B1       -1.0340   -5.4760   -1.0820 hc        1 MBV      0.091500
     52 H1B2       -1.6690   -5.0620    0.3230 hc        1 MBV      0.091500
     53 H6B1        1.8520   -5.2510   -1.4720 hc        1 MBV      0.076000
     54 H6B2        2.7160   -3.9070   -1.4710 hc        1 MBV      0.076000
     55 H6B3        1.9350   -4.3440   -2.7870 hc        1 MBV      0.076000
     56 H10         1.7040   -1.6040   -3.1940 ha        1 MBV      0.131000
     57 HN3         1.4990    0.7880   -0.4190 DU        1 MBV      0.271000
     58 H6C1       -0.1470    1.3560   -5.2450 ha        1 MBV      0.072333
     59 H6C2        0.2080   -0.1620   -4.8690 ha        1 MBV      0.072333
     60 H6C3        1.3680    0.8380   -5.3490 ha        1 MBV      0.072333
     61 H1C1        0.8480    4.4760   -3.3260 ha        1 MBV      0.082500
     62 H1C2        0.6800    3.5970   -4.6450 ha        1 MBV      0.082500
     63 H15         0.2660    3.8970   -0.2110 ha        1 MBV      0.241000
     64 HN4         3.8920    3.4580   -1.6800 hn        1 MBV      0.234000
     65 H2D1        1.1810    6.4390    1.7140 hc        1 MBV      0.104500
     66 H2D2        0.5470    6.0510    0.3010 hc        1 MBV      0.104500
     67 H1D1        5.2260    6.5030    1.8080 hc        1 MBV      0.078667
     68 H1D2        3.9670    5.9550    2.6290 hc        1 MBV      0.078667
     69 H1D3        3.8860    7.3730    1.8860 hc        1 MBV      0.078667
     70 H3A1       -5.8320   -5.0820    2.9270 hc        1 MBV      0.071333
     71 H3A2       -5.4510   -4.4200    4.3380 hc        1 MBV      0.071333
     72 H3A3       -4.4390   -5.4550    3.6420 hc        1 MBV      0.071333
     73 H2B1        0.9060   -6.1530    0.4230 hc        1 MBV      0.072000
     74 H2B2       -0.2830   -6.3490    1.4710 hc        1 MBV      0.072000
     75 H2C1       -1.3770    4.0320   -2.7260 hc        1 MBV      0.071000
     76 H2C2       -1.5490    3.1230   -4.0250 hc        1 MBV      0.071000
     77 H3D1        1.5500    7.7550   -0.7590 hc        1 MBV      0.082333
     78 H3D2        1.2460    8.4250    0.6690 hc        1 MBV      0.082333
     79 H3D3        2.7140    7.8620    0.3410 hc        1 MBV      0.082333
@<TRIPOS>BOND
     1    1    2 1   
     2    2    5 1   
     3    3    4 1   
     4    3   44 1   
     5    4    6 1   
     6    4    9 1   
     7    5    6 1   
     8    5    7 1   
     9    6    8 1   
    10    7   45 1   
    11    7   46 1   
    12    7   47 1   
    13    8   34 1   
    14    8   48 1   
    15    8   49 1   
    16    9   50 1   
    17   10   11 1   
    18   10   13 1   
    19   12   14 1   
    20   12   17 1   
    21   13   14 1   
    22   13   15 1   
    23   14   16 1   
    24   15   35 1   
    25   15   51 1   
    26   15   52 1   
    27   16   53 1   
    28   16   54 1   
    29   16   55 1   
    30   17   56 1   
    31   18   19 1   
    32   18   21 1   
    33   19   20 1   
    34   20   22 1   
    35   21   22 1   
    36   23   58 1   
    37   23   59 1   
    38   23   60 1   
    39   24   39 1   
    40   24   61 1   
    41   24   62 1   
    42   25   26 1   
    43   25   63 1   
    44   26   29 1   
    45   27   28 1   
    46   27   64 1   
    47   28   30 1   
    48   28   33 1   
    49   29   30 1   
    50   29   31 1   
    51   30   32 1   
    52   31   43 1   
    53   31   65 1   
    54   31   66 1   
    55   32   67 1   
    56   32   68 1   
    57   32   69 1   
    58   34   70 1   
    59   34   71 1   
    60   34   72 1   
    61   35   36 1   
    62   35   73 1   
    63   35   74 1   
    64   36   37 1   
    65   36   38 1   
    66   39   40 1   
    67   39   75 1   
    68   39   76 1   
    69   40   41 1   
    70   40   42 1   
    71   43   77 1   
    72   43   78 1   
    73   43   79 1   
@<TRIPOS>SUBSTRUCTURE
     1 MBV         1 TEMP              0 ****  ****    0 ROOT
