@<TRIPOS>MOLECULE
MBV
   79    82     1     0     0
SMALL
bcc


@<TRIPOS>ATOM
      1 O1         -0.0870   -1.4510   -0.1650 o         1 MBV     -0.633500
      2 C1          1.1040   -1.1090   -0.1270 c         1 MBV      0.697700
      3 N1          1.8070   -0.7720    1.0440 n         1 MBV     -0.492100
      4 C4          3.1540   -0.4790    0.7310 cc        1 MBV      0.060600
      5 C2          2.0800   -0.9850   -1.2680 cd        1 MBV     -0.214400
      6 C3          3.2890   -0.6070   -0.7590 cc        1 MBV     -0.006200
      7 C1A         1.6800   -1.2480   -2.6490 c3        1 MBV     -0.025900
      8 C2A         4.5490   -0.3590   -1.4800 c3        1 MBV     -0.069200
      9 C5          4.1720   -0.1840    1.5680 cf        1 MBV     -0.236600
     10 C6          4.1050   -0.0920    3.0060 cd        1 MBV      0.497900
     11 N2          3.0230    0.0340    3.7730 nc        1 MBV     -0.612300
     12 C9          3.4790    0.0550    5.1290 cc        1 MBV      0.057600
     13 C7          5.3670   -0.1430    3.8240 cd        1 MBV     -0.180800
     14 C8          4.9700   -0.0710    5.1330 cc        1 MBV     -0.136200
     15 C1B         6.7150   -0.2140    3.2430 c3        1 MBV     -0.022200
     16 C6B         5.7730   -0.0930    6.3550 c3        1 MBV     -0.028900
     17 C10         2.7340    0.1700    6.2530 cf        1 MBV     -0.003200
     18 C11         1.3270    0.3670    6.3880 cd        1 MBV     -0.112100
     19 N3          0.4290    0.6830    5.3680 na        1 MBV     -0.135100
     20 C14        -0.8440    0.8190    5.9150 cd        1 MBV     -0.082100
     21 C12         0.6030    0.3200    7.6190 cc        1 MBV     -0.131300
     22 C13        -0.7610    0.5950    7.3220 cc        1 MBV     -0.098300
     23 C6C         1.1890    0.0360    8.9300 c3        1 MBV     -0.018800
     24 C1C        -1.9070    0.6830    8.2450 c3        1 MBV     -0.005100
     25 C15        -2.0560    1.1430    5.2160 cf        1 MBV     -0.083200
     26 C16        -2.1800    1.9000    4.1060 cc        1 MBV     -0.022400
     27 N4         -1.1510    2.5510    3.3630 n         1 MBV     -0.479100
     28 C19        -1.7520    3.3730    2.3790 c         1 MBV      0.690700
     29 C17        -3.4730    2.2080    3.4240 cc        1 MBV      0.015800
     30 C18        -3.2240    3.0740    2.3960 cd        1 MBV     -0.228400
     31 C2D        -4.7620    1.6360    3.8500 c3        1 MBV     -0.068200
     32 C1D        -4.1400    3.6690    1.4250 c3        1 MBV     -0.022900
     33 O20        -1.1330    4.1710    1.6590 o         1 MBV     -0.640500
     34 C3A         4.7350    1.1050   -1.8040 c3        1 MBV     -0.073100
     35 C2B         6.9970   -1.5240    2.5290 c3        1 MBV     -0.194400
     36 C3B         7.7030   -1.2880    1.1840 c         1 MBV      0.908600
     37 O4B         8.7530   -1.9400    0.9320 o         1 MBV     -0.854800
     38 O5B         7.1840   -0.4570    0.3750 o         1 MBV     -0.854800
     39 C2C        -2.8590   -0.4940    8.1350 c3        1 MBV     -0.194400
     40 C3C        -4.3180   -0.0280    8.0110 c         1 MBV      0.909600
     41 O4C        -4.6290    0.7140    7.0270 o         1 MBV     -0.857300
     42 O5C        -5.1510   -0.4120    8.8780 o         1 MBV     -0.857300
     43 C3D        -4.9980    0.2690    3.2490 c3        1 MBV     -0.076100
     44 HN1         1.4250   -0.7470    1.9530 hn        1 MBV      0.354500
     45 H1A1        1.5740   -0.2870   -3.2140 hc        1 MBV      0.041033
     46 H1A2        0.6970   -1.7820   -2.6740 hc        1 MBV      0.041033
     47 H1A3        2.4480   -1.8740   -3.1710 hc        1 MBV      0.041033
     48 H2A1        4.5470   -0.9560   -2.4330 hc        1 MBV      0.088200
     49 H2A2        5.4330   -0.7080   -0.8610 hc        1 MBV      0.088200
     50 HC5         5.1950   -0.0440    1.1360 ha        1 MBV      0.225000
     51 H1B1        6.8270    0.6300    2.5020 hc        1 MBV      0.052200
     52 H1B2        7.4830   -0.0530    4.0470 hc        1 MBV      0.052200
     53 H6B1        5.4740   -0.9560    7.0030 hc        1 MBV      0.036033
     54 H6B2        5.6220    0.8490    6.9410 hc        1 MBV      0.036033
     55 H6B3        6.8620   -0.1910    6.1190 hc        1 MBV      0.036033
     56 H10         3.2650    0.1110    7.2240 ha        1 MBV      0.131000
     57 HN3         0.6460    0.6800    4.4020 hn        1 MBV      0.320700
     58 H6C1        1.9180    0.8360    9.2190 hc        1 MBV      0.033033
     59 H6C2        1.7370   -0.9410    8.9140 hc        1 MBV      0.033033
     60 H6C3        0.3970   -0.0200    9.7170 hc        1 MBV      0.033033
     61 H1C1       -1.5340    0.7700    9.3000 hc        1 MBV      0.045200
     62 H1C2       -2.4760    1.6290    8.0140 hc        1 MBV      0.045200
     63 H15        -2.9830    0.7650    5.7250 ha        1 MBV      0.237000
     64 HN4        -0.2880    2.7910    3.7820 hn        1 MBV      0.319500
     65 H2D1       -5.5900    2.3290    3.5370 hc        1 MBV      0.085700
     66 H2D2       -4.7960    1.5500    4.9780 hc        1 MBV      0.085700
     67 H1D1       -3.6610    4.5510    0.9300 hc        1 MBV      0.039367
     68 H1D2       -4.4060    2.9240    0.6320 hc        1 MBV      0.039367
     69 H1D3       -5.0860    4.0000    1.9220 hc        1 MBV      0.039367
     70 H3A1        5.6990    1.2450   -2.3500 hc        1 MBV      0.031700
     71 H3A2        3.9000    1.4860   -2.4400 hc        1 MBV      0.031700
     72 H3A3        4.7740    1.7070   -0.8640 hc        1 MBV      0.031700
     73 H2B1        7.6280   -2.1850    3.1710 hc        1 MBV      0.033700
     74 H2B2        6.0400   -2.0640    2.3120 hc        1 MBV      0.033700
     75 H2C1       -2.6220   -1.1080    7.2290 hc        1 MBV      0.031700
     76 H2C2       -2.7570   -1.1540    9.0320 hc        1 MBV      0.031700
     77 H3D1       -4.9990    0.3150    2.1340 hc        1 MBV      0.033700
     78 H3D2       -5.9830   -0.1250    3.5960 hc        1 MBV      0.033700
     79 H3D3       -4.1990   -0.4400    3.5770 hc        1 MBV      0.033700
@<TRIPOS>BOND
     1    1    2 2   
     2    2    3 1   
     3    2    5 1   
     4    3    4 1   
     5    3   44 1   
     6    4    6 1   
     7    4    9 2   
     8    5    6 2   
     9    5    7 1   
    10    6    8 1   
    11    7   45 1   
    12    7   46 1   
    13    7   47 1   
    14    8   34 1   
    15    8   48 1   
    16    8   49 1   
    17    9   10 1   
    18    9   50 1   
    19   10   11 2   
    20   10   13 1   
    21   11   12 1   
    22   12   14 1   
    23   12   17 2   
    24   13   14 2   
    25   13   15 1   
    26   14   16 1   
    27   15   35 1   
    28   15   51 1   
    29   15   52 1   
    30   16   53 1   
    31   16   54 1   
    32   16   55 1   
    33   17   18 1   
    34   17   56 1   
    35   18   19 1   
    36   18   21 2   
    37   19   20 1   
    38   19   57 1   
    39   20   22 2   
    40   20   25 1   
    41   21   22 1   
    42   21   23 1   
    43   22   24 1   
    44   23   58 1   
    45   23   59 1   
    46   23   60 1   
    47   24   39 1   
    48   24   61 1   
    49   24   62 1   
    50   25   26 2   
    51   25   63 1   
    52   26   27 1   
    53   26   29 1   
    54   27   28 1   
    55   27   64 1   
    56   28   30 1   
    57   28   33 2   
    58   29   30 2   
    59   29   31 1   
    60   30   32 1   
    61   31   43 1   
    62   31   65 1   
    63   31   66 1   
    64   32   67 1   
    65   32   68 1   
    66   32   69 1   
    67   34   70 1   
    68   34   71 1   
    69   34   72 1   
    70   35   36 1   
    71   35   73 1   
    72   35   74 1   
    73   36   37 1   
    74   36   38 1   
    75   39   40 1   
    76   39   75 1   
    77   39   76 1   
    78   40   41 1   
    79   40   42 1   
    80   43   77 1   
    81   43   78 1   
    82   43   79 1   
@<TRIPOS>SUBSTRUCTURE
     1 MBV         1 TEMP              0 ****  ****    0 ROOT
