@<TRIPOS>MOLECULE
MBV
   79    82     1     0     0
SMALL
bcc


@<TRIPOS>ATOM
      1 O1         -0.0940   -1.4480   -0.1640 o         1 MBV     -0.633500
      2 C1          1.0970   -1.1080   -0.1270 c         1 MBV      0.697700
      3 N1          1.8030   -0.7720    1.0420 ns        1 MBV     -0.492100
      4 C4          3.1490   -0.4810    0.7280 cc        1 MBV      0.060600
      5 C2          2.0720   -0.9850   -1.2700 cd        1 MBV     -0.214400
      6 C3          3.2830   -0.6090   -0.7630 cc        1 MBV     -0.006200
      7 C1A         1.6700   -1.2480   -2.6500 c3        1 MBV     -0.025900
      8 C2A         4.5420   -0.3640   -1.4850 c3        1 MBV     -0.069200
      9 C5          4.1690   -0.1880    1.5630 cf        1 MBV     -0.236600
     10 C6          4.1040   -0.0950    3.0010 cd        1 MBV      0.497900
     11 N2          3.0230    0.0320    3.7700 nc        1 MBV     -0.612300
     12 C9          3.4810    0.0530    5.1260 cc        1 MBV      0.057600
     13 C7          5.3670   -0.1470    3.8180 cd        1 MBV     -0.180800
     14 C8          4.9720   -0.0740    5.1270 cc        1 MBV     -0.136200
     15 C1B         6.7150   -0.2200    3.2350 c3        1 MBV     -0.022200
     16 C6B         5.7770   -0.0970    6.3480 c3        1 MBV     -0.028900
     17 C10         2.7380    0.1690    6.2510 cf        1 MBV     -0.003200
     18 C11         1.3310    0.3680    6.3880 cd        1 MBV     -0.112100
     19 N3          0.4320    0.6840    5.3690 na        1 MBV     -0.135100
     20 C14        -0.8390    0.8220    5.9180 cd        1 MBV     -0.082100
     21 C12         0.6090    0.3210    7.6200 cc        1 MBV     -0.131300
     22 C13        -0.7550    0.5970    7.3240 cc        1 MBV     -0.098300
     23 C6C         1.1970    0.0370    8.9300 c3        1 MBV     -0.018800
     24 C1C        -1.8990    0.6870    8.2490 c3        1 MBV     -0.005100
     25 C15        -2.0530    1.1470    5.2200 cf        1 MBV     -0.083200
     26 C16        -2.1780    1.9030    4.1100 cc        1 MBV     -0.022400
     27 N4         -1.1490    2.5530    3.3650 ns        1 MBV     -0.479100
     28 C19        -1.7510    3.3740    2.3820 c         1 MBV      0.690700
     29 C17        -3.4710    2.2120    3.4310 cc        1 MBV      0.015800
     30 C18        -3.2230    3.0770    2.4020 cd        1 MBV     -0.228400
     31 C2D        -4.7600    1.6420    3.8590 c3        1 MBV     -0.068200
     32 C1D        -4.1400    3.6730    1.4320 c3        1 MBV     -0.022900
     33 O20        -1.1330    4.1720    1.6610 o         1 MBV     -0.640500
     34 C3A         4.7280    1.1000   -1.8120 c3        1 MBV     -0.073100
     35 C2B         6.9940   -1.5300    2.5210 c3        1 MBV     -0.194400
     36 C3B         7.6980   -1.2950    1.1750 c         1 MBV      0.908600
     37 O4B         8.7480   -1.9480    0.9210 o         1 MBV     -0.854800
     38 O5B         7.1790   -0.4640    0.3660 o         1 MBV     -0.854800
     39 C2C        -2.8530   -0.4900    8.1410 c3        1 MBV     -0.194400
     40 C3C        -4.3120   -0.0220    8.0190 c         1 MBV      0.909600
     41 O4C        -4.6230    0.7200    7.0360 o         1 MBV     -0.857300
     42 O5C        -5.1440   -0.4060    8.8880 o         1 MBV     -0.857300
     43 C3D        -4.9980    0.2750    3.2590 c3        1 MBV     -0.076100
     44 HN1         1.4220   -0.7460    1.9520 hn        1 MBV      0.354500
     45 H1A1        1.5670   -0.2860   -3.2160 hc        1 MBV      0.041033
     46 H1A2        0.6850   -1.7780   -2.6740 hc        1 MBV      0.041033
     47 H1A3        2.4350   -1.8760   -3.1730 hc        1 MBV      0.041033
     48 H2A1        5.4260   -0.7120   -0.8670 hc        1 MBV      0.088200
     49 H2A2        4.5380   -0.9610   -2.4370 hc        1 MBV      0.088200
     50 HC5         5.1920   -0.0490    1.1300 ha        1 MBV      0.225000
     51 H1B1        7.4830   -0.0600    4.0380 hc        1 MBV      0.052200
     52 H1B2        6.8260    0.6240    2.4940 hc        1 MBV      0.052200
     53 H6B1        5.6280    0.8450    6.9340 hc        1 MBV      0.036033
     54 H6B2        6.8650   -0.1970    6.1110 hc        1 MBV      0.036033
     55 H6B3        5.4770   -0.9600    6.9970 hc        1 MBV      0.036033
     56 H10         3.2700    0.1100    7.2210 ha        1 MBV      0.131000
     57 HN3         0.6470    0.6810    4.4020 hn        1 MBV      0.320700
     58 H6C1        1.9270    0.8360    9.2170 hc        1 MBV      0.033033
     59 H6C2        0.4060   -0.0180    9.7180 hc        1 MBV      0.033033
     60 H6C3        1.7440   -0.9400    8.9130 hc        1 MBV      0.033033
     61 H1C1       -1.5250    0.7740    9.3040 hc        1 MBV      0.045200
     62 H1C2       -2.4680    1.6330    8.0190 hc        1 MBV      0.045200
     63 H15        -2.9790    0.7690    5.7310 ha        1 MBV      0.237000
     64 HN4        -0.2850    2.7920    3.7830 hn        1 MBV      0.319500
     65 H2D1       -4.7920    1.5560    4.9870 hc        1 MBV      0.085700
     66 H2D2       -5.5880    2.3350    3.5470 hc        1 MBV      0.085700
     67 H1D1       -4.4090    2.9270    0.6400 hc        1 MBV      0.039367
     68 H1D2       -5.0860    4.0050    1.9310 hc        1 MBV      0.039367
     69 H1D3       -3.6620    4.5540    0.9350 hc        1 MBV      0.039367
     70 H3A1        3.8930    1.4810   -2.4470 hc        1 MBV      0.031700
     71 H3A2        5.6920    1.2390   -2.3580 hc        1 MBV      0.031700
     72 H3A3        4.7690    1.7030   -0.8720 hc        1 MBV      0.031700
     73 H2B1        6.0360   -2.0700    2.3060 hc        1 MBV      0.033700
     74 H2B2        7.6260   -2.1920    3.1620 hc        1 MBV      0.033700
     75 H2C1       -2.6180   -1.1040    7.2350 hc        1 MBV      0.031700
     76 H2C2       -2.7500   -1.1490    9.0380 hc        1 MBV      0.031700
     77 H3D1       -4.2000   -0.4350    3.5860 hc        1 MBV      0.033700
     78 H3D2       -5.0020    0.3200    2.1440 hc        1 MBV      0.033700
     79 H3D3       -5.9830   -0.1190    3.6090 hc        1 MBV      0.033700
@<TRIPOS>BOND
     1    1    2 2   
     2    2    3 1   
     3    2    5 1   
     4    3    4 1   
     5    3   44 1   
     6    4    6 1   
     7    4    9 2   
     8    5    6 2   
     9    5    7 1   
    10    6    8 1   
    11    7   45 1   
    12    7   46 1   
    13    7   47 1   
    14    8   34 1   
    15    8   48 1   
    16    8   49 1   
    17    9   10 1   
    18    9   50 1   
    19   10   11 2   
    20   10   13 1   
    21   11   12 1   
    22   12   14 1   
    23   12   17 2   
    24   13   14 2   
    25   13   15 1   
    26   14   16 1   
    27   15   35 1   
    28   15   51 1   
    29   15   52 1   
    30   16   53 1   
    31   16   54 1   
    32   16   55 1   
    33   17   18 1   
    34   17   56 1   
    35   18   19 1   
    36   18   21 2   
    37   19   20 1   
    38   19   57 1   
    39   20   22 2   
    40   20   25 1   
    41   21   22 1   
    42   21   23 1   
    43   22   24 1   
    44   23   58 1   
    45   23   59 1   
    46   23   60 1   
    47   24   39 1   
    48   24   61 1   
    49   24   62 1   
    50   25   26 2   
    51   25   63 1   
    52   26   27 1   
    53   26   29 1   
    54   27   28 1   
    55   27   64 1   
    56   28   30 1   
    57   28   33 2   
    58   29   30 2   
    59   29   31 1   
    60   30   32 1   
    61   31   43 1   
    62   31   65 1   
    63   31   66 1   
    64   32   67 1   
    65   32   68 1   
    66   32   69 1   
    67   34   70 1   
    68   34   71 1   
    69   34   72 1   
    70   35   36 1   
    71   35   73 1   
    72   35   74 1   
    73   36   37 1   
    74   36   38 1   
    75   39   40 1   
    76   39   75 1   
    77   39   76 1   
    78   40   41 1   
    79   40   42 1   
    80   43   77 1   
    81   43   78 1   
    82   43   79 1   
@<TRIPOS>SUBSTRUCTURE
     1 MBV         1 TEMP              0 ****  ****    0 ROOT
