@<TRIPOS>MOLECULE
MBV
   79    82     1     0     0
SMALL
bcc


@<TRIPOS>ATOM
      1 O1         -0.0890   -1.4550   -0.1620 o         1 MBV     -0.633500
      2 C1          1.1020   -1.1130   -0.1250 c         1 MBV      0.697700
      3 N1          1.8060   -0.7740    1.0440 n         1 MBV     -0.492100
      4 C4          3.1520   -0.4800    0.7300 cc        1 MBV      0.060600
      5 C2          2.0770   -0.9900   -1.2670 cd        1 MBV     -0.214400
      6 C3          3.2860   -0.6110   -0.7600 cc        1 MBV     -0.006200
      7 C1A         1.6760   -1.2560   -2.6480 c3        1 MBV     -0.025900
      8 C2A         4.5450   -0.3640   -1.4820 c3        1 MBV     -0.069200
      9 C5          4.1710   -0.1840    1.5650 cf        1 MBV     -0.236600
     10 C6          4.1050   -0.0900    3.0030 cd        1 MBV      0.497900
     11 N2          3.0230    0.0370    3.7710 nc        1 MBV     -0.612300
     12 C9          3.4810    0.0600    5.1270 cc        1 MBV      0.057600
     13 C7          5.3680   -0.1380    3.8200 cd        1 MBV     -0.180800
     14 C8          4.9720   -0.0650    5.1290 cc        1 MBV     -0.136200
     15 C1B         6.7160   -0.2090    3.2380 c3        1 MBV     -0.022200
     16 C6B         5.7770   -0.0840    6.3510 c3        1 MBV     -0.028900
     17 C10         2.7380    0.1750    6.2520 cf        1 MBV     -0.003200
     18 C11         1.3300    0.3720    6.3880 cd        1 MBV     -0.112100
     19 N3          0.4310    0.6860    5.3680 na        1 MBV     -0.135100
     20 C14        -0.8410    0.8210    5.9170 cd        1 MBV     -0.082100
     21 C12         0.6080    0.3250    7.6190 cc        1 MBV     -0.131300
     22 C13        -0.7570    0.5980    7.3230 cc        1 MBV     -0.098300
     23 C6C         1.1950    0.0420    8.9300 c3        1 MBV     -0.018800
     24 C1C        -1.9020    0.6860    8.2470 c3        1 MBV     -0.005100
     25 C15        -2.0550    1.1430    5.2180 cf        1 MBV     -0.083200
     26 C16        -2.1810    1.8980    4.1080 cc        1 MBV     -0.022400
     27 N4         -1.1530    2.5500    3.3630 n         1 MBV     -0.479100
     28 C19        -1.7560    3.3700    2.3790 c         1 MBV      0.690700
     29 C17        -3.4750    2.2040    3.4270 cc        1 MBV      0.015800
     30 C18        -3.2280    3.0690    2.3980 cd        1 MBV     -0.228400
     31 C2D        -4.7630    1.6320    3.8550 c3        1 MBV     -0.068200
     32 C1D        -4.1460    3.6630    1.4270 c3        1 MBV     -0.022900
     33 O20        -1.1390    4.1680    1.6570 o         1 MBV     -0.640500
     34 C3A         4.7280    1.1000   -1.8120 c3        1 MBV     -0.073100
     35 C2B         6.9980   -1.5190    2.5250 c3        1 MBV     -0.194400
     36 C3B         7.7020   -1.2850    1.1800 c         1 MBV      0.908600
     37 O4B         8.7530   -1.9360    0.9270 o         1 MBV     -0.854800
     38 O5B         7.1810   -0.4560    0.3700 o         1 MBV     -0.854800
     39 C2C        -2.8540   -0.4930    8.1400 c3        1 MBV     -0.194400
     40 C3C        -4.3130   -0.0280    8.0170 c         1 MBV      0.909600
     41 O4C        -4.6250    0.7130    7.0330 o         1 MBV     -0.857300
     42 O5C        -5.1450   -0.4120    8.8850 o         1 MBV     -0.857300
     43 C3D        -4.9980    0.2640    3.2560 c3        1 MBV     -0.076100
     44 HN1         1.4240   -0.7480    1.9540 hn        1 MBV      0.354500
     45 H1A1        1.5710   -0.2950   -3.2150 hc        1 MBV      0.041033
     46 H1A2        0.6920   -1.7880   -2.6710 hc        1 MBV      0.041033
     47 H1A3        2.4420   -1.8840   -3.1690 hc        1 MBV      0.041033
     48 H2A1        5.4300   -0.7090   -0.8640 hc        1 MBV      0.088200
     49 H2A2        4.5430   -0.9630   -2.4340 hc        1 MBV      0.088200
     50 HC5         5.1930   -0.0430    1.1320 ha        1 MBV      0.225000
     51 H1B1        7.4840   -0.0460    4.0410 hc        1 MBV      0.052200
     52 H1B2        6.8260    0.6350    2.4960 hc        1 MBV      0.052200
     53 H6B1        5.6250    0.8590    6.9360 hc        1 MBV      0.036033
     54 H6B2        6.8650   -0.1820    6.1140 hc        1 MBV      0.036033
     55 H6B3        5.4790   -0.9470    7.0000 hc        1 MBV      0.036033
     56 H10         3.2690    0.1190    7.2220 ha        1 MBV      0.131000
     57 HN3         0.6460    0.6820    4.4020 hn        1 MBV      0.320700
     58 H6C1        1.9230    0.8440    9.2170 hc        1 MBV      0.033033
     59 H6C2        0.4040   -0.0140    9.7170 hc        1 MBV      0.033033
     60 H6C3        1.7440   -0.9330    8.9140 hc        1 MBV      0.033033
     61 H1C1       -1.5290    0.7740    9.3020 hc        1 MBV      0.045200
     62 H1C2       -2.4720    1.6310    8.0160 hc        1 MBV      0.045200
     63 H15        -2.9810    0.7640    5.7280 ha        1 MBV      0.237000
     64 HN4        -0.2900    2.7910    3.7810 hn        1 MBV      0.319500
     65 H2D1       -4.7950    1.5470    4.9840 hc        1 MBV      0.085700
     66 H2D2       -5.5920    2.3230    3.5420 hc        1 MBV      0.085700
     67 H1D1       -4.4120    2.9160    0.6350 hc        1 MBV      0.039367
     68 H1D2       -5.0920    3.9930    1.9250 hc        1 MBV      0.039367
     69 H1D3       -3.6690    4.5450    0.9310 hc        1 MBV      0.039367
     70 H3A1        3.8930    1.4780   -2.4480 hc        1 MBV      0.031700
     71 H3A2        5.6920    1.2400   -2.3580 hc        1 MBV      0.031700
     72 H3A3        4.7670    1.7050   -0.8730 hc        1 MBV      0.031700
     73 H2B1        6.0420   -2.0610    2.3110 hc        1 MBV      0.033700
     74 H2B2        7.6310   -2.1790    3.1680 hc        1 MBV      0.033700
     75 H2C1       -2.6170   -1.1070    7.2340 hc        1 MBV      0.031700
     76 H2C2       -2.7500   -1.1510    9.0370 hc        1 MBV      0.031700
     77 H3D1       -4.1980   -0.4440    3.5840 hc        1 MBV      0.033700
     78 H3D2       -5.0010    0.3080    2.1410 hc        1 MBV      0.033700
     79 H3D3       -5.9820   -0.1320    3.6050 hc        1 MBV      0.033700
@<TRIPOS>BOND
     1    1    2 2   
     2    2    3 1   
     3    2    5 1   
     4    3    4 1   
     5    3   44 1   
     6    4    6 1   
     7    4    9 2   
     8    5    6 2   
     9    5    7 1   
    10    6    8 1   
    11    7   45 1   
    12    7   46 1   
    13    7   47 1   
    14    8   34 1   
    15    8   48 1   
    16    8   49 1   
    17    9   10 1   
    18    9   50 1   
    19   10   11 2   
    20   10   13 1   
    21   11   12 1   
    22   12   14 1   
    23   12   17 2   
    24   13   14 2   
    25   13   15 1   
    26   14   16 1   
    27   15   35 1   
    28   15   51 1   
    29   15   52 1   
    30   16   53 1   
    31   16   54 1   
    32   16   55 1   
    33   17   18 1   
    34   17   56 1   
    35   18   19 1   
    36   18   21 2   
    37   19   20 1   
    38   19   57 1   
    39   20   22 2   
    40   20   25 1   
    41   21   22 1   
    42   21   23 1   
    43   22   24 1   
    44   23   58 1   
    45   23   59 1   
    46   23   60 1   
    47   24   39 1   
    48   24   61 1   
    49   24   62 1   
    50   25   26 2   
    51   25   63 1   
    52   26   27 1   
    53   26   29 1   
    54   27   28 1   
    55   27   64 1   
    56   28   30 1   
    57   28   33 2   
    58   29   30 2   
    59   29   31 1   
    60   30   32 1   
    61   31   43 1   
    62   31   65 1   
    63   31   66 1   
    64   32   67 1   
    65   32   68 1   
    66   32   69 1   
    67   34   70 1   
    68   34   71 1   
    69   34   72 1   
    70   35   36 1   
    71   35   73 1   
    72   35   74 1   
    73   36   37 1   
    74   36   38 1   
    75   39   40 1   
    76   39   75 1   
    77   39   76 1   
    78   40   41 1   
    79   40   42 1   
    80   43   77 1   
    81   43   78 1   
    82   43   79 1   
@<TRIPOS>SUBSTRUCTURE
     1 MBV         1 TEMP              0 ****  ****    0 ROOT
