@<TRIPOS>MOLECULE
MBY
   35    37     1     0     0
SMALL
bcc


@<TRIPOS>ATOM
      1 O6         -0.1390    0.0680   -0.0890 oh        1 MBY     -0.610300
      2 C6          1.2250    0.1800   -0.0020 ca        1 MBY      0.709600
      3 N1          1.8130    0.5380    1.1590 nb        1 MBY     -0.779000
      4 C2          3.1830    0.6240    1.1350 ca        1 MBY      0.663900
      5 N3          4.0110    0.3940    0.1020 nb        1 MBY     -0.680000
      6 C4          3.4010    0.0270   -1.0640 ca        1 MBY      0.474100
      7 C5          1.9710   -0.0970   -1.1830 ca        1 MBY     -0.366700
      8 C9          4.0360   -0.2840   -2.3300 cc        1 MBY     -0.192000
      9 C8          3.0960   -0.6040   -3.2800 cd        1 MBY     -0.165400
     10 S7          1.5220   -0.5490   -2.7260 ss        1 MBY      0.160500
     11 C7          5.5080   -0.2210   -2.5490 c3        1 MBY      0.232000
     12 N4'         6.1400   -1.5280   -2.6260 n3        1 MBY     -0.721600
     13 C4'         7.6080   -1.5120   -2.6080 c3        1 MBY      0.141500
     14 C5'         8.3190   -0.2100   -3.0030 c3        1 MBY      0.109400
     15 O5'         7.9390    0.1380   -4.3250 oh        1 MBY     -0.609800
     16 C3'         8.1050   -2.6730   -3.5260 c3        1 MBY      0.106100
     17 O3'         9.0120   -3.5070   -2.8500 oh        1 MBY     -0.585800
     18 C2'         6.8200   -3.3860   -4.0130 c3        1 MBY      0.109100
     19 O2'         6.6090   -4.5990   -3.3200 oh        1 MBY     -0.595800
     20 C1'         5.7000   -2.3580   -3.7470 c3        1 MBY      0.122800
     21 H2          3.6520    0.9220    2.0960 h5        1 MBY      0.057100
     22 H3          3.3330   -0.8740   -4.3110 h4        1 MBY      0.179000
     23 H4          5.9850    0.3240   -1.6830 h1        1 MBY      0.061200
     24 H5          5.6980    0.3870   -3.4870 h1        1 MBY      0.061200
     25 H7          7.9110   -1.7260   -1.5400 h1        1 MBY      0.078700
     26 H8          8.0460    0.6230   -2.3010 h1        1 MBY      0.035700
     27 H9          9.4280   -0.3830   -2.9520 h1        1 MBY      0.035700
     28 H10         8.4770    0.8980   -4.5750 ho        1 MBY      0.404000
     29 H11         8.6810   -2.2600   -4.3990 h1        1 MBY      0.093700
     30 H12         8.5080   -4.1550   -2.3390 ho        1 MBY      0.412000
     31 H13         6.8870   -3.6770   -5.0920 h1        1 MBY      0.092700
     32 H14         6.2760   -4.3810   -2.4390 ho        1 MBY      0.411000
     33 H15         5.5130   -1.7620   -4.6830 h1        1 MBY      0.053200
     34 H16         4.7450   -2.8700   -3.4520 h1        1 MBY      0.053200
     35 H17        -0.5390    0.2770    0.7720 ho        1 MBY      0.451000
@<TRIPOS>BOND
     1    1    2 1   
     2    1   35 1   
     3    2    3 ar  
     4    2    7 ar  
     5    3    4 ar  
     6    4    5 ar  
     7    4   21 1   
     8    5    6 ar  
     9    6    7 ar  
    10    6    8 1   
    11    7   10 1   
    12    8    9 2   
    13    8   11 1   
    14    9   10 1   
    15    9   22 1   
    16   11   12 1   
    17   11   23 1   
    18   11   24 1   
    19   12   13 1   
    20   12   20 1   
    21   13   14 1   
    22   13   16 1   
    23   13   25 1   
    24   14   15 1   
    25   14   26 1   
    26   14   27 1   
    27   15   28 1   
    28   16   17 1   
    29   16   18 1   
    30   16   29 1   
    31   17   30 1   
    32   18   19 1   
    33   18   20 1   
    34   18   31 1   
    35   19   32 1   
    36   20   33 1   
    37   20   34 1   
@<TRIPOS>SUBSTRUCTURE
     1 MBY         1 TEMP              0 ****  ****    0 ROOT
