@<TRIPOS>MOLECULE
MBY
   35    37     1     0     0
SMALL
bcc


@<TRIPOS>ATOM
      1 O6         -0.1420    0.0860   -0.1040 oh        1 MBY     -0.610300
      2 C6          1.2210    0.1980   -0.0160 ca        1 MBY      0.709600
      3 N1          1.8080    0.5640    1.1430 nb        1 MBY     -0.779000
      4 C2          3.1790    0.6490    1.1200 ca        1 MBY      0.663900
      5 N3          4.0080    0.4130    0.0890 nb        1 MBY     -0.680000
      6 C4          3.3990    0.0380   -1.0750 ca        1 MBY      0.474100
      7 C5          1.9680   -0.0860   -1.1940 ca        1 MBY     -0.366700
      8 C9          4.0350   -0.2800   -2.3380 cc        1 MBY     -0.192000
      9 C8          3.0960   -0.6060   -3.2870 cd        1 MBY     -0.165400
     10 S7          1.5210   -0.5480   -2.7350 ss        1 MBY      0.160500
     11 C7          5.5080   -0.2190   -2.5560 c3        1 MBY      0.232000
     12 N4'         6.1380   -1.5270   -2.6240 n3        1 MBY     -0.721600
     13 C4'         7.6070   -1.5110   -2.6040 c3        1 MBY      0.141500
     14 C5'         8.3190   -0.2110   -3.0070 c3        1 MBY      0.109400
     15 O5'         7.9410    0.1280   -4.3320 oh        1 MBY     -0.609800
     16 C3'         8.1050   -2.6780   -3.5150 c3        1 MBY      0.106100
     17 O3'         9.0100   -3.5080   -2.8330 oh        1 MBY     -0.585800
     18 C2'         6.8200   -3.3930   -3.9990 c3        1 MBY      0.109100
     19 O2'         6.6080   -4.6020   -3.2990 oh        1 MBY     -0.595800
     20 C1'         5.7000   -2.3630   -3.7410 c3        1 MBY      0.122800
     21 H2          3.6470    0.9520    2.0800 h5        1 MBY      0.057100
     22 H3          3.3340   -0.8830   -4.3170 h4        1 MBY      0.179000
     23 H4          5.6990    0.3830   -3.4970 h1        1 MBY      0.061200
     24 H5          5.9840    0.3310   -1.6930 h1        1 MBY      0.061200
     25 H7          7.9090   -1.7190   -1.5360 h1        1 MBY      0.078700
     26 H8          9.4280   -0.3850   -2.9540 h1        1 MBY      0.035700
     27 H9          8.0450    0.6260   -2.3100 h1        1 MBY      0.035700
     28 H10         8.4790    0.8870   -4.5850 ho        1 MBY      0.404000
     29 H11         8.6810   -2.2700   -4.3900 h1        1 MBY      0.093700
     30 H12         8.5050   -4.1520   -2.3180 ho        1 MBY      0.412000
     31 H13         6.8880   -3.6910   -5.0770 h1        1 MBY      0.092700
     32 H14         6.2730   -4.3790   -2.4200 ho        1 MBY      0.411000
     33 H15         5.5140   -1.7730   -4.6810 h1        1 MBY      0.053200
     34 H16         4.7450   -2.8740   -3.4440 h1        1 MBY      0.053200
     35 H17        -0.5430    0.3010    0.7560 ho        1 MBY      0.451000
@<TRIPOS>BOND
     1    1    2 1   
     2    1   35 1   
     3    2    3 ar  
     4    2    7 ar  
     5    3    4 ar  
     6    4    5 ar  
     7    4   21 1   
     8    5    6 ar  
     9    6    7 ar  
    10    6    8 1   
    11    7   10 1   
    12    8    9 2   
    13    8   11 1   
    14    9   10 1   
    15    9   22 1   
    16   11   12 1   
    17   11   23 1   
    18   11   24 1   
    19   12   13 1   
    20   12   20 1   
    21   13   14 1   
    22   13   16 1   
    23   13   25 1   
    24   14   15 1   
    25   14   26 1   
    26   14   27 1   
    27   15   28 1   
    28   16   17 1   
    29   16   18 1   
    30   16   29 1   
    31   17   30 1   
    32   18   19 1   
    33   18   20 1   
    34   18   31 1   
    35   19   32 1   
    36   20   33 1   
    37   20   34 1   
@<TRIPOS>SUBSTRUCTURE
     1 MBY         1 TEMP              0 ****  ****    0 ROOT
