@<TRIPOS>MOLECULE
MBY
   35    37     1     0     0
SMALL
bcc


@<TRIPOS>ATOM
      1 O6         -0.1450    0.0690   -0.1040 oh        1 MBY     -0.610300
      2 C6          1.2180    0.1810   -0.0130 ca        1 MBY      0.709600
      3 N1          1.8030    0.5380    1.1500 nb        1 MBY     -0.779000
      4 C2          3.1730    0.6240    1.1290 ca        1 MBY      0.663900
      5 N3          4.0040    0.3950    0.0980 nb        1 MBY     -0.680000
      6 C4          3.3970    0.0290   -1.0700 ca        1 MBY      0.474100
      7 C5          1.9670   -0.0950   -1.1930 ca        1 MBY     -0.366700
      8 C9          4.0350   -0.2800   -2.3350 cc        1 MBY     -0.192000
      9 C8          3.0970   -0.5990   -3.2870 cd        1 MBY     -0.165400
     10 S7          1.5220   -0.5450   -2.7370 ss        1 MBY      0.160500
     11 C7          5.5080   -0.2170   -2.5500 c3        1 MBY      0.232000
     12 N4'         6.1390   -1.5240   -2.6260 n3        1 MBY     -0.721600
     13 C4'         7.6070   -1.5080   -2.6040 c3        1 MBY      0.141500
     14 C5'         8.3190   -0.2060   -2.9980 c3        1 MBY      0.109400
     15 O5'         7.9430    0.1430   -4.3200 oh        1 MBY     -0.609800
     16 C3'         8.1070   -2.6690   -3.5220 c3        1 MBY      0.106100
     17 O3'         9.0120   -3.5030   -2.8450 oh        1 MBY     -0.585800
     18 C2'         6.8230   -3.3810   -4.0120 c3        1 MBY      0.109100
     19 O2'         6.6110   -4.5950   -3.3200 oh        1 MBY     -0.595800
     20 C1'         5.7020   -2.3540   -3.7480 c3        1 MBY      0.122800
     21 H2          3.6400    0.9200    2.0920 h5        1 MBY      0.057100
     22 H3          3.3370   -0.8680   -4.3190 h4        1 MBY      0.179000
     23 H4          5.9820    0.3280   -1.6830 h1        1 MBY      0.061200
     24 H5          5.7000    0.3910   -3.4870 h1        1 MBY      0.061200
     25 H7          7.9080   -1.7230   -1.5370 h1        1 MBY      0.078700
     26 H8          9.4280   -0.3790   -2.9440 h1        1 MBY      0.035700
     27 H9          8.0450    0.6270   -2.2950 h1        1 MBY      0.035700
     28 H10         8.4810    0.9030   -4.5690 ho        1 MBY      0.404000
     29 H11         8.6840   -2.2550   -4.3940 h1        1 MBY      0.093700
     30 H12         8.5070   -4.1510   -2.3350 ho        1 MBY      0.412000
     31 H13         6.8920   -3.6730   -5.0910 h1        1 MBY      0.092700
     32 H14         6.2750   -4.3780   -2.4400 ho        1 MBY      0.411000
     33 H15         4.7470   -2.8660   -3.4560 h1        1 MBY      0.053200
     34 H16         5.5170   -1.7580   -4.6850 h1        1 MBY      0.053200
     35 H17        -0.5480    0.2780    0.7570 ho        1 MBY      0.451000
@<TRIPOS>BOND
     1    1    2 1   
     2    1   35 1   
     3    2    3 ar  
     4    2    7 ar  
     5    3    4 ar  
     6    4    5 ar  
     7    4   21 1   
     8    5    6 ar  
     9    6    7 ar  
    10    6    8 1   
    11    7   10 1   
    12    8    9 2   
    13    8   11 1   
    14    9   10 1   
    15    9   22 1   
    16   11   12 1   
    17   11   23 1   
    18   11   24 1   
    19   12   13 1   
    20   12   20 1   
    21   13   14 1   
    22   13   16 1   
    23   13   25 1   
    24   14   15 1   
    25   14   26 1   
    26   14   27 1   
    27   15   28 1   
    28   16   17 1   
    29   16   18 1   
    30   16   29 1   
    31   17   30 1   
    32   18   19 1   
    33   18   20 1   
    34   18   31 1   
    35   19   32 1   
    36   20   33 1   
    37   20   34 1   
@<TRIPOS>SUBSTRUCTURE
     1 MBY         1 TEMP              0 ****  ****    0 ROOT
