@<TRIPOS>MOLECULE
MBY
   35    37     1     0     0
SMALL
bcc


@<TRIPOS>ATOM
      1 O6         -5.2320    0.2590    0.8480 oh        1 MBY     -0.610300
      2 C6         -4.1310    0.5940    0.1040 ca        1 MBY      0.709600
      3 N1         -4.1820    1.6110   -0.7820 nb        1 MBY     -0.779000
      4 C2         -3.0240    1.8590   -1.4770 ca        1 MBY      0.663900
      5 N3         -1.8470    1.2180   -1.3840 nb        1 MBY     -0.680000
      6 C4         -1.8090    0.1960   -0.4790 ca        1 MBY      0.474100
      7 C5         -2.9520   -0.1780    0.3150 ca        1 MBY     -0.366700
      8 C9         -0.6830   -0.6630   -0.1660 cc        1 MBY     -0.192000
      9 C8         -1.0260   -1.5860    0.7920 cd        1 MBY     -0.165400
     10 S7         -2.6060   -1.4650    1.3190 ss        1 MBY      0.160500
     11 C7          0.6440   -0.5560   -0.8360 c3        1 MBY      0.232000
     12 N4'         1.6700    0.0420    0.0020 n3        1 MBY     -0.721600
     13 C4'         2.9210    0.3770   -0.6900 c3        1 MBY      0.141500
     14 C5'         3.2270   -0.3400   -2.0130 c3        1 MBY      0.109400
     15 O5'         3.2720   -1.7390   -1.7770 oh        1 MBY     -0.609800
     16 C3'         4.0950    0.1400    0.3120 c3        1 MBY      0.106100
     17 O3'         4.9130    1.2770    0.4200 oh        1 MBY     -0.585800
     18 C2'         3.4180   -0.2910    1.6350 c3        1 MBY      0.109100
     19 O2'         3.4010    0.7650    2.5730 oh        1 MBY     -0.595800
     20 C1'         1.9980   -0.7170    1.2080 c3        1 MBY      0.122800
     21 H2         -3.0820    2.6970   -2.2030 h5        1 MBY      0.057100
     22 H3         -0.3440   -2.3400    1.1900 h4        1 MBY      0.179000
     23 H4          0.9450   -1.5910   -1.1860 h1        1 MBY      0.061200
     24 H5          0.5410    0.0990   -1.7490 h1        1 MBY      0.061200
     25 H7          2.8580    1.4790   -0.9350 h1        1 MBY      0.078700
     26 H8          2.4410   -0.1120   -2.7820 h1        1 MBY      0.035700
     27 H9          4.2220    0.0210   -2.3890 h1        1 MBY      0.035700
     28 H10         3.5630   -2.1470   -2.6010 ho        1 MBY      0.404000
     29 H11         4.7710   -0.6740   -0.0670 h1        1 MBY      0.093700
     30 H12         4.5130    1.8800    1.0620 ho        1 MBY      0.412000
     31 H13         3.9790   -1.1180    2.1420 h1        1 MBY      0.092700
     32 H14         2.7100    1.3860    2.3050 ho        1 MBY      0.411000
     33 H15         1.2450   -0.4610    2.0010 h1        1 MBY      0.053200
     34 H16         1.9790   -1.8300    1.0410 h1        1 MBY      0.053200
     35 H17        -5.9710    0.8510    0.6230 ho        1 MBY      0.451000
@<TRIPOS>BOND
     1    1    2 1   
     2    1   35 1   
     3    2    3 ar  
     4    2    7 ar  
     5    3    4 ar  
     6    4    5 ar  
     7    4   21 1   
     8    5    6 ar  
     9    6    7 ar  
    10    6    8 1   
    11    7   10 1   
    12    8    9 2   
    13    8   11 1   
    14    9   10 1   
    15    9   22 1   
    16   11   12 1   
    17   11   23 1   
    18   11   24 1   
    19   12   13 1   
    20   12   20 1   
    21   13   14 1   
    22   13   16 1   
    23   13   25 1   
    24   14   15 1   
    25   14   26 1   
    26   14   27 1   
    27   15   28 1   
    28   16   17 1   
    29   16   18 1   
    30   16   29 1   
    31   17   30 1   
    32   18   19 1   
    33   18   20 1   
    34   18   31 1   
    35   19   32 1   
    36   20   33 1   
    37   20   34 1   
@<TRIPOS>SUBSTRUCTURE
     1 MBY         1 TEMP              0 ****  ****    0 ROOT
