@<TRIPOS>MOLECULE
MBZ
   37    39     1     0     0
SMALL
bcc


@<TRIPOS>ATOM
      1 P           0.2400    1.0360   -4.2110 p5        1 MBZ      1.331900
      2 OP1         1.3430    1.8720   -3.6280 o         1 MBZ     -0.930833
      3 OP2         0.3310    0.6400   -5.6510 o         1 MBZ     -0.930833
      4 OP3        -1.1380    1.3740   -3.6760 o         1 MBZ     -0.930833
      5 O5'         0.4640   -0.4710   -3.3550 os        1 MBZ     -0.554200
      6 O3'        -3.0060    0.3160   -1.9520 oh        1 MBZ     -0.674800
      7 C1'        -1.3350   -0.8110    0.9240 c3        1 MBZ      0.256800
      8 C2'        -2.2940    0.2430    0.3310 c3        1 MBZ     -0.131400
      9 C3'        -1.8610    0.3990   -1.1340 c3        1 MBZ      0.158100
     10 C4'        -0.8960   -0.7730   -1.4030 c3        1 MBZ      0.054100
     11 C5'         0.4660   -0.3360   -1.9960 c3        1 MBZ      0.227400
     12 O4'        -0.6860   -1.4740   -0.1480 os        1 MBZ     -0.435600
     13 C6          1.0940    0.3890    5.0870 ca        1 MBZ     -0.036300
     14 C7          0.8560    0.2740    3.7070 ca        1 MBZ      0.069400
     15 N7          1.6440    0.6300    2.5960 nc        1 MBZ     -0.617100
     16 C8          0.9110    0.2920    1.5170 cd        1 MBZ      0.473700
     17 N1         -0.3390   -0.2650    1.8430 na        1 MBZ     -0.171300
     18 C9         -0.4010   -0.3030    3.2390 ca        1 MBZ     -0.074200
     19 C10        -1.3710   -0.7480    4.1440 ca        1 MBZ     -0.131000
     20 C11        -1.0950   -0.6200    5.4980 ca        1 MBZ     -0.144000
     21 C12         0.1070   -0.0640    5.9590 ca        1 MBZ     -0.173000
     22 HO'3       -2.7120    0.6340   -2.8370 ho        1 MBZ      0.501000
     23 H1'        -1.8920   -1.6050    1.5060 h2        1 MBZ      0.047700
     24 H2'        -3.3400   -0.1450    0.3880 hc        1 MBZ      0.051700
     25 H2''       -2.2500    1.2200    0.8660 hc        1 MBZ      0.051700
     26 H3'        -1.3480    1.3850   -1.3100 h1        1 MBZ      0.104700
     27 H4'        -1.3730   -1.5290   -2.0830 h1        1 MBZ      0.080700
     28 H5'         0.6900    0.7280   -1.6950 h1        1 MBZ     -0.004300
     29 H5''        1.2510   -1.0150   -1.5450 h1        1 MBZ     -0.004300
     30 H71         3.2290    0.3800    5.2070 hc        1 MBZ      0.037367
     31 H72         2.4710    2.0210    5.1960 hc        1 MBZ      0.037367
     32 H73         2.3900    0.9980    6.6960 hc        1 MBZ      0.037367
     33 H8          1.2120    0.4150    0.4580 h5        1 MBZ      0.118800
     34 H10        -2.3160   -1.1820    3.7920 ha        1 MBZ      0.127000
     35 H11        -1.8390   -0.9620    6.2320 ha        1 MBZ      0.107000
     36 H12         0.2720    0.0160    7.0440 ha        1 MBZ      0.107000
     37 C5M         2.3580    0.9760    5.5790 c3        1 MBZ     -0.038800
@<TRIPOS>BOND
     1    1    2 1   
     2    1    3 1   
     3    1    4 1   
     4    1    5 1   
     5    5   11 1   
     6    6    9 1   
     7    6   22 1   
     8    7    8 1   
     9    7   12 1   
    10    7   17 1   
    11    7   23 1   
    12    8    9 1   
    13    8   24 1   
    14    8   25 1   
    15    9   10 1   
    16    9   26 1   
    17   10   11 1   
    18   10   12 1   
    19   10   27 1   
    20   11   28 1   
    21   11   29 1   
    22   13   14 ar  
    23   13   21 ar  
    24   13   37 1   
    25   14   15 1   
    26   14   18 ar  
    27   15   16 2   
    28   16   17 1   
    29   16   33 1   
    30   17   18 1   
    31   18   19 ar  
    32   19   20 ar  
    33   19   34 1   
    34   20   21 ar  
    35   20   35 1   
    36   21   36 1   
    37   30   37 1   
    38   31   37 1   
    39   32   37 1   
@<TRIPOS>SUBSTRUCTURE
     1 MBZ         1 TEMP              0 ****  ****    0 ROOT
