@<TRIPOS>MOLECULE
MBZ
   37    34     1     0     0
SMALL
bcc


@<TRIPOS>ATOM
      1 P          -0.1880   -5.1140    3.0070 p3        1 MBZ      2.524000
      2 OP1         1.2830   -4.9430    3.3180 o         1 MBZ     -1.261500
      3 OP2        -0.9540   -5.3740    4.3040 os        1 MBZ     -1.228000
      4 OP3        -0.3700   -6.2730    2.0760 o         1 MBZ     -1.261500
      5 O5'        -0.7400   -3.8030    2.3270 os        1 MBZ     -0.716000
      6 O3'        -1.4290   -3.0970   -1.9010 oh        1 MBZ     -0.402000
      7 C1'        -1.0040   -0.1140   -0.1470 c3        1 MBZ      0.165000
      8 C2'        -1.0850   -0.9100   -1.4420 c3        1 MBZ     -0.210000
      9 C3'        -0.7040   -2.1320   -1.1180 c3        1 MBZ      0.047000
     10 C4'        -1.0580   -2.3140    0.4510 c3        1 MBZ     -0.057000
     11 C5'        -0.1860   -3.3990    1.0640 c3        1 MBZ      0.077000
     12 O4'        -0.8140   -1.1860    1.0080 os        1 MBZ     -0.292000
     13 C5M         2.6080    4.7430   -0.1900 c3        1 MBZ     -0.164000
     14 C6          1.3670    3.9700   -0.4950 c2        1 MBZ     -0.029000
     15 C7          1.1670    2.5940   -0.2790 c1        1 MBZ     -0.070000
     16 N7          2.0140    1.6010    0.1020 n1        1 MBZ     -0.190000
     17 C8          1.3050    0.4390    0.1620 c1        1 MBZ      0.018000
     18 N1          0.0220    0.7130   -0.1820 n3        1 MBZ     -0.197000
     19 C9         -0.0660    2.0480   -0.4550 c1        1 MBZ     -0.029000
     20 C10        -1.1420    2.8590   -0.8530 c1        1 MBZ     -0.137500
     21 C11        -0.9460    4.2150   -1.0650 c1        1 MBZ     -0.137500
     22 C12         0.3110    4.7680   -0.8850 c1        1 MBZ     -0.173000
     23 HO'3       -0.8790   -3.4850   -2.4750 ho        1 MBZ      0.300000
     24 H1'        -1.8150    0.3740   -0.0120 h2        1 MBZ      0.087000
     25 H2'        -2.0200   -0.9210   -1.7840 hc        1 MBZ      0.091000
     26 H2''       -0.4980   -0.5420   -2.0930 hc        1 MBZ      0.091000
     27 H3'         0.2660   -2.2350   -1.2610 h1        1 MBZ      0.144000
     28 H4'        -2.0220   -2.5480    0.5580 h1        1 MBZ      0.120000
     29 H5'        -0.1500   -4.1800    0.4510 h1        1 MBZ      0.035000
     30 H5''        0.7300   -3.0460    1.2030 h1        1 MBZ      0.035000
     31 H71         3.2700    4.1540    0.1810 hc        1 MBZ      0.076667
     32 H72         2.4040    5.4450    0.4480 hc        1 MBZ      0.076667
     33 H73         2.9510    5.1410   -1.0110 hc        1 MBZ      0.076667
     34 H8          1.6600   -0.4220    0.3510 DU        1 MBZ      0.248000
     35 H10        -2.0530    2.4570   -0.9830 ha        1 MBZ      0.117000
     36 H11        -1.6890    4.7770   -1.3410 ha        1 MBZ      0.117000
     37 H12         0.4530    5.7400   -1.0370 ha        1 MBZ      0.107000
@<TRIPOS>BOND
     1    1    2 1   
     2    1    4 1   
     3    1    5 1   
     4    5   11 1   
     5    6    9 1   
     6    6   23 1   
     7    7    8 1   
     8    7   12 1   
     9    7   18 1   
    10    7   24 1   
    11    8    9 1   
    12    8   25 1   
    13    8   26 1   
    14    9   10 1   
    15    9   27 1   
    16   10   11 1   
    17   10   12 1   
    18   10   28 1   
    19   11   29 1   
    20   11   30 1   
    21   13   14 1   
    22   13   31 1   
    23   13   32 1   
    24   13   33 1   
    25   14   15 1   
    26   14   22 1   
    27   15   19 1   
    28   16   17 1   
    29   17   18 1   
    30   18   19 1   
    31   20   21 1   
    32   20   35 1   
    33   21   36 1   
    34   22   37 1   
@<TRIPOS>SUBSTRUCTURE
     1 MBZ         1 TEMP              0 ****  ****    0 ROOT
