@<TRIPOS>MOLECULE
MC
   42    44     1     0     0
SMALL
bcc


@<TRIPOS>ATOM
      1 C51        -0.0400    0.0890   -0.0440 cc        1 MC      -0.090900
      2 C5          1.4270    0.0750   -0.1100 c         1 MC       0.579900
      3 C6          2.1040    0.0440    1.2280 cc        1 MC       0.013600
      4 C7          1.3850    0.1200    2.3820 cd        1 MC      -0.153200
      5 C8         -0.1100    0.2630    2.4460 c         1 MC       0.627900
      6 C81        -0.7780    0.1750    1.1640 cd        1 MC      -0.182600
      7 C9         -2.1820    0.1190    0.8380 cd        1 MC      -0.066300
      8 C91        -2.2500    0.0120   -0.5640 cc        1 MC      -0.118600
      9 C11         3.5760   -0.0780    1.2020 c3        1 MC      -0.139900
     10 N4         -0.9420    0.0190   -1.0820 na        1 MC      -0.007100
     11 N7          2.0620    0.0680    3.6800 n4        1 MC      -0.708400
     12 O5          2.0500    0.0770   -1.1680 o         1 MC      -0.406100
     13 O8         -0.6810    0.4400    3.5280 o         1 MC      -0.511100
     14 C10        -3.2860    0.0230    1.8080 c3        1 MC       0.212700
     15 O10        -3.7960    1.3740    2.0860 os        1 MC      -0.411900
     16 C12        -4.1950    1.5870    3.3640 c         1 MC       0.614100
     17 O13        -4.0730    0.8150    4.2980 o         1 MC      -0.368000
     18 N14        -4.8290    2.9280    3.5290 n4        1 MC      -0.712400
     19 C1         -3.2600   -0.1760   -1.6640 c3        1 MC       0.211400
     20 C2         -2.3630   -0.4120   -2.9550 c3        1 MC       0.090500
     21 C3         -0.8710   -0.2140   -2.5050 c3        1 MC       0.013300
     22 N1         -2.7320    0.4530   -4.1100 n4        1 MC      -0.823600
     23 O0         -4.0470    0.9710   -1.8790 oh        1 MC      -0.605800
     24 H111        3.9700   -0.1120    0.1480 hc        1 MC       0.112367
     25 H112        3.9100   -1.0210    1.7120 hc        1 MC       0.112367
     26 H113        4.0630    0.7980    1.7080 hc        1 MC       0.112367
     27 H71         2.5030   -0.8540    3.8090 hn        1 MC       0.484467
     28 H72         2.7900    0.7950    3.7320 hn        1 MC       0.484467
     29 H101       -2.9280   -0.4510    2.7670 h1        1 MC       0.112700
     30 H102       -4.1690   -0.5350    1.3920 h1        1 MC       0.112700
     31 H141       -5.7650    2.9240    3.0980 hn        1 MC       0.497467
     32 H142       -4.2580    3.6560    3.0800 hn        1 MC       0.497467
     33 H1         -3.8920   -1.0890   -1.4770 h1        1 MC       0.117700
     34 H2         -2.5050   -1.4860   -3.2860 hx        1 MC       0.149700
     35 H31        -0.3610    0.6560   -3.0090 h1        1 MC       0.126200
     36 H32        -0.2750   -1.1480   -2.7220 h1        1 MC       0.126200
     37 H11        -2.1320    0.2470   -4.9190 hn        1 MC       0.484133
     38 H12        -3.7170    0.2830   -4.3600 hn        1 MC       0.484133
     39 H0         -4.7990    0.9450   -1.2680 ho        1 MC       0.464000
     40 H73         1.3720    0.2230    4.4360 hn        1 MC       0.484467
     41 H143       -4.9230    3.1280    4.5390 hn        1 MC       0.497467
     42 H13        -2.6390    1.4460   -3.8550 hn        1 MC       0.484133
@<TRIPOS>BOND
     1    1    2 1   
     2    1    6 2   
     3    1   10 1   
     4    2    3 1   
     5    2   12 2   
     6    3    4 2   
     7    3    9 1   
     8    4    5 1   
     9    4   11 1   
    10    5    6 1   
    11    5   13 2   
    12    6    7 1   
    13    7    8 2   
    14    7   14 1   
    15    8   10 1   
    16    8   19 1   
    17    9   24 1   
    18    9   25 1   
    19    9   26 1   
    20   10   21 1   
    21   11   27 1   
    22   11   28 1   
    23   11   40 1   
    24   14   15 1   
    25   14   29 1   
    26   14   30 1   
    27   15   16 1   
    28   16   17 2   
    29   16   18 1   
    30   18   31 1   
    31   18   32 1   
    32   18   41 1   
    33   19   20 1   
    34   19   23 1   
    35   19   33 1   
    36   20   21 1   
    37   20   22 1   
    38   20   34 1   
    39   21   35 1   
    40   21   36 1   
    41   22   37 1   
    42   22   38 1   
    43   22   42 1   
    44   23   39 1   
@<TRIPOS>SUBSTRUCTURE
     1 MC          1 TEMP              0 ****  ****    0 ROOT
