@<TRIPOS>MOLECULE
MC
   42    44     1     0     0
SMALL
bcc


@<TRIPOS>ATOM
      1 C51        -0.0390    0.0910   -0.0430 cc        1 MC      -0.090900
      2 C5          1.4270    0.0770   -0.1080 c         1 MC       0.579900
      3 C6          2.1030    0.0420    1.2310 cc        1 MC       0.013600
      4 C7          1.3830    0.1140    2.3840 cd        1 MC      -0.153200
      5 C8         -0.1130    0.2560    2.4460 c         1 MC       0.627900
      6 C81        -0.7800    0.1720    1.1640 cd        1 MC      -0.182600
      7 C9         -2.1830    0.1170    0.8360 cd        1 MC      -0.066300
      8 C91        -2.2490    0.0140   -0.5670 cc        1 MC      -0.118600
      9 C11         3.5750   -0.0800    1.2060 c3        1 MC      -0.139900
     10 N4         -0.9400    0.0230   -1.0830 na        1 MC      -0.007100
     11 N7          2.0570    0.0580    3.6830 nz        1 MC      -0.708400
     12 O5          2.0520    0.0830   -1.1650 o         1 MC      -0.406100
     13 O8         -0.6860    0.4290    3.5280 o         1 MC      -0.511100
     14 C10        -3.2880    0.0170    1.8040 c3        1 MC       0.212700
     15 O10        -3.8010    1.3660    2.0830 os        1 MC      -0.411900
     16 C12        -4.1950    1.5800    3.3620 c         1 MC       0.614100
     17 O13        -4.0640    0.8100    4.2980 o         1 MC      -0.368000
     18 N14        -4.8350    2.9180    3.5280 nz        1 MC      -0.712400
     19 C1         -3.2570   -0.1700   -1.6690 c3        1 MC       0.211400
     20 C2         -2.3580   -0.4020   -2.9600 c3        1 MC       0.090500
     21 C3         -0.8670   -0.2040   -2.5070 c3        1 MC       0.013300
     22 N1         -2.7250    0.4670   -4.1120 nz        1 MC      -0.823600
     23 O0         -4.0440    0.9780   -1.8810 oh        1 MC      -0.605800
     24 H111        3.9080   -1.0240    1.7140 hc        1 MC       0.112367
     25 H112        3.9700   -0.1110    0.1530 hc        1 MC       0.112367
     26 H113        4.0610    0.7940    1.7160 hc        1 MC       0.112367
     27 H71         1.3670    0.2100    4.4390 hn        1 MC       0.484467
     28 H72         2.7850    0.7840    3.7380 hn        1 MC       0.484467
     29 H101       -4.1690   -0.5410    1.3840 h1        1 MC       0.112700
     30 H102       -2.9310   -0.4580    2.7610 h1        1 MC       0.112700
     31 H141       -4.9230    3.1200    4.5390 hn        1 MC       0.497467
     32 H142       -5.7740    2.9070    3.1040 hn        1 MC       0.497467
     33 H1         -3.8890   -1.0840   -1.4870 h1        1 MC       0.117700
     34 H2         -2.5000   -1.4750   -3.2940 hx        1 MC       0.149700
     35 H31        -0.2700   -1.1380   -2.7260 h1        1 MC       0.126200
     36 H32        -0.3560    0.6670   -3.0080 h1        1 MC       0.126200
     37 H11        -2.1250    0.2640   -4.9210 hn        1 MC       0.484133
     38 H12        -2.6340    1.4600   -3.8540 hn        1 MC       0.484133
     39 H0         -4.7960    0.9500   -1.2710 ho        1 MC       0.464000
     40 H73         2.4980   -0.8650    3.8100 hn        1 MC       0.484467
     41 H143       -4.2720    3.6470    3.0740 hn        1 MC       0.497467
     42 H13        -3.7100    0.2980   -4.3640 hn        1 MC       0.484133
@<TRIPOS>BOND
     1    1    2 1   
     2    1    6 2   
     3    1   10 1   
     4    2    3 1   
     5    2   12 2   
     6    3    4 2   
     7    3    9 1   
     8    4    5 1   
     9    4   11 1   
    10    5    6 1   
    11    5   13 2   
    12    6    7 1   
    13    7    8 2   
    14    7   14 1   
    15    8   10 1   
    16    8   19 1   
    17    9   24 1   
    18    9   25 1   
    19    9   26 1   
    20   10   21 1   
    21   11   27 1   
    22   11   28 1   
    23   11   40 1   
    24   14   15 1   
    25   14   29 1   
    26   14   30 1   
    27   15   16 1   
    28   16   17 2   
    29   16   18 1   
    30   18   31 1   
    31   18   32 1   
    32   18   41 1   
    33   19   20 1   
    34   19   23 1   
    35   19   33 1   
    36   20   21 1   
    37   20   22 1   
    38   20   34 1   
    39   21   35 1   
    40   21   36 1   
    41   22   37 1   
    42   22   38 1   
    43   22   42 1   
    44   23   39 1   
@<TRIPOS>SUBSTRUCTURE
     1 MC          1 TEMP              0 ****  ****    0 ROOT
