@<TRIPOS>MOLECULE
MC
   39    41     1     0     0
SMALL
bcc


@<TRIPOS>ATOM
      1 C51        -0.7200    0.2020    1.4180 cc        1 MC      -0.105900
      2 C5         -0.9470    0.0890    2.8680 c         1 MC       0.623900
      3 C6          0.2750   -0.0220    3.6670 cc        1 MC      -0.300400
      4 C7          1.5370   -0.0020    3.1180 cd        1 MC       0.134800
      5 C8          1.7690    0.2020    1.6300 c         1 MC       0.604900
      6 C81         0.5720    0.2620    0.8270 cd        1 MC      -0.220600
      7 C9          0.4040    0.3840   -0.5970 cd        1 MC      -0.065300
      8 C91        -0.9810    0.3870   -0.8270 cc        1 MC      -0.154600
      9 C11         0.0800   -0.1810    5.1290 c3        1 MC      -0.042900
     10 N4         -1.6460    0.2730    0.4070 na        1 MC      -0.002100
     11 N7          2.6670   -0.1980    3.8710 nh        1 MC      -0.840600
     12 O5         -2.0910    0.0890    3.3440 o         1 MC      -0.544100
     13 O8          2.9180    0.3160    1.1790 o         1 MC      -0.534100
     14 C10         1.4930    0.5210   -1.5790 c3        1 MC       0.213700
     15 O10         1.1930   -0.3680   -2.6790 os        1 MC      -0.468900
     16 C12         2.0350   -0.2490   -3.7690 c         1 MC       0.733100
     17 O13         2.9480    0.5910   -3.7390 o         1 MC      -0.577000
     18 N14         1.6930   -1.0830   -4.8050 n         1 MC      -0.637000
     19 C1         -1.9560    0.4700   -1.9580 c3        1 MC       0.175400
     20 C2         -3.3770    0.4140   -1.2540 c3        1 MC       0.161500
     21 C3         -3.0840    0.2820    0.2890 c3        1 MC       0.030300
     22 N1         -4.2980   -0.5930   -1.7090 n3        1 MC      -0.882800
     23 O0         -1.8450   -0.6000   -2.8750 oh        1 MC      -0.607800
     24 H111        0.4860   -1.1640    5.4780 hc        1 MC       0.045700
     25 H112        0.6010    0.6360    5.6900 hc        1 MC       0.045700
     26 H113       -1.0070   -0.1420    5.3930 hc        1 MC       0.045700
     27 H71         3.5480   -0.0250    3.4480 hn        1 MC       0.436800
     28 H72         2.6020   -0.1620    4.8590 hn        1 MC       0.436800
     29 H101        1.5610    1.5720   -1.9720 h1        1 MC       0.084200
     30 H102        2.4850    0.2220   -1.1420 h1        1 MC       0.084200
     31 H141        2.3540   -1.1850   -5.5370 hn        1 MC       0.323500
     32 H142        1.0480   -1.8150   -4.6370 hn        1 MC       0.323500
     33 H1         -1.8380    1.4410   -2.5140 h1        1 MC       0.064700
     34 H2         -3.8610    1.4170   -1.4260 h1        1 MC       0.074700
     35 H31        -3.5100    1.1640    0.8400 h1        1 MC       0.088700
     36 H32        -3.5110   -0.6570    0.7360 h1        1 MC       0.088700
     37 H11        -4.4930   -0.4570   -2.6830 hn        1 MC       0.363300
     38 H12        -3.9060   -1.5090   -1.5910 hn        1 MC       0.363300
     39 H0         -0.9020   -0.7420   -3.0370 ho        1 MC       0.436000
@<TRIPOS>BOND
     1    1    2 1   
     2    1    6 2   
     3    1   10 1   
     4    2    3 1   
     5    2   12 2   
     6    3    4 2   
     7    3    9 1   
     8    4    5 1   
     9    4   11 1   
    10    5    6 1   
    11    5   13 2   
    12    6    7 1   
    13    7    8 2   
    14    7   14 1   
    15    8   10 1   
    16    8   19 1   
    17    9   24 1   
    18    9   25 1   
    19    9   26 1   
    20   10   21 1   
    21   11   27 1   
    22   11   28 1   
    23   14   15 1   
    24   14   29 1   
    25   14   30 1   
    26   15   16 1   
    27   16   17 2   
    28   16   18 1   
    29   18   31 1   
    30   18   32 1   
    31   19   20 1   
    32   19   23 1   
    33   19   33 1   
    34   20   21 1   
    35   20   22 1   
    36   20   34 1   
    37   21   35 1   
    38   21   36 1   
    39   22   37 1   
    40   22   38 1   
    41   23   39 1   
@<TRIPOS>SUBSTRUCTURE
     1 MC          1 TEMP              0 ****  ****    0 ROOT
