@<TRIPOS>MOLECULE
MC
   42    44     1     0     0
SMALL
bcc


@<TRIPOS>ATOM
      1 C51        -0.0390    0.0820   -0.0430 cc        1 MC      -0.090900
      2 C5          1.4270    0.0540   -0.1000 c         1 MC       0.579900
      3 C6          2.0960    0.0070    1.2410 cc        1 MC       0.013600
      4 C7          1.3710    0.0820    2.3920 cd        1 MC      -0.153200
      5 C8         -0.1230    0.2380    2.4470 c         1 MC       0.627900
      6 C81        -0.7850    0.1650    1.1610 cd        1 MC      -0.182600
      7 C9         -2.1870    0.1250    0.8270 cd        1 MC      -0.065300
      8 C91        -2.2470    0.0290   -0.5770 cc        1 MC      -0.118600
      9 C11         3.5670   -0.1290    1.2230 c3        1 MC      -0.139900
     10 N4         -0.9360    0.0270   -1.0870 na        1 MC      -0.007100
     11 N7          2.0390    0.0140    3.6930 n4        1 MC      -0.708400
     12 O5          2.0570    0.0580   -1.1550 o         1 MC      -0.406100
     13 O8         -0.6990    0.4130    3.5270 o         1 MC      -0.512100
     14 C10        -3.2980    0.0330    1.7890 c3        1 MC       0.212700
     15 O10        -3.7940    1.3870    2.0760 os        1 MC      -0.411900
     16 C12        -4.2060    1.5910    3.3500 c         1 MC       0.614100
     17 O13        -4.1080    0.8050    4.2770 o         1 MC      -0.368000
     18 N14        -4.8230    2.9390    3.5240 n4        1 MC      -0.712400
     19 C1         -3.2520   -0.1420   -1.6840 c3        1 MC       0.211400
     20 C2         -2.3500   -0.3770   -2.9720 c3        1 MC       0.090500
     21 C3         -0.8590   -0.1960   -2.5110 c3        1 MC       0.013300
     22 N1         -2.7030    0.5000   -4.1220 n4        1 MC      -0.823600
     23 O0         -4.0280    1.0140   -1.8950 oh        1 MC      -0.605800
     24 H111        4.0590    0.7390    1.7390 hc        1 MC       0.112367
     25 H112        3.9670   -0.1590    0.1720 hc        1 MC       0.112367
     26 H113        3.8890   -1.0780    1.7290 hc        1 MC       0.112367
     27 H71         2.7740    0.7330    3.7550 hn        1 MC       0.484467
     28 H72         2.4700   -0.9130    3.8190 hn        1 MC       0.484467
     29 H101       -2.9500   -0.4530    2.7460 h1        1 MC       0.112700
     30 H102       -4.1840   -0.5120    1.3630 h1        1 MC       0.112700
     31 H141       -4.2340    3.6630    3.0940 hn        1 MC       0.497467
     32 H142       -5.7520    2.9550    3.0790 hn        1 MC       0.497467
     33 H1         -3.8940   -1.0500   -1.5080 h1        1 MC       0.117700
     34 H2         -2.5000   -1.4470   -3.3110 hx        1 MC       0.149700
     35 H31        -0.2700   -1.1350   -2.7310 h1        1 MC       0.126200
     36 H32        -0.3370    0.6720   -3.0060 h1        1 MC       0.126200
     37 H11        -2.1000    0.2940   -4.9290 hn        1 MC       0.484133
     38 H12        -3.6880    0.3420   -4.3790 hn        1 MC       0.484133
     39 H0         -4.7840    0.9900   -1.2900 ho        1 MC       0.464000
     40 H73         1.3460    0.1690    4.4460 hn        1 MC       0.484467
     41 H143       -4.9290    3.1270    4.5350 hn        1 MC       0.497467
     42 H13        -2.6030    1.4900   -3.8590 hn        1 MC       0.484133
@<TRIPOS>BOND
     1    1    2 1   
     2    1    6 2   
     3    1   10 1   
     4    2    3 1   
     5    2   12 2   
     6    3    4 2   
     7    3    9 1   
     8    4    5 1   
     9    4   11 1   
    10    5    6 1   
    11    5   13 2   
    12    6    7 1   
    13    7    8 2   
    14    7   14 1   
    15    8   10 1   
    16    8   19 1   
    17    9   24 1   
    18    9   25 1   
    19    9   26 1   
    20   10   21 1   
    21   11   27 1   
    22   11   28 1   
    23   11   40 1   
    24   14   15 1   
    25   14   29 1   
    26   14   30 1   
    27   15   16 1   
    28   16   17 2   
    29   16   18 1   
    30   18   31 1   
    31   18   32 1   
    32   18   41 1   
    33   19   20 1   
    34   19   23 1   
    35   19   33 1   
    36   20   21 1   
    37   20   22 1   
    38   20   34 1   
    39   21   35 1   
    40   21   36 1   
    41   22   37 1   
    42   22   38 1   
    43   22   42 1   
    44   23   39 1   
@<TRIPOS>SUBSTRUCTURE
     1 MC          1 TEMP              0 ****  ****    0 ROOT
