@<TRIPOS>MOLECULE
MC1
   58    59     1     0     0
SMALL
bcc


@<TRIPOS>ATOM
      1 S1          0.3860   -2.8810    0.9910 ss        1 MC1     -0.489200
      2 C2         -1.1650   -3.5800    1.6370 c3        1 MC1      0.103100
      3 C3         -2.2470   -3.3240    0.5570 c3        1 MC1      0.034500
      4 N4         -1.7040   -2.7980   -0.6910 n3        1 MC1     -0.795200
      5 C5         -0.3390   -2.3500   -0.5910 c3        1 MC1      0.310600
      6 C6         -0.9250   -5.0480    1.8890 c3        1 MC1     -0.086600
      7 C9         -0.1840   -0.8160   -0.8130 c3        1 MC1      0.061700
      8 C10        -1.5200   -2.8620    2.9180 c3        1 MC1     -0.086600
      9 C11        -3.0970   -4.6290    0.3420 c         1 MC1      0.918600
     10 O12        -3.9840   -4.8760    1.2020 o         1 MC1     -0.835800
     11 O13        -2.8430   -5.3520   -0.6620 o         1 MC1     -0.835800
     12 N14         1.0930   -0.3400   -0.3340 n         1 MC1     -0.542900
     13 C15         2.0150    0.2870   -1.1440 c         1 MC1      0.696700
     14 O16         1.9460    0.2490   -2.3900 o         1 MC1     -0.615100
     15 C17         3.1220    1.0070   -0.4420 ca        1 MC1     -0.239600
     16 C18         2.7920    2.2190    0.2220 ca        1 MC1      0.200600
     17 C19         3.7810    3.0070    0.8220 ca        1 MC1     -0.239000
     18 C20         5.1090    2.5880    0.7760 ca        1 MC1     -0.061000
     19 C21         5.4590    1.3990    0.1570 ca        1 MC1     -0.239000
     20 C22         4.4610    0.6030   -0.4530 ca        1 MC1      0.200600
     21 O23         4.9830   -0.5310   -1.0370 os        1 MC1     -0.328900
     22 C24         4.0960   -1.6020   -1.3480 c3        1 MC1      0.090200
     23 O25         1.4580    2.5420    0.2200 os        1 MC1     -0.328900
     24 C26         1.0830    3.7580    0.8670 c3        1 MC1      0.090200
     25 N          -1.0020    3.4940   -2.0210 n3        1 MC1     -0.891800
     26 CA         -2.2680    3.3380   -1.3370 c3        1 MC1      0.030500
     27 CB         -2.4090    2.1190   -0.4030 c3        1 MC1      0.111400
     28 C          -2.5940    4.5860   -0.4450 c         1 MC1      0.922600
     29 O          -1.7160    4.9520    0.3940 o         1 MC1     -0.844300
     30 OXT        -3.7080    5.1470   -0.6020 o         1 MC1     -0.844300
     31 H14        -2.9470   -2.5270    0.9470 h1        1 MC1      0.083700
     32 H13        -1.7880   -3.5060   -1.4070 hn        1 MC1      0.394800
     33 H12         0.3060   -2.8280   -1.3830 h2        1 MC1      0.054700
     34 H16        -0.0520   -5.1930    2.5690 hc        1 MC1      0.044200
     35 H17        -1.8360   -5.4980    2.3610 hc        1 MC1      0.044200
     36 H18        -0.7380   -5.5820    0.9250 hc        1 MC1      0.044200
     37 H11        -0.2450   -0.6360   -1.9330 h1        1 MC1      0.110700
     38 H19        -1.6080   -1.7620    2.7340 hc        1 MC1      0.044200
     39 H20        -2.5010   -3.2440    3.2950 hc        1 MC1      0.044200
     40 H21        -0.7410   -3.0400    3.6970 hc        1 MC1      0.044200
     41 H10         1.1810   -0.2580    0.6560 hn        1 MC1      0.334500
     42 H6          3.5180    3.9480    1.3220 ha        1 MC1      0.139500
     43 H5          5.8880    3.2080    1.2440 ha        1 MC1      0.118000
     44 H4          6.5010    1.0560    0.1240 ha        1 MC1      0.139500
     45 H241        4.7880   -2.4700   -1.4990 h1        1 MC1      0.065033
     46 H242        3.3930   -1.8060   -0.5060 h1        1 MC1      0.065033
     47 H243        3.5420   -1.3750   -2.2920 h1        1 MC1      0.065033
     48 H7          1.3590    3.7230    1.9480 h1        1 MC1      0.065033
     49 H8          1.5630    4.6300    0.3630 h1        1 MC1      0.065033
     50 H9         -0.0410    3.7960    0.7350 h1        1 MC1      0.065033
     51 H2         -0.6550    2.5970   -2.3070 hn        1 MC1      0.338800
     52 H24        -3.0580    3.2530   -2.1360 h1        1 MC1      0.055700
     53 HB2        -1.9600    2.3370    0.6020 h1        1 MC1      0.054200
     54 HB3        -3.4840    1.8360   -0.2810 h1        1 MC1      0.054200
     55 C7         -1.2880    0.0180   -0.1590 c         1 MC1      0.641100
     56 OG         -1.7200    1.0010   -0.9990 os        1 MC1     -0.447900
     57 O8         -1.7310   -0.0400    0.9870 o         1 MC1     -0.535000
     58 H          -0.3310    3.9030   -1.3950 hn        1 MC1      0.338800
@<TRIPOS>BOND
     1    1    2 1   
     2    1    5 1   
     3    2    3 1   
     4    2    6 1   
     5    2    8 1   
     6    3    4 1   
     7    3    9 1   
     8    3   31 1   
     9    4    5 1   
    10    4   32 1   
    11    5    7 1   
    12    5   33 1   
    13    6   34 1   
    14    6   35 1   
    15    6   36 1   
    16    7   12 1   
    17    7   37 1   
    18    7   55 1   
    19    8   38 1   
    20    8   39 1   
    21    8   40 1   
    22    9   10 1   
    23    9   11 1   
    24   12   13 1   
    25   12   41 1   
    26   13   14 2   
    27   13   15 1   
    28   15   16 ar  
    29   15   20 ar  
    30   16   17 ar  
    31   16   23 1   
    32   17   18 ar  
    33   17   42 1   
    34   18   19 ar  
    35   18   43 1   
    36   19   20 ar  
    37   19   44 1   
    38   20   21 1   
    39   21   22 1   
    40   22   45 1   
    41   22   46 1   
    42   22   47 1   
    43   23   24 1   
    44   24   48 1   
    45   24   49 1   
    46   24   50 1   
    47   25   26 1   
    48   25   51 1   
    49   25   58 1   
    50   26   27 1   
    51   26   28 1   
    52   26   52 1   
    53   27   53 1   
    54   27   54 1   
    55   27   56 1   
    56   28   29 1   
    57   28   30 1   
    58   55   56 1   
    59   55   57 2   
@<TRIPOS>SUBSTRUCTURE
     1 MC1         1 TEMP              0 ****  ****    0 ROOT
