@<TRIPOS>MOLECULE
MC2
   67    69     1     0     0
SMALL
bcc


@<TRIPOS>ATOM
      1 O2          0.0000    0.0000    0.0000 o         1 MC2     -0.613100
      2 C11         1.2120    0.0000    0.0000 c         1 MC2      0.486100
      3 N6          1.8870   -0.0010   -1.1660 ns        1 MC2      0.144900
      4 C19         1.1930   -0.1170   -2.3760 ca        1 MC2     -0.203400
      5 C21         0.0530   -0.8850   -2.4350 ca        1 MC2     -0.023000
      6 C20        -0.6440   -0.9950   -3.6500 ca        1 MC2     -0.030000
      7 C25        -1.8150   -1.7660   -3.7500 ca        1 MC2     -0.060000
      8 C24        -2.4630   -1.8560   -4.9430 ca        1 MC2     -0.067000
      9 C23        -1.9820   -1.1940   -6.0710 ca        1 MC2     -0.054000
     10 C18        -0.1550   -0.3220   -4.7970 ca        1 MC2     -0.025000
     11 C22        -0.8520   -0.4380   -6.0120 ca        1 MC2     -0.033000
     12 C17         1.6680    0.5460   -3.5130 ca        1 MC2     -0.116000
     13 C16         1.0150    0.4490   -4.7020 ca        1 MC2      0.021000
     14 C10         1.9650    0.0000    1.3060 c3        1 MC2     -0.131500
     15 C12         2.8430   -1.2500    1.3880 c3        1 MC2     -0.025400
     16 C13         3.6080   -1.2510    2.7120 c3        1 MC2     -0.038400
     17 C14         4.4870   -2.4990    2.7940 c3        1 MC2     -0.034200
     18 N3          5.2190   -2.4990    4.0630 ny        1 MC2      0.131000
     19 C15         6.0770   -3.5300    4.3610 c2        1 MC2     -0.118900
     20 N5          6.2410   -4.5090    3.5160 n2        1 MC2     -0.284100
     21 N4          6.7640   -3.5320    5.5530 nz        1 MC2      0.228400
     22 N2          1.0130   -0.0000    2.4180 ny        1 MC2      0.141200
     23 C2          1.3430    0.5830    3.5870 c         1 MC2      0.352100
     24 O1          2.4280    1.1090    3.7180 o         1 MC2     -0.455100
     25 C1          0.3630    0.5840    4.7320 c3        1 MC2     -0.144500
     26 N1          1.0970    0.5840    6.0050 nz        1 MC2      0.086400
     27 C3         -0.5160    1.8330    4.6500 c3        1 MC2      0.048900
     28 C4         -1.4960    1.8350    5.7950 ca        1 MC2     -0.193300
     29 C5         -2.7350    1.2420    5.6440 ca        1 MC2     -0.147000
     30 C7         -3.6320    1.2400    6.6950 ca        1 MC2     -0.049500
     31 C9         -3.2940    1.8370    7.8950 ca        1 MC2     -0.020000
     32 C8         -2.0560    2.4340    8.0440 ca        1 MC2     -0.049500
     33 C6         -1.1570    2.4330    6.9940 ca        1 MC2     -0.147000
     34 HN6         2.8820    0.1030   -1.1690 hn        1 MC2      0.161500
     35 H21        -0.3730   -1.2950   -1.5270 ha        1 MC2      0.122000
     36 H25        -2.3550   -2.3790   -3.0380 ha        1 MC2      0.124000
     37 H24        -3.3660   -2.4330   -5.1010 ha        1 MC2      0.133000
     38 H23        -2.5310   -1.3100   -6.9980 ha        1 MC2      0.137000
     39 H22        -0.6330   -0.0140   -6.9850 ha        1 MC2      0.141000
     40 H17         2.5680    1.1460   -3.4450 ha        1 MC2      0.117000
     41 H16         1.3960    0.9680   -5.5730 ha        1 MC2      0.138000
     42 H10         2.5880    0.8840    1.3630 hx        1 MC2      0.122700
     43 H121        3.5480   -1.2500    0.5640 hc        1 MC2      0.076200
     44 H122        2.2200   -2.1340    1.3300 hc        1 MC2      0.076200
     45 H131        4.2310   -0.3660    2.7700 hc        1 MC2      0.025200
     46 H132        2.9040   -1.2510    3.5350 hc        1 MC2      0.025200
     47 H141        3.8650   -3.3840    2.7360 hx        1 MC2      0.106700
     48 H142        5.1920   -2.4990    1.9710 hx        1 MC2      0.106700
     49 HN3         4.5350   -2.4700    4.7940 hn        1 MC2      0.226300
     50 HN5         5.7430   -4.5120    2.6480 hn        1 MC2      0.378400
     51 HN41        6.2210   -3.0650    6.2520 hn        1 MC2      0.242467
     52 HN42        7.6360   -3.0550    5.4350 hn        1 MC2      0.242467
     53 HN2         0.1820    0.4530    2.0910 hn        1 MC2      0.293800
     54 H1         -0.2610   -0.3000    4.6740 hx        1 MC2      0.109700
     55 HN11        1.5040    1.4860    6.1550 hn        1 MC2      0.242133
     56 HN12        0.4660    0.3740    6.7530 hn        1 MC2      0.242133
     57 H31        -1.0580    1.8330    3.7110 hc        1 MC2      0.066200
     58 H32         0.1070    2.7180    4.7070 hc        1 MC2      0.066200
     59 H5         -3.0130    0.8030    4.6930 ha        1 MC2      0.133000
     60 H7         -4.5990    0.7640    6.5810 ha        1 MC2      0.142000
     61 H9         -4.0040    1.8500    8.7130 ha        1 MC2      0.147000
     62 H8         -1.7980    2.9190    8.9780 ha        1 MC2      0.142000
     63 H6         -0.4810    3.2210    7.3030 ha        1 MC2      0.133000
     64 H321        5.7560   -1.6560    4.0900 hn        1 MC2      0.226300
     65 H43         6.9370   -4.4750    5.8370 hn        1 MC2      0.242467
     66 H221        0.8010   -0.9570    2.6200 hn        1 MC2      0.293800
     67 H13         1.8210   -0.1060    5.9720 hn        1 MC2      0.242133
@<TRIPOS>BOND
     1    1    2 2   
     2    2    3 1   
     3    2   14 1   
     4    3    4 1   
     5    3   34 1   
     6    4    5 ar  
     7    4   12 ar  
     8    5    6 ar  
     9    5   35 1   
    10    6    7 ar  
    11    6   10 ar  
    12    7    8 ar  
    13    7   36 1   
    14    8    9 ar  
    15    8   37 1   
    16    9   11 ar  
    17    9   38 1   
    18   10   11 ar  
    19   10   13 ar  
    20   11   39 1   
    21   12   13 ar  
    22   12   40 1   
    23   13   41 1   
    24   14   15 1   
    25   14   22 1   
    26   14   42 1   
    27   15   16 1   
    28   15   43 1   
    29   15   44 1   
    30   16   17 1   
    31   16   45 1   
    32   16   46 1   
    33   17   18 1   
    34   17   47 1   
    35   17   48 1   
    36   18   19 1   
    37   18   49 1   
    38   18   64 1   
    39   19   20 2   
    40   19   21 1   
    41   20   50 1   
    42   21   51 1   
    43   21   52 1   
    44   21   65 1   
    45   22   23 1   
    46   22   53 1   
    47   22   66 1   
    48   23   24 2   
    49   23   25 1   
    50   25   26 1   
    51   25   27 1   
    52   25   54 1   
    53   26   55 1   
    54   26   56 1   
    55   26   67 1   
    56   27   28 1   
    57   27   57 1   
    58   27   58 1   
    59   28   29 ar  
    60   28   33 ar  
    61   29   30 ar  
    62   29   59 1   
    63   30   31 ar  
    64   30   60 1   
    65   31   32 ar  
    66   31   61 1   
    67   32   33 ar  
    68   32   62 1   
    69   33   63 1   
@<TRIPOS>SUBSTRUCTURE
     1 MC2         1 TEMP              0 ****  ****    0 ROOT
