@<TRIPOS>MOLECULE
MC2
   63    65     1     0     0
SMALL
bcc


@<TRIPOS>ATOM
      1 O2          1.5740   -1.2040   -2.0150 o         1 MC2     -0.592100
      2 C11         1.0330   -0.2700   -1.3980 c         1 MC2      0.644100
      3 N6          0.0160    0.5140   -1.9060 n         1 MC2     -0.463100
      4 C19        -0.5860    0.4100   -3.1710 ca        1 MC2      0.063600
      5 C21        -0.2290   -0.5370   -4.1220 ca        1 MC2     -0.158000
      6 C20        -0.8840   -0.5810   -5.3800 ca        1 MC2     -0.012000
      7 C25        -0.5250   -1.5490   -6.3610 ca        1 MC2     -0.120000
      8 C24        -1.1650   -1.5820   -7.5750 ca        1 MC2     -0.125000
      9 C23        -2.1930   -0.6540   -7.8690 ca        1 MC2     -0.136000
     10 C18        -1.9130    0.3460   -5.6780 ca        1 MC2     -0.061000
     11 C22        -2.5590    0.2900   -6.9420 ca        1 MC2     -0.111000
     12 C17        -1.6310    1.3490   -3.4830 ca        1 MC2     -0.162000
     13 C16        -2.2650    1.3100   -4.6950 ca        1 MC2     -0.097000
     14 C10         1.4940    0.0970    0.0450 c3        1 MC2      0.036700
     15 C12         2.8420   -0.5900    0.2970 c3        1 MC2     -0.084400
     16 C13         3.4770   -0.1240    1.5880 c3        1 MC2     -0.092400
     17 C14         4.8780   -0.7280    1.7110 c3        1 MC2      0.182800
     18 N3          5.5560   -0.2850    2.9150 nh        1 MC2     -0.795200
     19 C15         6.8590   -0.8450    3.1750 c2        1 MC2      0.743100
     20 N5          7.4350   -1.6360    2.3050 n2        1 MC2     -0.869100
     21 N4          7.4240   -0.4690    4.4420 nh        1 MC2     -0.933800
     22 N2          0.4860   -0.2510    1.0140 n         1 MC2     -0.551900
     23 C2         -0.5350    0.6040    1.3530 c         1 MC2      0.662100
     24 O1         -0.6850    1.6980    0.7670 o         1 MC2     -0.637100
     25 C1         -1.5250    0.1350    2.4410 c3        1 MC2      0.103500
     26 N1         -0.8300   -0.3390    3.6200 n3        1 MC2     -0.907800
     27 C3         -2.5430    1.2660    2.6810 c3        1 MC2     -0.068100
     28 C4         -3.5970    0.8450    3.6410 ca        1 MC2     -0.092300
     29 C5         -4.7880    0.2740    3.1770 ca        1 MC2     -0.130000
     30 C7         -5.7790   -0.1140    4.0780 ca        1 MC2     -0.125500
     31 C9         -5.5900    0.0650    5.4480 ca        1 MC2     -0.127000
     32 C8         -4.4060    0.6360    5.9160 ca        1 MC2     -0.125500
     33 C6         -3.4140    1.0250    5.0180 ca        1 MC2     -0.130000
     34 HN6        -0.3420    1.2400   -1.3150 hn        1 MC2      0.344500
     35 H21         0.5670   -1.2750   -3.9290 ha        1 MC2      0.172000
     36 H25         0.2760   -2.2660   -6.1230 ha        1 MC2      0.137000
     37 H24        -0.8880   -2.3290   -8.3330 ha        1 MC2      0.131000
     38 H23        -2.6900   -0.7010   -8.8490 ha        1 MC2      0.130000
     39 H22        -3.3560    1.0170   -7.1600 ha        1 MC2      0.129000
     40 H17        -1.9220    2.1060   -2.7370 ha        1 MC2      0.136000
     41 H16        -3.0640    2.0310   -4.9270 ha        1 MC2      0.133000
     42 H10         1.6510    1.2200    0.0820 h1        1 MC2      0.086700
     43 H121        2.7120   -1.7040    0.3000 hc        1 MC2      0.073700
     44 H122        3.5110   -0.3450   -0.5710 hc        1 MC2      0.073700
     45 H131        3.5380    0.9960    1.6000 hc        1 MC2      0.047200
     46 H132        2.8470   -0.4360    2.4620 hc        1 MC2      0.047200
     47 H141        4.7890   -1.8520    1.6630 h1        1 MC2      0.057700
     48 H142        5.5000   -0.4020    0.8290 h1        1 MC2      0.057700
     49 HN3         4.9610   -0.3530    3.7190 hn        1 MC2      0.386800
     50 HN5         8.3700   -1.9050    2.5210 hn        1 MC2      0.391400
     51 HN41        8.4200   -0.4180    4.4270 hn        1 MC2      0.388800
     52 HN42        7.0210    0.3390    4.8640 hn        1 MC2      0.388800
     53 HN2         0.5990   -1.1080    1.5060 hn        1 MC2      0.337500
     54 H1         -2.0870   -0.7480    2.0050 h1        1 MC2      0.084700
     55 HN11       -0.3590    0.4160    4.0800 hn        1 MC2      0.360800
     56 HN12       -1.4890   -0.7440    4.2590 hn        1 MC2      0.360800
     57 H31        -2.9990    1.5440    1.6940 hc        1 MC2      0.073200
     58 H32        -2.0070    2.1760    3.0610 hc        1 MC2      0.073200
     59 H5         -4.9430    0.1360    2.0960 ha        1 MC2      0.132000
     60 H7         -6.7130   -0.5610    3.7050 ha        1 MC2      0.134500
     61 H9         -6.3720   -0.2400    6.1570 ha        1 MC2      0.135000
     62 H8         -4.2560    0.7840    6.9960 ha        1 MC2      0.134500
     63 H6         -2.4870    1.4860    5.3900 ha        1 MC2      0.132000
@<TRIPOS>BOND
     1    1    2 2   
     2    2    3 1   
     3    2   14 1   
     4    3    4 1   
     5    3   34 1   
     6    4    5 ar  
     7    4   12 ar  
     8    5    6 ar  
     9    5   35 1   
    10    6    7 ar  
    11    6   10 ar  
    12    7    8 ar  
    13    7   36 1   
    14    8    9 ar  
    15    8   37 1   
    16    9   11 ar  
    17    9   38 1   
    18   10   11 ar  
    19   10   13 ar  
    20   11   39 1   
    21   12   13 ar  
    22   12   40 1   
    23   13   41 1   
    24   14   15 1   
    25   14   22 1   
    26   14   42 1   
    27   15   16 1   
    28   15   43 1   
    29   15   44 1   
    30   16   17 1   
    31   16   45 1   
    32   16   46 1   
    33   17   18 1   
    34   17   47 1   
    35   17   48 1   
    36   18   19 1   
    37   18   49 1   
    38   19   20 2   
    39   19   21 1   
    40   20   50 1   
    41   21   51 1   
    42   21   52 1   
    43   22   23 1   
    44   22   53 1   
    45   23   24 2   
    46   23   25 1   
    47   25   26 1   
    48   25   27 1   
    49   25   54 1   
    50   26   55 1   
    51   26   56 1   
    52   27   28 1   
    53   27   57 1   
    54   27   58 1   
    55   28   29 ar  
    56   28   33 ar  
    57   29   30 ar  
    58   29   59 1   
    59   30   31 ar  
    60   30   60 1   
    61   31   32 ar  
    62   31   61 1   
    63   32   33 ar  
    64   32   62 1   
    65   33   63 1   
@<TRIPOS>SUBSTRUCTURE
     1 MC2         1 TEMP              0 ****  ****    0 ROOT
