@<TRIPOS>MOLECULE
MC2
   68    70     1     0     0
SMALL
bcc


@<TRIPOS>ATOM
      1 O2         -0.1050   -2.1270    1.8530 o         1 MC2     -0.383100
      2 C11         0.9740   -1.8270    1.3540 c         1 MC2      0.484100
      3 N6          1.1760   -2.0050   -0.1100 n4        1 MC2     -0.475200
      4 C19         0.7460   -0.8450   -0.8960 ca        1 MC2     -0.169400
      5 C21        -0.4760   -0.8780   -1.5670 ca        1 MC2      0.007000
      6 C20        -0.8030    0.1530   -2.4740 ca        1 MC2     -0.066000
      7 C25        -2.0140    0.1200   -3.2180 ca        1 MC2     -0.088000
      8 C24        -2.2870    1.1060   -4.1430 ca        1 MC2     -0.073000
      9 C23        -1.3730    2.1630   -4.3550 ca        1 MC2     -0.017000
     10 C18         0.1170    1.2290   -2.6860 ca        1 MC2     -0.008000
     11 C22        -0.1920    2.2270   -3.6320 ca        1 MC2     -0.122000
     12 C17         1.6590    0.2440   -1.0690 ca        1 MC2     -0.199000
     13 C16         1.3400    1.2430   -1.9500 ca        1 MC2     -0.029000
     14 C10         2.1240   -1.2480    2.2260 c3        1 MC2      0.063500
     15 C12         3.0730   -2.4160    2.5930 c3        1 MC2     -0.113400
     16 C13         4.5310   -2.0320    2.8340 c3        1 MC2     -0.109400
     17 C14         5.3630   -3.3100    3.0690 c3        1 MC2      0.104800
     18 N3          6.8370   -3.0540    3.2500 n4        1 MC2     -0.795000
     19 C15         7.6530   -4.3350    3.4710 c2        1 MC2      0.630100
     20 N5          7.2430   -5.5240    3.5960 n2        1 MC2     -0.568100
     21 N4          9.1390   -4.1040    3.5530 n4        1 MC2     -0.820600
     22 N2          1.5200   -0.5830    3.4490 n4        1 MC2     -0.686800
     23 C2          1.0460    0.8600    3.2600 c         1 MC2      0.520100
     24 O1          1.6190    1.5150    2.4100 o         1 MC2     -0.365100
     25 C1         -0.1160    1.3030    4.1550 c3        1 MC2      0.051500
     26 N1         -0.2760    2.7910    4.1560 n4        1 MC2     -0.845600
     27 C3         -1.4340    0.6090    3.6760 c3        1 MC2     -0.014100
     28 C4         -2.5900    1.1560    4.4210 ca        1 MC2     -0.249300
     29 C5         -2.9710    0.6010    5.6520 ca        1 MC2     -0.122500
     30 C7         -4.1200    1.0530    6.2990 ca        1 MC2     -0.094000
     31 C9         -4.9010    2.0590    5.7230 ca        1 MC2     -0.032000
     32 C8         -4.5250    2.6160    4.4940 ca        1 MC2     -0.094000
     33 C6         -3.3800    2.1680    3.8440 ca        1 MC2     -0.122500
     34 HN6         2.1660   -2.1830   -0.3160 hn        1 MC2      0.487800
     35 H21        -1.1970   -1.7080   -1.4410 ha        1 MC2      0.171000
     36 H25        -2.7260   -0.7090   -3.0620 ha        1 MC2      0.171000
     37 H24        -3.2220    1.0740   -4.7360 ha        1 MC2      0.201000
     38 H23        -1.6060    2.9380   -5.1110 ha        1 MC2      0.201000
     39 H22         0.5200    3.0520   -3.8070 ha        1 MC2      0.180000
     40 H17         2.6250    0.2560   -0.5470 ha        1 MC2      0.109000
     41 H16         2.0450    2.0780   -2.1250 ha        1 MC2      0.183000
     42 H10         2.6780   -0.4450    1.6430 hx        1 MC2      0.168700
     43 H121        2.6750   -2.9700    3.4900 hc        1 MC2      0.106700
     44 H122        3.0420   -3.1470    1.7350 hc        1 MC2      0.106700
     45 H131        4.6100   -1.3590    3.7290 hc        1 MC2      0.091200
     46 H132        4.9270   -1.4700    1.9440 hc        1 MC2      0.091200
     47 H141        4.9850   -3.8270    4.0010 hx        1 MC2      0.131200
     48 H142        5.2440   -3.9990    2.1800 hx        1 MC2      0.131200
     49 HN3         7.1890   -2.5670    2.4100 hn        1 MC2      0.484300
     50 HN5         6.3070   -5.8810    3.5760 hn        1 MC2      0.555400
     51 HN41        9.5090   -3.7150    2.6690 hn        1 MC2      0.529133
     52 HN42        9.3810   -3.4880    4.3480 hn        1 MC2      0.529133
     53 HN2         0.7100   -1.1490    3.7680 hn        1 MC2      0.487800
     54 H1          0.0750    0.9900    5.2320 hx        1 MC2      0.161700
     55 HN11       -1.2410    3.0010    4.5200 hn        1 MC2      0.502467
     56 HN12       -0.2020    3.1830    3.2080 hn        1 MC2      0.502467
     57 H31        -1.3270   -0.4910    3.8720 hc        1 MC2      0.086200
     58 H32        -1.5610    0.7720    2.5720 hc        1 MC2      0.086200
     59 H5         -2.3830   -0.2130    6.1030 ha        1 MC2      0.131500
     60 H7         -4.4250    0.6040    7.2620 ha        1 MC2      0.193000
     61 H9         -5.8230    2.4050    6.2290 ha        1 MC2      0.204000
     62 H8         -5.1550    3.4000    4.0320 ha        1 MC2      0.193000
     63 H6         -3.1330    2.5690    2.8480 ha        1 MC2      0.131500
     64 H62         0.6080   -2.8240   -0.4150 hn        1 MC2      0.487800
     65 H321        6.9670   -2.4330    4.0650 hn        1 MC2      0.484300
     66 H43         9.6210   -5.0260    3.7150 hn        1 MC2      0.529133
     67 H221        2.2270   -0.5820    4.1980 hn        1 MC2      0.487800
     68 H13         0.4140    3.2480    4.7660 hn        1 MC2      0.502467
@<TRIPOS>BOND
     1    1    2 2   
     2    2    3 1   
     3    2   14 1   
     4    3    4 1   
     5    3   34 1   
     6    3   64 1   
     7    4    5 ar  
     8    4   12 ar  
     9    5    6 ar  
    10    5   35 1   
    11    6    7 ar  
    12    6   10 ar  
    13    7    8 ar  
    14    7   36 1   
    15    8    9 ar  
    16    8   37 1   
    17    9   11 ar  
    18    9   38 1   
    19   10   11 ar  
    20   10   13 ar  
    21   11   39 1   
    22   12   13 ar  
    23   12   40 1   
    24   13   41 1   
    25   14   15 1   
    26   14   22 1   
    27   14   42 1   
    28   15   16 1   
    29   15   43 1   
    30   15   44 1   
    31   16   17 1   
    32   16   45 1   
    33   16   46 1   
    34   17   18 1   
    35   17   47 1   
    36   17   48 1   
    37   18   19 1   
    38   18   49 1   
    39   18   65 1   
    40   19   20 2   
    41   19   21 1   
    42   20   50 1   
    43   21   51 1   
    44   21   52 1   
    45   21   66 1   
    46   22   23 1   
    47   22   53 1   
    48   22   67 1   
    49   23   24 2   
    50   23   25 1   
    51   25   26 1   
    52   25   27 1   
    53   25   54 1   
    54   26   55 1   
    55   26   56 1   
    56   26   68 1   
    57   27   28 1   
    58   27   57 1   
    59   27   58 1   
    60   28   29 ar  
    61   28   33 ar  
    62   29   30 ar  
    63   29   59 1   
    64   30   31 ar  
    65   30   60 1   
    66   31   32 ar  
    67   31   61 1   
    68   32   33 ar  
    69   32   62 1   
    70   33   63 1   
@<TRIPOS>SUBSTRUCTURE
     1 MC2         1 TEMP              0 ****  ****    0 ROOT
