@<TRIPOS>MOLECULE
MC3
  118   117     1     0     0
SMALL
bcc


@<TRIPOS>ATOM
      1 C1         -2.3600   -1.9800   -0.2880 c3        1 MC3      0.175400
      2 C2         -0.9690   -1.3940   -0.5550 c3        1 MC3      0.135100
      3 C3         -0.2540   -0.9770    0.7290 c3        1 MC3      0.112400
      4 C4         -4.6840   -1.6380    3.3490 c3        1 MC3      0.197400
      5 C5         -3.8250   -0.7380    4.2580 c3        1 MC3      0.079800
      6 C6         -5.2290    1.2630    3.8600 c3        1 MC3      0.075433
      7 C7         -3.1760    1.4140    5.1540 c3        1 MC3      0.075433
      8 C8         -3.0620    1.0800    2.7610 c3        1 MC3      0.075433
      9 C11        -0.3300   -2.0830    2.8660 c         1 MC3      0.664100
     10 C12        -0.1920   -3.4170    3.5350 c3        1 MC3     -0.135400
     11 C13         0.2960   -3.2730    4.9600 c3        1 MC3     -0.075400
     12 C14         0.2970   -4.6120    5.6650 c3        1 MC3     -0.080400
     13 C15         0.8010   -4.4790    7.0870 c3        1 MC3     -0.078400
     14 C16         0.7950   -5.8160    7.7960 c3        1 MC3     -0.079400
     15 C17         1.3000   -5.6860    9.2170 c3        1 MC3     -0.078400
     16 C18         1.2930   -7.0230    9.9270 c3        1 MC3     -0.079400
     17 C19         1.7990   -6.8930   11.3480 c3        1 MC3     -0.078400
     18 C20         1.7920   -8.2300   12.0580 c3        1 MC3     -0.079400
     19 C21         2.2970   -8.1000   13.4790 c3        1 MC3     -0.079400
     20 C22         2.2910   -9.4370   14.1880 c3        1 MC3     -0.079400
     21 C23         2.7960   -9.3090   15.6100 c3        1 MC3     -0.080400
     22 C24         2.7910  -10.6380   16.3200 c3        1 MC3     -0.093100
     23 C32         1.4890   -3.2280   -2.6590 c3        1 MC3     -0.127400
     24 C33         1.9680   -2.8440   -4.0440 c3        1 MC3     -0.079400
     25 C34         2.7320   -3.9830   -4.6830 c3        1 MC3     -0.078400
     26 C35         3.1950   -3.6140   -6.0760 c3        1 MC3     -0.079400
     27 C36         3.9640   -4.7490   -6.7170 c3        1 MC3     -0.079400
     28 C37         4.4250   -4.3810   -8.1110 c3        1 MC3     -0.079400
     29 C38         5.1930   -5.5160   -8.7530 c3        1 MC3     -0.078400
     30 C39         5.6520   -5.1490  -10.1480 c3        1 MC3     -0.079400
     31 C40         6.4210   -6.2840  -10.7900 c3        1 MC3     -0.078400
     32 C41         6.8780   -5.9180  -12.1860 c3        1 MC3     -0.079400
     33 C42         7.6460   -7.0530  -12.8280 c3        1 MC3     -0.079400
     34 C43         8.1040   -6.6880  -14.2240 c3        1 MC3     -0.080400
     35 C44         8.8690   -7.8150  -14.8680 c3        1 MC3     -0.092100
     36 N          -3.8370    0.7460    3.9920 n4        1 MC3     -0.576800
     37 O2         -0.2460   -2.4280   -1.2420 os        1 MC3     -0.426900
     38 O3         -0.0390   -2.1410    1.5400 os        1 MC3     -0.419900
     39 O11        -0.6640   -1.0040    3.3730 o         1 MC3     -0.610000
     40 O31         1.1960   -0.8780   -1.9730 o         1 MC3     -0.555000
     41 O1P        -5.3410   -0.2210    1.1570 o         1 MC3     -0.814500
     42 O2P        -5.0990   -2.6010   -0.0300 o         1 MC3     -0.814500
     43 O3P        -3.1760   -0.9390    0.1730 os        1 MC3     -0.580200
     44 O4P        -4.0020   -1.9770    2.1980 os        1 MC3     -0.577200
     45 P          -4.6280   -1.4490    0.7380 p5        1 MC3      1.438800
     46 H11        -2.8000   -2.4080   -1.2290 h1        1 MC3      0.056700
     47 H12        -2.3040   -2.7840    0.4950 h1        1 MC3      0.056700
     48 H2         -1.0480   -0.4830   -1.2130 h1        1 MC3      0.087700
     49 H31        -0.8850   -0.2190    1.2620 h1        1 MC3      0.074700
     50 H32         0.7640   -0.5660    0.4990 h1        1 MC3      0.074700
     51 H41        -4.8490   -2.5810    3.9510 h1        1 MC3      0.053200
     52 H42        -5.6780   -1.1650    3.1170 h1        1 MC3      0.053200
     53 H51        -2.7500   -1.0770    4.1690 hx        1 MC3      0.091200
     54 H52        -4.1850   -0.8750    5.3160 hx        1 MC3      0.091200
     55 H61        -5.6560    0.9570    2.8550 hx        1 MC3      0.100811
     56 H62        -5.2100    2.3820    3.9210 hx        1 MC3      0.100811
     57 H63        -5.8570    0.8460    4.6880 hx        1 MC3      0.100811
     58 H71        -3.7800    1.2420    6.0810 hx        1 MC3      0.100811
     59 H72        -2.1460    0.9860    5.2840 hx        1 MC3      0.100811
     60 H73        -3.1000    2.5150    4.9550 hx        1 MC3      0.100811
     61 H81        -3.0750    2.1890    2.6140 hx        1 MC3      0.100811
     62 H82        -3.5510    0.5750    1.8720 hx        1 MC3      0.100811
     63 H83        -2.0090    0.7060    2.8730 hx        1 MC3      0.100811
     64 H121        0.5070   -4.0640    2.9410 hc        1 MC3      0.088700
     65 H122       -1.2070   -3.9010    3.5110 hc        1 MC3      0.088700
     66 H131        1.3330   -2.8430    4.9620 hc        1 MC3      0.049700
     67 H132       -0.3620   -2.5490    5.5100 hc        1 MC3      0.049700
     68 H141        0.9450   -5.3340    5.1020 hc        1 MC3      0.044700
     69 H142       -0.7420   -5.0360    5.6720 hc        1 MC3      0.044700
     70 H151        0.1560   -3.7530    7.6480 hc        1 MC3      0.039700
     71 H152        1.8420   -4.0610    7.0790 hc        1 MC3      0.039700
     72 H161        1.4390   -6.5430    7.2340 hc        1 MC3      0.041700
     73 H162       -0.2460   -6.2350    7.8040 hc        1 MC3      0.041700
     74 H171        2.3420   -5.2690    9.2100 hc        1 MC3      0.038700
     75 H172        0.6570   -4.9580    9.7800 hc        1 MC3      0.038700
     76 H181        1.9360   -7.7500    9.3640 hc        1 MC3      0.040200
     77 H182        0.2520   -7.4390    9.9350 hc        1 MC3      0.040200
     78 H191        2.8410   -6.4760   11.3400 hc        1 MC3      0.039200
     79 H192        1.1560   -6.1650   11.9110 hc        1 MC3      0.039200
     80 H201        0.7500   -8.6460   12.0660 hc        1 MC3      0.040200
     81 H202        2.4340   -8.9570   11.4950 hc        1 MC3      0.040200
     82 H211        3.3390   -7.6840   13.4710 hc        1 MC3      0.039200
     83 H212        1.6550   -7.3720   14.0410 hc        1 MC3      0.039200
     84 H221        2.9330  -10.1650   13.6260 hc        1 MC3      0.039700
     85 H222        1.2490   -9.8540   14.1960 hc        1 MC3      0.039700
     86 H231        3.8370   -8.8910   15.5990 hc        1 MC3      0.038200
     87 H232        2.1540   -8.5800   16.1700 hc        1 MC3      0.038200
     88 H241        3.4460  -11.3710   15.7900 hc        1 MC3      0.032700
     89 H242        3.1670  -10.5210   17.3650 hc        1 MC3      0.032700
     90 H243        1.7570  -11.0590   16.3620 hc        1 MC3      0.032700
     91 H321        0.7600   -4.0790   -2.7160 hc        1 MC3      0.079200
     92 H322        2.3550   -3.5580   -2.0240 hc        1 MC3      0.079200
     93 H331        1.0870   -2.5720   -4.6840 hc        1 MC3      0.057700
     94 H332        2.6200   -1.9330   -3.9750 hc        1 MC3      0.057700
     95 H341        2.0790   -4.8950   -4.7320 hc        1 MC3      0.040700
     96 H342        3.6200   -4.2450   -4.0490 hc        1 MC3      0.040700
     97 H351        3.8440   -2.7000   -6.0260 hc        1 MC3      0.042700
     98 H352        2.3070   -3.3550   -6.7110 hc        1 MC3      0.042700
     99 H361        4.8530   -5.0070   -6.0830 hc        1 MC3      0.039700
    100 H362        3.3150   -5.6630   -6.7640 hc        1 MC3      0.039700
    101 H371        3.5350   -4.1230   -8.7450 hc        1 MC3      0.040200
    102 H372        5.0730   -3.4670   -8.0640 hc        1 MC3      0.040200
    103 H381        4.5450   -6.4310   -8.7990 hc        1 MC3      0.039200
    104 H382        6.0830   -5.7730   -8.1200 hc        1 MC3      0.039200
    105 H391        6.3000   -4.2340  -10.1020 hc        1 MC3      0.039700
    106 H392        4.7620   -4.8920  -10.7810 hc        1 MC3      0.039700
    107 H401        5.7730   -7.1990  -10.8350 hc        1 MC3      0.039200
    108 H402        7.3110   -6.5410  -10.1580 hc        1 MC3      0.039200
    109 H411        5.9880   -5.6610  -12.8180 hc        1 MC3      0.039700
    110 H412        7.5260   -5.0030  -12.1410 hc        1 MC3      0.039700
    111 H421        6.9990   -7.9680  -12.8730 hc        1 MC3      0.039200
    112 H422        8.5370   -7.3090  -12.1960 hc        1 MC3      0.039200
    113 H431        7.2120   -6.4290  -14.8540 hc        1 MC3      0.038700
    114 H432        8.7510   -5.7710  -14.1780 hc        1 MC3      0.038700
    115 H441        8.2330   -8.7290  -14.9460 hc        1 MC3      0.032367
    116 H442        9.7760   -8.0700  -14.2680 hc        1 MC3      0.032367
    117 H443        9.1970   -7.5250  -15.8960 hc        1 MC3      0.032367
    118 C31         0.8510   -2.0620   -1.9700 c         1 MC3      0.638100
@<TRIPOS>BOND
     1    1    2 1   
     2    1   43 1   
     3    1   46 1   
     4    1   47 1   
     5    2    3 1   
     6    2   37 1   
     7    2   48 1   
     8    3   38 1   
     9    3   49 1   
    10    3   50 1   
    11    4    5 1   
    12    4   44 1   
    13    4   51 1   
    14    4   52 1   
    15    5   36 1   
    16    5   53 1   
    17    5   54 1   
    18    6   36 1   
    19    6   55 1   
    20    6   56 1   
    21    6   57 1   
    22    7   36 1   
    23    7   58 1   
    24    7   59 1   
    25    7   60 1   
    26    8   36 1   
    27    8   61 1   
    28    8   62 1   
    29    8   63 1   
    30    9   10 1   
    31    9   38 1   
    32    9   39 2   
    33   10   11 1   
    34   10   64 1   
    35   10   65 1   
    36   11   12 1   
    37   11   66 1   
    38   11   67 1   
    39   12   13 1   
    40   12   68 1   
    41   12   69 1   
    42   13   14 1   
    43   13   70 1   
    44   13   71 1   
    45   14   15 1   
    46   14   72 1   
    47   14   73 1   
    48   15   16 1   
    49   15   74 1   
    50   15   75 1   
    51   16   17 1   
    52   16   76 1   
    53   16   77 1   
    54   17   18 1   
    55   17   78 1   
    56   17   79 1   
    57   18   19 1   
    58   18   80 1   
    59   18   81 1   
    60   19   20 1   
    61   19   82 1   
    62   19   83 1   
    63   20   21 1   
    64   20   84 1   
    65   20   85 1   
    66   21   22 1   
    67   21   86 1   
    68   21   87 1   
    69   22   88 1   
    70   22   89 1   
    71   22   90 1   
    72   23   24 1   
    73   23   91 1   
    74   23   92 1   
    75   23  118 1   
    76   24   25 1   
    77   24   93 1   
    78   24   94 1   
    79   25   26 1   
    80   25   95 1   
    81   25   96 1   
    82   26   27 1   
    83   26   97 1   
    84   26   98 1   
    85   27   28 1   
    86   27   99 1   
    87   27  100 1   
    88   28   29 1   
    89   28  101 1   
    90   28  102 1   
    91   29   30 1   
    92   29  103 1   
    93   29  104 1   
    94   30   31 1   
    95   30  105 1   
    96   30  106 1   
    97   31   32 1   
    98   31  107 1   
    99   31  108 1   
   100   32   33 1   
   101   32  109 1   
   102   32  110 1   
   103   33   34 1   
   104   33  111 1   
   105   33  112 1   
   106   34   35 1   
   107   34  113 1   
   108   34  114 1   
   109   35  115 1   
   110   35  116 1   
   111   35  117 1   
   112   37  118 1   
   113   40  118 2   
   114   41   45 1   
   115   42   45 1   
   116   43   45 1   
   117   44   45 1   
@<TRIPOS>SUBSTRUCTURE
     1 MC3         1 TEMP              0 ****  ****    0 ROOT
