@<TRIPOS>MOLECULE
MC3
  118   115     1     0     0
SMALL
bcc


@<TRIPOS>ATOM
      1 C1         -3.9390    1.5990   -1.0530 c3        1 MC3      0.019000
      2 C2         -2.4630    1.2090   -0.9360 c3        1 MC3     -0.002000
      3 C3         -2.1740    0.7700    0.4650 c3        1 MC3     -0.023000
      4 C4         -6.5810    5.8170   -2.3370 c3        1 MC3      0.049000
      5 C5         -6.2770    7.1010   -3.1370 c3        1 MC3     -0.162000
      6 C6         -7.7900    8.1580   -1.6260 c3        1 MC3     -0.201000
      7 C7         -7.0300    9.2910   -3.5390 c3        1 MC3     -0.201000
      8 C8         -8.5340    7.5080   -3.7950 c3        1 MC3     -0.201000
      9 C11        -1.5150    1.7350    2.5480 c1        1 MC3      0.303000
     10 C12        -2.2090    1.8970    3.9050 c2        1 MC3     -0.158500
     11 C13        -1.1660    1.7680    5.0310 c3        1 MC3     -0.156000
     12 C14        -1.8900    1.5150    6.3830 c3        1 MC3     -0.160000
     13 C15        -0.8420    1.1060    7.4700 c3        1 MC3     -0.156500
     14 C16        -1.5460    0.2890    8.5920 c3        1 MC3     -0.158000
     15 C17        -0.4780   -0.6130    9.3360 c3        1 MC3     -0.157000
     16 C18        -1.2090   -1.6710   10.2120 c3        1 MC3     -0.158000
     17 C19        -0.2760   -2.9010   10.4270 c3        1 MC3     -0.157000
     18 C20        -1.0410   -3.9960   11.2010 c3        1 MC3     -0.158000
     19 C21        -0.2520   -5.3160   11.1450 c3        1 MC3     -0.158000
     20 C22        -1.0090   -6.4040   11.9480 c3        1 MC3     -0.158000
     21 C23        -0.2580   -7.7160   11.8540 c3        1 MC3     -0.159000
     22 C24        -1.0010   -8.7810   12.6360 c3        1 MC3     -0.210500
     23 C31        -0.9800    0.3360   -2.6080 c1        1 MC3      0.333000
     24 C32        -0.2220   -0.9040   -3.1780 c2        1 MC3     -0.158500
     25 C33         0.5100   -0.5080   -4.4980 c3        1 MC3     -0.156000
     26 C34         1.5070   -1.6840   -4.9260 c3        1 MC3     -0.160000
     27 C35         2.2780   -1.2740   -6.2080 c3        1 MC3     -0.156500
     28 C36         3.5040   -2.2100   -6.3970 c3        1 MC3     -0.158000
     29 C37         4.3800   -1.6920   -7.5860 c3        1 MC3     -0.157000
     30 C38         5.6740   -2.5620   -7.6990 c3        1 MC3     -0.158000
     31 C39         6.6340   -1.9250   -8.7150 c3        1 MC3     -0.157000
     32 C40         7.9510   -2.7580   -8.7790 c3        1 MC3     -0.158000
     33 C41         9.0130   -1.9850   -9.5920 c3        1 MC3     -0.158000
     34 C42        10.3030   -2.8240   -9.6780 c3        1 MC3     -0.158000
     35 C43        11.3830   -2.0280  -10.3890 c3        1 MC3     -0.159000
     36 C44        12.6360   -2.8660  -10.4970 c3        1 MC3     -0.210500
     37 N          -7.4060    8.0240   -3.0280 n4        1 MC3      0.056000
     38 O2         -2.1830    0.1480   -1.8310 os        1 MC3     -0.263000
     39 O3         -2.2630    1.8850    1.3400 os        1 MC3     -0.283000
     40 O11        -0.3340    1.4770    2.5000 o         1 MC3     -0.351000
     41 O31        -0.6220    1.4520   -2.9060 o         1 MC3     -0.414000
     42 O1P        -6.1940    2.7740   -2.9410 o         1 MC3     -0.810500
     43 O2P        -6.3030    3.3880   -0.5560 o         1 MC3     -0.810500
     44 O3P        -4.0450    2.9050   -1.6040 os        1 MC3     -0.742000
     45 O4P        -5.3720    5.0320   -2.2110 os        1 MC3     -0.733000
     46 P          -5.4990    3.5190   -1.8280 p5        1 MC3      1.902000
     47 H11        -4.3550    1.5860   -0.1570 h1        1 MC3      0.103500
     48 H12        -4.3990    0.9620   -1.6340 h1        1 MC3      0.103500
     49 H2         -1.9050    1.9780   -1.1570 h1        1 MC3      0.148000
     50 H31        -1.2700    0.3910    0.5090 h1        1 MC3      0.112000
     51 H32        -2.8250    0.0920    0.7350 h1        1 MC3      0.112000
     52 H41        -7.2660    5.2920   -2.8080 h1        1 MC3      0.093500
     53 H42        -6.9090    6.0580   -1.4460 h1        1 MC3      0.093500
     54 H51        -6.1320    6.8730   -4.0790 hx        1 MC3      0.137000
     55 H52        -5.4640    7.5300   -2.7730 hx        1 MC3      0.137000
     56 H61        -8.3330    8.9770   -1.5100 hx        1 MC3      0.139222
     57 H62        -8.3140    7.3810   -1.3570 hx        1 MC3      0.139222
     58 H63        -6.9740    8.2190   -1.0630 hx        1 MC3      0.139222
     59 H71        -6.2500    9.6240   -3.0460 hx        1 MC3      0.139222
     60 H72        -7.7700    9.9160   -3.4360 hx        1 MC3      0.139222
     61 H73        -6.8020    9.2070   -4.4930 hx        1 MC3      0.139222
     62 H81        -8.2340    7.2840   -4.7170 hx        1 MC3      0.139222
     63 H82        -9.2440    8.1930   -3.8370 hx        1 MC3      0.139222
     64 H83        -8.8810    6.7080   -3.3640 hx        1 MC3      0.139222
     65 H121       -2.8890    1.2020    4.0090 ha        1 MC3      0.116250
     66 H122       -2.6320    2.7740    3.9530 ha        1 MC3      0.116250
     67 H131       -0.5660    1.0160    4.8350 hc        1 MC3      0.093750
     68 H132       -0.6430    2.5980    5.0900 hc        1 MC3      0.093750
     69 H141       -2.5450    0.7930    6.2730 hc        1 MC3      0.083250
     70 H142       -2.3550    2.3420    6.6680 hc        1 MC3      0.083250
     71 H151       -0.1480    0.5620    7.0620 hc        1 MC3      0.080250
     72 H152       -0.4370    1.9200    7.8600 hc        1 MC3      0.080250
     73 H161       -2.2270   -0.2740    8.2010 hc        1 MC3      0.080750
     74 H162       -1.9630    0.9100    9.2400 hc        1 MC3      0.080750
     75 H171        0.0900   -0.0420    9.9140 hc        1 MC3      0.079000
     76 H172        0.0780   -1.0650    8.6800 hc        1 MC3      0.079000
     77 H181       -2.0240   -1.9560    9.7640 hc        1 MC3      0.079500
     78 H182       -1.4360   -1.2750   11.0830 hc        1 MC3      0.079500
     79 H191        0.0060   -3.2510    9.5610 hc        1 MC3      0.078500
     80 H192        0.5160   -2.6250   10.9440 hc        1 MC3      0.078500
     81 H201       -1.9220   -4.1270   10.7950 hc        1 MC3      0.079250
     82 H202       -1.1500   -3.7200   12.1380 hc        1 MC3      0.079250
     83 H211        0.6470   -5.1810   11.5380 hc        1 MC3      0.078500
     84 H212       -0.1600   -5.6040   10.2090 hc        1 MC3      0.078500
     85 H221       -1.9060   -6.5150   11.5780 hc        1 MC3      0.079000
     86 H222       -1.0750   -6.1310   12.8910 hc        1 MC3      0.079000
     87 H231       -0.1900   -7.9850   10.9230 hc        1 MC3      0.077500
     88 H232        0.6380   -7.6050   12.2270 hc        1 MC3      0.077500
     89 H241       -1.8890   -8.9160   12.2450 hc        1 MC3      0.071667
     90 H242       -0.4970   -9.6230   12.6020 hc        1 MC3      0.071667
     91 H243       -1.0970   -8.4940   13.5720 hc        1 MC3      0.071667
     92 H321       -0.8610   -1.6190   -3.3630 ha        1 MC3      0.116250
     93 H322        0.4350   -1.2150   -2.5220 ha        1 MC3      0.116250
     94 H331        1.0220    0.3200   -4.3530 hc        1 MC3      0.093750
     95 H332       -0.1530   -0.3630   -5.2110 hc        1 MC3      0.093750
     96 H341        0.9920   -2.5000   -5.1030 hc        1 MC3      0.083250
     97 H342        2.1470   -1.8520   -4.1990 hc        1 MC3      0.083250
     98 H351        1.6930   -1.3500   -6.9750 hc        1 MC3      0.080250
     99 H352        2.5820   -0.3550   -6.1230 hc        1 MC3      0.080250
    100 H361        4.0430   -2.2180   -5.5690 hc        1 MC3      0.080750
    101 H362        3.1950   -3.1150   -6.5920 hc        1 MC3      0.080750
    102 H371        3.8730   -1.7560   -8.4150 hc        1 MC3      0.079000
    103 H372        4.6300   -0.7480   -7.4250 hc        1 MC3      0.079000
    104 H381        5.4390   -3.4520   -7.9920 hc        1 MC3      0.079500
    105 H382        6.1110   -2.6120   -6.8230 hc        1 MC3      0.079500
    106 H391        6.8390   -1.0100   -8.4390 hc        1 MC3      0.078500
    107 H392        6.2130   -1.9130   -9.5970 hc        1 MC3      0.078500
    108 H401        7.7720   -3.6190   -9.2120 hc        1 MC3      0.079250
    109 H402        8.2840   -2.9120   -7.8710 hc        1 MC3      0.079250
    110 H411        9.2060   -1.1390   -9.1520 hc        1 MC3      0.078500
    111 H412        8.6730   -1.8140  -10.4970 hc        1 MC3      0.078500
    112 H421       10.6050   -3.0480   -8.7790 hc        1 MC3      0.079000
    113 H422       10.1230   -3.6510  -10.1790 hc        1 MC3      0.079000
    114 H431       11.0710   -1.7840  -11.2910 hc        1 MC3      0.077500
    115 H432       11.5760   -1.2210   -9.8830 hc        1 MC3      0.077500
    116 H441       12.4370   -3.6910  -10.9950 hc        1 MC3      0.071667
    117 H442       12.9510   -3.0930   -9.6060 hc        1 MC3      0.071667
    118 H443       13.3320   -2.3560  -10.9720 hc        1 MC3      0.071667
@<TRIPOS>BOND
     1    1    2 1   
     2    1   44 1   
     3    1   47 1   
     4    1   48 1   
     5    2    3 1   
     6    2   38 1   
     7    2   49 1   
     8    3   39 1   
     9    3   50 1   
    10    3   51 1   
    11    4    5 1   
    12    4   45 1   
    13    4   52 1   
    14    4   53 1   
    15    5   37 1   
    16    5   54 1   
    17    5   55 1   
    18    6   37 1   
    19    6   56 1   
    20    6   57 1   
    21    6   58 1   
    22    7   37 1   
    23    7   59 1   
    24    7   60 1   
    25    7   61 1   
    26    8   37 1   
    27    8   62 1   
    28    8   63 1   
    29    8   64 1   
    30    9   39 1   
    31    9   40 1   
    32   10   11 1   
    33   10   65 1   
    34   10   66 1   
    35   11   12 1   
    36   11   67 1   
    37   11   68 1   
    38   12   13 1   
    39   12   69 1   
    40   12   70 1   
    41   13   14 1   
    42   13   71 1   
    43   13   72 1   
    44   14   15 1   
    45   14   73 1   
    46   14   74 1   
    47   15   16 1   
    48   15   75 1   
    49   15   76 1   
    50   16   17 1   
    51   16   77 1   
    52   16   78 1   
    53   17   18 1   
    54   17   79 1   
    55   17   80 1   
    56   18   19 1   
    57   18   81 1   
    58   18   82 1   
    59   19   20 1   
    60   19   83 1   
    61   19   84 1   
    62   20   21 1   
    63   20   85 1   
    64   20   86 1   
    65   21   22 1   
    66   21   87 1   
    67   21   88 1   
    68   22   89 1   
    69   22   90 1   
    70   22   91 1   
    71   23   38 1   
    72   23   41 1   
    73   24   25 1   
    74   24   92 1   
    75   24   93 1   
    76   25   26 1   
    77   25   94 1   
    78   25   95 1   
    79   26   27 1   
    80   26   96 1   
    81   26   97 1   
    82   27   28 1   
    83   27   98 1   
    84   27   99 1   
    85   28   29 1   
    86   28  100 1   
    87   28  101 1   
    88   29   30 1   
    89   29  102 1   
    90   29  103 1   
    91   30   31 1   
    92   30  104 1   
    93   30  105 1   
    94   31   32 1   
    95   31  106 1   
    96   31  107 1   
    97   32   33 1   
    98   32  108 1   
    99   32  109 1   
   100   33   34 1   
   101   33  110 1   
   102   33  111 1   
   103   34   35 1   
   104   34  112 1   
   105   34  113 1   
   106   35   36 1   
   107   35  114 1   
   108   35  115 1   
   109   36  116 1   
   110   36  117 1   
   111   36  118 1   
   112   42   46 1   
   113   43   46 1   
   114   44   46 1   
   115   45   46 1   
@<TRIPOS>SUBSTRUCTURE
     1 MC3         1 TEMP              0 ****  ****    0 ROOT
