@<TRIPOS>MOLECULE
MC3
  118   117     1     0     0
SMALL
bcc


@<TRIPOS>ATOM
      1 C1         -0.5920   -3.6920   -1.5160 c3        1 MC3      0.175400
      2 C2         -1.1780   -3.1730   -0.1980 c3        1 MC3      0.135100
      3 C3         -0.0990   -2.8090    0.8190 c3        1 MC3      0.112400
      4 C4          3.4470   -5.0920   -2.2040 c3        1 MC3      0.197400
      5 C5          4.1110   -5.0150   -0.8150 c3        1 MC3      0.079800
      6 C6          3.9490   -7.4560   -0.4350 c3        1 MC3      0.075433
      7 C7          4.7580   -5.9710    1.3120 c3        1 MC3      0.075433
      8 C8          2.4130   -5.9580    0.7190 c3        1 MC3      0.075433
      9 C11         2.0460   -1.8070    0.3770 c         1 MC3      0.664100
     10 C12         2.7210   -0.6820   -0.3460 c3        1 MC3     -0.135400
     11 C13         3.9910   -0.2560    0.3580 c3        1 MC3     -0.075400
     12 C14         4.7330    0.7830   -0.4560 c3        1 MC3     -0.080400
     13 C15         5.9960    1.2280    0.2500 c3        1 MC3     -0.078400
     14 C16         6.7440    2.2610   -0.5650 c3        1 MC3     -0.079400
     15 C17         8.0070    2.7070    0.1400 c3        1 MC3     -0.078400
     16 C18         8.7550    3.7400   -0.6750 c3        1 MC3     -0.079400
     17 C19        10.0180    4.1860    0.0290 c3        1 MC3     -0.078400
     18 C20        10.7670    5.2180   -0.7860 c3        1 MC3     -0.079400
     19 C21        12.0300    5.6650   -0.0820 c3        1 MC3     -0.079400
     20 C22        12.7790    6.6970   -0.8980 c3        1 MC3     -0.079400
     21 C23        14.0420    7.1450   -0.1940 c3        1 MC3     -0.080400
     22 C24        14.7910    8.1720   -1.0030 c3        1 MC3     -0.093100
     23 C32        -3.6870   -0.4270   -0.1920 c3        1 MC3     -0.127400
     24 C33        -5.1500   -0.5180    0.1880 c3        1 MC3     -0.079400
     25 C34        -5.8880    0.7420   -0.2100 c3        1 MC3     -0.078400
     26 C35        -7.3550    0.6500    0.1500 c3        1 MC3     -0.079400
     27 C36        -8.0950    1.9110   -0.2410 c3        1 MC3     -0.079400
     28 C37        -9.5630    1.8200    0.1170 c3        1 MC3     -0.079400
     29 C38       -10.3030    3.0810   -0.2730 c3        1 MC3     -0.078400
     30 C39       -11.7710    2.9890    0.0860 c3        1 MC3     -0.079400
     31 C40       -12.5120    4.2500   -0.3040 c3        1 MC3     -0.078400
     32 C41       -13.9800    4.1590    0.0540 c3        1 MC3     -0.079400
     33 C42       -14.7200    5.4200   -0.3360 c3        1 MC3     -0.079400
     34 C43       -16.1890    5.3300    0.0220 c3        1 MC3     -0.080400
     35 C44       -16.9300    6.5830   -0.3640 c3        1 MC3     -0.092100
     36 N           3.7960   -6.1060    0.1760 n4        1 MC3     -0.576800
     37 O2         -1.9630   -2.0250   -0.5580 os        1 MC3     -0.426900
     38 O3          0.6920   -1.7330    0.2930 os        1 MC3     -0.419900
     39 O11         2.5710   -2.7390    1.0010 o         1 MC3     -0.610000
     40 O31        -3.0500   -2.2070    1.3920 o         1 MC3     -0.555000
     41 O1P         1.3960   -6.8280   -2.0500 o         1 MC3     -0.814500
     42 O2P         0.2810   -5.1270   -3.7810 o         1 MC3     -0.814500
     43 O3P        -0.0060   -4.9380   -1.2540 os        1 MC3     -0.580200
     44 O4P         2.1900   -4.5230   -2.1860 os        1 MC3     -0.577200
     45 P           0.8810   -5.5160   -2.5060 p5        1 MC3      1.438800
     46 H11        -1.3970   -3.8160   -2.2890 h1        1 MC3      0.056700
     47 H12         0.1910   -2.9860   -1.9030 h1        1 MC3      0.056700
     48 H2         -1.8400   -3.9540    0.2720 h1        1 MC3      0.087700
     49 H31         0.5290   -3.7160    1.0180 h1        1 MC3      0.074700
     50 H32        -0.5610   -2.4210    1.7650 h1        1 MC3      0.074700
     51 H41         3.4190   -6.1470   -2.5920 h1        1 MC3      0.053200
     52 H42         4.1080   -4.4630   -2.8730 h1        1 MC3      0.053200
     53 H51         5.2260   -5.0330   -0.9660 hx        1 MC3      0.091200
     54 H52         3.8030   -4.0390   -0.3350 hx        1 MC3      0.091200
     55 H61         4.9100   -7.4930   -1.0090 hx        1 MC3      0.100811
     56 H62         3.9600   -8.2260    0.3790 hx        1 MC3      0.100811
     57 H63         3.0740   -7.6640   -1.1260 hx        1 MC3      0.100811
     58 H71         4.6780   -4.9350    1.7380 hx        1 MC3      0.100811
     59 H72         4.5040   -6.7210    2.1040 hx        1 MC3      0.100811
     60 H73         5.8010   -6.1520    0.9450 hx        1 MC3      0.100811
     61 H81         1.6720   -6.0540   -0.1340 hx        1 MC3      0.100811
     62 H82         2.2280   -6.7710    1.4670 hx        1 MC3      0.100811
     63 H83         2.3080   -4.9480    1.1960 hx        1 MC3      0.100811
     64 H121        2.0120    0.1830   -0.4400 hc        1 MC3      0.088700
     65 H122        2.9480   -1.0490   -1.3850 hc        1 MC3      0.088700
     66 H131        4.6450   -1.1520    0.5250 hc        1 MC3      0.049700
     67 H132        3.7400    0.1630    1.3680 hc        1 MC3      0.049700
     68 H141        4.0680    1.6690   -0.6320 hc        1 MC3      0.044700
     69 H142        4.9930    0.3590   -1.4620 hc        1 MC3      0.044700
     70 H151        6.6590    0.3400    0.4320 hc        1 MC3      0.039700
     71 H152        5.7360    1.6570    1.2540 hc        1 MC3      0.039700
     72 H161        6.0820    3.1480   -0.7470 hc        1 MC3      0.041700
     73 H162        7.0050    1.8320   -1.5690 hc        1 MC3      0.041700
     74 H171        8.6690    1.8200    0.3230 hc        1 MC3      0.038700
     75 H172        7.7460    3.1370    1.1430 hc        1 MC3      0.038700
     76 H181        8.0930    4.6270   -0.8580 hc        1 MC3      0.040200
     77 H182        9.0160    3.3100   -1.6780 hc        1 MC3      0.040200
     78 H191       10.6810    3.2990    0.2130 hc        1 MC3      0.039200
     79 H192        9.7580    4.6170    1.0320 hc        1 MC3      0.039200
     80 H201       10.1050    6.1050   -0.9700 hc        1 MC3      0.040200
     81 H202       11.0280    4.7880   -1.7890 hc        1 MC3      0.040200
     82 H211       12.6920    4.7780    0.1020 hc        1 MC3      0.039200
     83 H212       11.7690    6.0960    0.9210 hc        1 MC3      0.039200
     84 H221       12.1170    7.5840   -1.0810 hc        1 MC3      0.039700
     85 H222       13.0400    6.2670   -1.9000 hc        1 MC3      0.039700
     86 H231       14.7020    6.2560   -0.0100 hc        1 MC3      0.038200
     87 H232       13.7790    7.5730    0.8090 hc        1 MC3      0.038200
     88 H241       15.7180    8.4890   -0.4670 hc        1 MC3      0.032700
     89 H242       15.0830    7.7550   -1.9970 hc        1 MC3      0.032700
     90 H243       14.1580    9.0760   -1.1750 hc        1 MC3      0.032700
     91 H321       -3.2220    0.4900    0.2610 hc        1 MC3      0.079200
     92 H322       -3.5720   -0.3560   -1.3060 hc        1 MC3      0.079200
     93 H331       -5.6150   -1.4050   -0.3190 hc        1 MC3      0.057700
     94 H332       -5.2400   -0.6850    1.2940 hc        1 MC3      0.057700
     95 H341       -5.4290    1.6270    0.3070 hc        1 MC3      0.040700
     96 H342       -5.7800    0.9100   -1.3140 hc        1 MC3      0.040700
     97 H351       -7.8150   -0.2320   -0.3690 hc        1 MC3      0.042700
     98 H352       -7.4620    0.4770    1.2530 hc        1 MC3      0.042700
     99 H361       -7.6360    2.7940    0.2780 hc        1 MC3      0.039700
    100 H362       -7.9880    2.0840   -1.3450 hc        1 MC3      0.039700
    101 H371      -10.0230    0.9380   -0.4020 hc        1 MC3      0.040200
    102 H372       -9.6710    1.6470    1.2210 hc        1 MC3      0.040200
    103 H381       -9.8440    3.9630    0.2460 hc        1 MC3      0.039200
    104 H382      -10.1960    3.2540   -1.3760 hc        1 MC3      0.039200
    105 H391      -12.2310    2.1070   -0.4330 hc        1 MC3      0.039700
    106 H392      -11.8790    2.8160    1.1890 hc        1 MC3      0.039700
    107 H401      -12.0520    5.1330    0.2140 hc        1 MC3      0.039200
    108 H402      -12.4050    4.4230   -1.4080 hc        1 MC3      0.039200
    109 H411      -14.4390    3.2770   -0.4650 hc        1 MC3      0.039700
    110 H412      -14.0870    3.9860    1.1580 hc        1 MC3      0.039700
    111 H421      -14.2610    6.3020    0.1830 hc        1 MC3      0.039200
    112 H422      -14.6140    5.5930   -1.4390 hc        1 MC3      0.039200
    113 H431      -16.6460    4.4460   -0.4960 hc        1 MC3      0.038700
    114 H432      -16.2940    5.1550    1.1260 hc        1 MC3      0.038700
    115 H441      -18.0100    6.4950   -0.0910 hc        1 MC3      0.032367
    116 H442      -16.5050    7.4710    0.1620 hc        1 MC3      0.032367
    117 H443      -16.8580    6.7610   -1.4640 hc        1 MC3      0.032367
    118 C31        -2.9250   -1.6100    0.3200 c         1 MC3      0.638100
@<TRIPOS>BOND
     1    1    2 1   
     2    1   43 1   
     3    1   46 1   
     4    1   47 1   
     5    2    3 1   
     6    2   37 1   
     7    2   48 1   
     8    3   38 1   
     9    3   49 1   
    10    3   50 1   
    11    4    5 1   
    12    4   44 1   
    13    4   51 1   
    14    4   52 1   
    15    5   36 1   
    16    5   53 1   
    17    5   54 1   
    18    6   36 1   
    19    6   55 1   
    20    6   56 1   
    21    6   57 1   
    22    7   36 1   
    23    7   58 1   
    24    7   59 1   
    25    7   60 1   
    26    8   36 1   
    27    8   61 1   
    28    8   62 1   
    29    8   63 1   
    30    9   10 1   
    31    9   38 1   
    32    9   39 2   
    33   10   11 1   
    34   10   64 1   
    35   10   65 1   
    36   11   12 1   
    37   11   66 1   
    38   11   67 1   
    39   12   13 1   
    40   12   68 1   
    41   12   69 1   
    42   13   14 1   
    43   13   70 1   
    44   13   71 1   
    45   14   15 1   
    46   14   72 1   
    47   14   73 1   
    48   15   16 1   
    49   15   74 1   
    50   15   75 1   
    51   16   17 1   
    52   16   76 1   
    53   16   77 1   
    54   17   18 1   
    55   17   78 1   
    56   17   79 1   
    57   18   19 1   
    58   18   80 1   
    59   18   81 1   
    60   19   20 1   
    61   19   82 1   
    62   19   83 1   
    63   20   21 1   
    64   20   84 1   
    65   20   85 1   
    66   21   22 1   
    67   21   86 1   
    68   21   87 1   
    69   22   88 1   
    70   22   89 1   
    71   22   90 1   
    72   23   24 1   
    73   23   91 1   
    74   23   92 1   
    75   23  118 1   
    76   24   25 1   
    77   24   93 1   
    78   24   94 1   
    79   25   26 1   
    80   25   95 1   
    81   25   96 1   
    82   26   27 1   
    83   26   97 1   
    84   26   98 1   
    85   27   28 1   
    86   27   99 1   
    87   27  100 1   
    88   28   29 1   
    89   28  101 1   
    90   28  102 1   
    91   29   30 1   
    92   29  103 1   
    93   29  104 1   
    94   30   31 1   
    95   30  105 1   
    96   30  106 1   
    97   31   32 1   
    98   31  107 1   
    99   31  108 1   
   100   32   33 1   
   101   32  109 1   
   102   32  110 1   
   103   33   34 1   
   104   33  111 1   
   105   33  112 1   
   106   34   35 1   
   107   34  113 1   
   108   34  114 1   
   109   35  115 1   
   110   35  116 1   
   111   35  117 1   
   112   37  118 1   
   113   40  118 2   
   114   41   45 1   
   115   42   45 1   
   116   43   45 1   
   117   44   45 1   
@<TRIPOS>SUBSTRUCTURE
     1 MC3         1 TEMP              0 ****  ****    0 ROOT
