@<TRIPOS>MOLECULE
MC5
   43    62     1     0     0
SMALL
bcc


@<TRIPOS>ATOM
      1 F           0.0000    0.0000    0.0000 f         1 MC5     -0.079000
      2 N          -1.6230    2.0350  -13.1140 ns        1 MC5     -0.232000
      3 S          -1.1440    2.2620  -10.6480 ss        1 MC5     -0.038000
      4 C1          0.6020   -0.0030   -7.3940 c3        1 MC5     -0.150000
      5 O1          2.2210   -0.0020   -3.5890 os        1 MC5     -0.159000
      6 C2          2.0080   -0.0030   -7.2210 DU        1 MC5      0.084000
      7 O2          0.1290    0.9750  -13.9960 o         1 MC5     -0.241000
      8 C3         -0.2340   -0.0010   -6.2640 c2        1 MC5     -0.363000
      9 O3         -3.2970    3.1000  -12.0010 o         1 MC5     -0.204000
     10 C4          0.0680   -0.0080   -8.6950 c2        1 MC5     -0.304000
     11 C5          0.9060   -0.0140   -9.7660 DU        1 MC5      0.443000
     12 C6          2.5430   -0.0030   -5.9220 c2        1 MC5     -0.254000
     13 C7          1.7020   -0.0020   -4.8460 c3        1 MC5      0.585000
     14 C8          2.8420   -0.0050   -8.3520 c3        1 MC5      0.171000
     15 C9          0.3150   -0.0010   -5.0200 c2        1 MC5      0.118000
     16 C10         4.1160    0.0000    0.0000 c3        1 MC5     -0.235000
     17 C11         2.2900   -0.0150   -9.5960 c3        1 MC5     -0.407000
     18 C13         0.1360    1.4210  -11.6370 c3        1 MC5     -0.310000
     19 C14        -0.4410    1.4470  -13.0360 c2        1 MC5      0.308000
     20 C15         3.4250    0.0000    1.1980 c2        1 MC5     -0.079000
     21 C16        -2.2170    2.5430  -12.0310 c3        1 MC5      0.296000
     22 C17         2.0440    0.0000    1.1980 c2        1 MC5     -0.150000
     23 C19         2.0440   -0.0000   -1.1980 DU        1 MC5      0.078000
     24 C20         1.3500   -0.0000    0.0010 c3        1 MC5      0.521000
     25 C21         3.4260   -0.0010   -1.1980 c3        1 MC5     -0.265000
     26 HN         -1.3610    1.8540  -12.1650 DU        1 MC5      0.168000
     27 H3         -0.1310    0.0320   -7.3420 DU        1 MC5      0.388000
     28 H4         -0.3130    0.3660   -9.6370 DU        1 MC5      0.322000
     29 H6          1.4680   -0.0030   -6.0510 DU        1 MC5      0.111000
     30 H8          1.7670   -0.0050   -8.4890 DU        1 MC5     -0.065000
     31 H9          1.3700   -0.0410   -5.2610 ha        1 MC5     -0.387000
     32 H10         4.0910   -0.0010   -1.0830 DU        1 MC5      0.270000
     33 H11         1.8200   -0.0120   -8.6200 DU        1 MC5      0.250000
     34 H12         0.9100   -0.0400  -10.2450 ha        1 MC5     -0.471000
     35 H12A        1.3780   -0.0190  -10.8830 DU        1 MC5      0.321000
     36 H13         0.5510    0.4420  -11.8460 DU        1 MC5      0.143000
     37 H15         3.0820   -0.0260    0.1710 DU        1 MC5      0.232000
     38 H17         1.9640    0.1630    0.1300 DU        1 MC5     -0.266000
     39 H18         1.8330   -0.0010   -1.5660 DU        1 MC5     -0.899000
     40 H18A        1.3400   -0.0010   -1.4220 DU        1 MC5      0.250000
     41 H21         2.4970    0.3100   -1.6600 DU        1 MC5      0.292000
     42 C18         1.2910   -0.0010   -2.5050 c3        1 MC5      0.380000
     43 C12         0.3300   -0.0200  -11.1590 DU        1 MC5     -0.174000
@<TRIPOS>BOND
     1    1   24 1   
     2    2   19 1   
     3    2   21 1   
     4    2   26 1   
     5    3   18 1   
     6    3   21 1   
     7    4    6 1   
     8    4    8 1   
     9    4   10 1   
    10    4   27 1   
    11    5   13 1   
    12    5   42 1   
    13    6   12 1   
    14    6   14 1   
    15    6   29 1   
    16    6   30 1   
    17    7   19 1   
    18    8   15 1   
    19    8   27 1   
    20    9   21 1   
    21   10   11 1   
    22   10   28 1   
    23   11   17 1   
    24   11   28 1   
    25   11   35 1   
    26   11   43 1   
    27   12   13 1   
    28   12   29 1   
    29   13   15 1   
    30   13   29 1   
    31   14   17 1   
    32   14   30 1   
    33   14   33 1   
    34   15   31 1   
    35   16   20 1   
    36   16   25 1   
    37   16   32 1   
    38   16   37 1   
    39   17   30 1   
    40   17   33 1   
    41   18   19 1   
    42   18   36 1   
    43   18   43 1   
    44   20   22 1   
    45   20   37 1   
    46   21   26 1   
    47   22   24 1   
    48   22   38 1   
    49   23   24 1   
    50   23   25 1   
    51   23   40 1   
    52   23   41 1   
    53   23   42 1   
    54   24   38 1   
    55   25   32 1   
    56   25   41 1   
    57   34   43 1   
    58   35   43 1   
    59   36   43 1   
    60   39   40 1   
    61   39   42 1   
    62   40   42 1   
@<TRIPOS>SUBSTRUCTURE
     1 MC5         1 TEMP              0 ****  ****    0 ROOT
