@<TRIPOS>MOLECULE
MC5
   43    42     1     0     0
SMALL
bcc


@<TRIPOS>ATOM
      1 F           3.7030   -2.0000   -1.9510 f         1 MC5     -0.179000
      2 N          -0.2400   -3.6610  -11.5640 n         1 MC5     -0.393000
      3 S           0.9230   -2.8760   -9.3670 ss        1 MC5      0.294000
      4 C1         -1.2780    3.1930   -5.2640 c2        1 MC5     -0.130000
      5 O1          1.6850    0.8640   -7.3350 os        1 MC5     -0.207000
      6 C2          2.9510    3.2900   -6.0370 c1        1 MC5     -0.117000
      7 O2         -1.0860   -1.6750  -12.4090 o         1 MC5     -0.297000
      8 C3         -1.3750    1.8490   -5.8380 c2        1 MC5     -0.049000
      9 O3          0.7630   -5.3770  -10.3670 o         1 MC5     -0.285000
     10 C4         -0.3090    3.9990   -5.7270 c2        1 MC5     -0.134000
     11 C5          0.2510    5.1800   -5.1060 c2        1 MC5     -0.103000
     12 C6          3.6050    2.1960   -6.6080 c2        1 MC5     -0.096000
     13 C7          3.0390    1.0990   -7.1470 c2        1 MC5     -0.002000
     14 C8          2.4010    4.2510   -5.5660 c1        1 MC5     -0.110000
     15 C9         -0.2550    1.2100   -6.0670 c1        1 MC5     -0.213000
     16 C10         2.2240   -3.6700   -5.1190 c1        1 MC5     -0.094000
     17 C11         1.6000    5.2830   -5.0470 c2        1 MC5     -0.061000
     18 C13         0.1540   -1.6640  -10.3100 c2        1 MC5     -0.358000
     19 C14        -0.4600   -2.2710  -11.5260 c2        1 MC5      0.344000
     20 C15         2.3650   -2.6370   -4.4970 c1        1 MC5     -0.187000
     21 C16         0.4860   -4.1800  -10.4860 c2        1 MC5      0.188000
     22 C17         2.4280   -1.4090   -3.9380 c1        1 MC5     -0.018000
     23 C19         1.9600   -0.3680   -1.8060 c2        1 MC5     -0.190000
     24 C20         3.0300   -1.0070   -2.6620 c3        1 MC5      0.074000
     25 C21         1.1840    0.6230   -2.2340 c2        1 MC5     -0.177000
     26 HN         -0.5800   -4.2290  -12.3040 hn        1 MC5      0.268000
     27 H3         -2.3720    1.4280   -6.0380 ha        1 MC5      0.145000
     28 H4          0.2470    3.6710   -6.6330 ha        1 MC5      0.142000
     29 H6          4.7120    2.2630   -6.6190 ha        1 MC5      0.148000
     30 H8         -1.9500    3.4420   -4.4320 ha        1 MC5      0.136000
     31 H9          3.6330    0.2910   -7.6080 h4        1 MC5      0.148000
     32 H10         1.2450    1.0280   -3.2550 ha        1 MC5      0.128000
     33 H11         0.5420    0.0860   -9.1380 ha        1 MC5      0.156500
     34 H12        -0.4160    5.9450   -4.6830 ha        1 MC5      0.140000
     35 H12A       -0.4340    0.3370  -10.7140 ha        1 MC5      0.156500
     36 H13         2.1080    6.1460   -4.5890 ha        1 MC5      0.146000
     37 H15         2.0940   -4.5670   -5.6730 ha        1 MC5      0.236000
     38 H17         3.7990   -0.2100   -2.9340 h1        1 MC5      0.143000
     39 H18         1.8960   -0.7850   -0.7890 ha        1 MC5      0.145000
     40 H18A        1.4330    0.0760   -5.3730 h4        1 MC5      0.200000
     41 H21         0.4280    1.0880   -1.5860 ha        1 MC5      0.128000
     42 C18         0.9480    0.7040   -6.1490 c2        1 MC5      0.009000
     43 C12         0.0870   -0.3600  -10.0390 c2        1 MC5     -0.075000
@<TRIPOS>BOND
     1    1   24 1   
     2    2   19 1   
     3    2   21 1   
     4    2   26 1   
     5    3   18 1   
     6    3   21 1   
     7    4    8 1   
     8    4   10 1   
     9    4   30 1   
    10    5   13 1   
    11    5   42 1   
    12    6   12 1   
    13    6   14 1   
    14    7   19 1   
    15    8   15 1   
    16    8   27 1   
    17    9   21 1   
    18   10   11 1   
    19   10   28 1   
    20   11   17 1   
    21   11   34 1   
    22   12   13 1   
    23   12   29 1   
    24   13   31 1   
    25   14   17 1   
    26   15   42 1   
    27   16   20 1   
    28   16   37 1   
    29   17   36 1   
    30   18   19 1   
    31   18   43 1   
    32   20   22 1   
    33   22   24 1   
    34   23   24 1   
    35   23   25 1   
    36   23   39 1   
    37   24   38 1   
    38   25   32 1   
    39   25   41 1   
    40   33   43 1   
    41   35   43 1   
    42   40   42 1   
@<TRIPOS>SUBSTRUCTURE
     1 MC5         1 TEMP              0 ****  ****    0 ROOT
