@<TRIPOS>MOLECULE
MC5
   43    46     1     0     0
SMALL
bcc


@<TRIPOS>ATOM
      1 F           6.3960    2.4490   -0.0750 f         1 MC5     -0.142900
      2 N          -7.2960    0.3880   -0.4290 n         1 MC5     -0.615500
      3 S          -4.8990    1.3860   -0.6380 ss        1 MC5     -0.170700
      4 C1         -0.4920   -0.1540    0.8970 ca        1 MC5     -0.067000
      5 O1          3.5970   -0.6250    0.1430 os        1 MC5     -0.329900
      6 C2         -0.0030   -1.2120    0.0880 ca        1 MC5     -0.001000
      7 O2         -6.9230   -1.8700   -0.0960 o         1 MC5     -0.571500
      8 C3          0.4290    0.7720    1.4540 ca        1 MC5     -0.081000
      9 O3         -7.2570    2.6760   -0.7630 o         1 MC5     -0.550500
     10 C4         -1.8900   -0.0430    1.1310 ca        1 MC5     -0.088000
     11 C5         -2.7690   -0.9490    0.5810 ca        1 MC5     -0.108300
     12 C6          1.3870   -1.3260   -0.1530 ca        1 MC5     -0.159000
     13 C7          2.2590   -0.4060    0.4090 ca        1 MC5      0.130100
     14 C8         -0.9320   -2.1390   -0.4670 ca        1 MC5     -0.119000
     15 C9          1.7780    0.6560    1.2210 ca        1 MC5     -0.182000
     16 C10         7.5100   -1.4870   -0.7550 ca        1 MC5     -0.145000
     17 C11        -2.2750   -2.0100   -0.2270 ca        1 MC5     -0.117000
     18 C13        -4.9930   -0.3940   -0.3890 c3        1 MC5     -0.079600
     19 C14        -6.4720   -0.7340   -0.2820 c         1 MC5      0.699500
     20 C15         8.4100   -0.4510   -1.0040 ca        1 MC5     -0.101000
     21 C16        -6.6420    1.6150   -0.6250 c         1 MC5      0.714100
     22 C17         8.0420    0.8710   -0.7760 ca        1 MC5     -0.165000
     23 C19         5.8370    0.1140   -0.0340 ca        1 MC5     -0.127300
     24 C20         6.7520    1.1590   -0.2920 ca        1 MC5      0.126900
     25 C21         6.2340   -1.2040   -0.2720 ca        1 MC5     -0.080000
     26 HN         -8.2870    0.3200   -0.3880 hn        1 MC5      0.355500
     27 H3          0.0420    1.5910    2.0800 ha        1 MC5      0.138000
     28 H4         -2.2530    0.7830    1.7620 ha        1 MC5      0.137000
     29 H6          1.7710   -2.1430   -0.7800 ha        1 MC5      0.152000
     30 H8         -0.5460   -2.9600   -1.0910 ha        1 MC5      0.138000
     31 H9          2.4790    1.3790    1.6630 ha        1 MC5      0.142000
     32 H10         7.8060   -2.5300   -0.9390 ha        1 MC5      0.139000
     33 H11        -2.9920   -2.7300   -0.6500 ha        1 MC5      0.135000
     34 H12        -4.6200   -1.8740    1.1290 hc        1 MC5      0.076200
     35 H12A       -4.4360   -0.1600    1.6940 hc        1 MC5      0.076200
     36 H13        -4.5790   -0.8980   -1.3030 h1        1 MC5      0.126700
     37 H15         9.4180   -0.6760   -1.3840 ha        1 MC5      0.139000
     38 H17         8.7420    1.6960   -0.9700 ha        1 MC5      0.150000
     39 H18         4.1140    1.4110    0.0780 h1        1 MC5      0.056700
     40 H18A        4.5290    0.5130    1.6280 h1        1 MC5      0.056700
     41 H21         5.5190   -2.0200   -0.0790 ha        1 MC5      0.155000
     42 C18         4.4860    0.4410    0.5060 c3        1 MC5      0.176700
     43 C12        -4.2320   -0.8570    0.8370 c3        1 MC5     -0.020100
@<TRIPOS>BOND
     1    1   24 1   
     2    2   19 1   
     3    2   21 1   
     4    2   26 1   
     5    3   18 1   
     6    3   21 1   
     7    4    6 ar  
     8    4    8 ar  
     9    4   10 ar  
    10    5   13 1   
    11    5   42 1   
    12    6   12 ar  
    13    6   14 ar  
    14    7   19 2   
    15    8   15 ar  
    16    8   27 1   
    17    9   21 2   
    18   10   11 ar  
    19   10   28 1   
    20   11   17 ar  
    21   11   43 1   
    22   12   13 ar  
    23   12   29 1   
    24   13   15 ar  
    25   14   17 ar  
    26   14   30 1   
    27   15   31 1   
    28   16   20 ar  
    29   16   25 ar  
    30   16   32 1   
    31   17   33 1   
    32   18   19 1   
    33   18   36 1   
    34   18   43 1   
    35   20   22 ar  
    36   20   37 1   
    37   22   24 ar  
    38   22   38 1   
    39   23   24 ar  
    40   23   25 ar  
    41   23   42 1   
    42   25   41 1   
    43   34   43 1   
    44   35   43 1   
    45   39   42 1   
    46   40   42 1   
@<TRIPOS>SUBSTRUCTURE
     1 MC5         1 TEMP              0 ****  ****    0 ROOT
