@<TRIPOS>MOLECULE
MC9
   70    73     1     0     0
SMALL
bcc


@<TRIPOS>ATOM
      1 O2          0.6240   -0.4910    0.6090 oh        1 MC9     -0.594800
      2 O1          1.1440    3.6500   -0.5310 oh        1 MC9     -0.597800
      3 C1          1.1510    2.4670    0.2620 c3        1 MC9      0.184300
      4 C2          1.8290    1.3260   -0.4930 c3        1 MC9     -0.143400
      5 C3          1.9080    0.0700    0.3630 c3        1 MC9      0.150100
      6 C4          2.5480    0.3410    1.7230 c3        1 MC9     -0.034200
      7 C5          2.0410    1.5700    2.4020 ce        1 MC9     -0.072200
      8 C6          1.7940    1.5550    3.7290 cf        1 MC9     -0.113000
      9 C7          1.2920    2.6770    4.4880 cf        1 MC9     -0.148000
     10 C8          1.4110    2.8380    5.8160 c2        1 MC9     -0.081400
     11 C9          2.0920    1.8760    6.7370 c3        1 MC9     -0.044200
     12 C10         1.8680    2.7490    1.5530 ce        1 MC9     -0.088200
     13 C11         3.0250    2.5360    7.7410 c3        1 MC9     -0.071400
     14 C12         2.4490    3.7710    8.4120 c3        1 MC9     -0.066400
     15 C13         1.9020    4.7360    7.3730 c3        1 MC9     -0.042000
     16 C14         0.8160    3.9800    6.5580 c3        1 MC9     -0.036500
     17 C15         0.0630    5.0920    5.8400 c3        1 MC9     -0.072400
     18 C16         0.1040    6.2790    6.8090 c3        1 MC9     -0.077400
     19 C17         1.0710    5.9050    7.9440 c3        1 MC9     -0.049700
     20 C18         3.0170    5.2330    6.4720 c3        1 MC9     -0.087100
     21 C19         2.2980    3.9700    1.8890 c2        1 MC9     -0.181000
     22 C20         1.8450    7.0600    8.5680 c3        1 MC9     -0.039500
     23 C22         2.6550    7.8710    7.6180 c2        1 MC9     -0.121200
     24 C24         4.8060    8.0540    8.9780 c3        1 MC9      0.208300
     25 C21         0.8680    7.9770    9.2910 c3        1 MC9     -0.084100
     26 C25         5.5170    6.7280    8.8490 cx        1 MC9     -0.118700
     27 C26         6.9980    6.6480    9.1050 cx        1 MC9     -0.128400
     28 C27         6.4730    6.5160    7.7070 cx        1 MC9     -0.128400
     29 O3          4.1280    8.0300   10.2310 oh        1 MC9     -0.599800
     30 C23         3.9050    8.3030    7.8090 c2        1 MC9     -0.229200
     31 HO2         0.1970   -0.5970   -0.2490 ho        1 MC9      0.396000
     32 HO1         0.6470    3.4380   -1.3290 ho        1 MC9      0.399000
     33 H1          0.0860    2.1720    0.5000 h1        1 MC9      0.053700
     34 H21         1.2570    1.1100   -1.4320 hc        1 MC9      0.052700
     35 H22A        2.8640    1.6390   -0.7860 hc        1 MC9      0.052700
     36 H3          2.5310   -0.7000   -0.1810 h1        1 MC9      0.031700
     37 H41         3.6550    0.4570    1.5620 hc        1 MC9      0.060200
     38 H42         2.3830   -0.5600    2.3730 hc        1 MC9      0.060200
     39 H6          1.9530    0.6170    4.2910 ha        1 MC9      0.124000
     40 H7          0.7590    3.4450    3.8940 ha        1 MC9      0.133000
     41 H91         2.6840    1.1210    6.1550 hc        1 MC9      0.046200
     42 H92         1.2920    1.3150    7.2940 hc        1 MC9      0.046200
     43 H111        3.2870    1.7820    8.5300 hc        1 MC9      0.040200
     44 H112        3.9800    2.8160    7.2220 hc        1 MC9      0.040200
     45 H121        1.6300    3.4710    9.1170 hc        1 MC9      0.042200
     46 H122        3.2480    4.2740    9.0180 hc        1 MC9      0.042200
     47 H14         0.0930    3.5220    7.3010 hc        1 MC9      0.054700
     48 H151        0.5640    5.3600    4.8760 hc        1 MC9      0.045700
     49 H152       -0.9860    4.7890    5.6090 hc        1 MC9      0.045700
     50 H161        0.4360    7.2020    6.2750 hc        1 MC9      0.040700
     51 H162       -0.9120    6.4840    7.2280 hc        1 MC9      0.040700
     52 H17         0.4500    5.4730    8.7840 hc        1 MC9      0.045700
     53 H181        3.4110    4.4010    5.8400 hc        1 MC9      0.040033
     54 H182        2.6380    6.0360    5.7940 hc        1 MC9      0.040033
     55 H183        3.8550    5.6490    7.0850 hc        1 MC9      0.040033
     56 H191        2.1600    4.8360    1.2280 ha        1 MC9      0.125500
     57 H192        2.8150    4.1660    2.8390 ha        1 MC9      0.125500
     58 H20         2.5420    6.6050    9.3350 hc        1 MC9      0.076700
     59 H22         2.1360    8.1530    6.6840 ha        1 MC9      0.121000
     60 H24         5.5680    8.8910    9.0210 h1        1 MC9      0.035700
     61 H211        0.3260    7.4120   10.0870 hc        1 MC9      0.034367
     62 H212        0.1180    8.3900    8.5740 hc        1 MC9      0.034367
     63 H213        1.4110    8.8270    9.7690 hc        1 MC9      0.034367
     64 H25         4.8800    5.8840    9.1800 hc        1 MC9      0.095700
     65 H261        7.3990    5.7560    9.6170 hc        1 MC9      0.070950
     66 H262        7.5450    7.5650    9.3890 hc        1 MC9      0.070950
     67 H271        6.4940    5.5300    7.2100 hc        1 MC9      0.070950
     68 H272        6.6410    7.3410    6.9910 hc        1 MC9      0.070950
     69 HO3         3.4860    8.7500   10.2130 ho        1 MC9      0.403000
     70 H23         4.3910    8.9010    7.0180 ha        1 MC9      0.122000
@<TRIPOS>BOND
     1    1    5 1   
     2    1   31 1   
     3    2    3 1   
     4    2   32 1   
     5    3    4 1   
     6    3   12 1   
     7    3   33 1   
     8    4    5 1   
     9    4   34 1   
    10    4   35 1   
    11    5    6 1   
    12    5   36 1   
    13    6    7 1   
    14    6   37 1   
    15    6   38 1   
    16    7    8 2   
    17    7   12 1   
    18    8    9 1   
    19    8   39 1   
    20    9   10 2   
    21    9   40 1   
    22   10   11 1   
    23   10   16 1   
    24   11   13 1   
    25   11   41 1   
    26   11   42 1   
    27   12   21 2   
    28   13   14 1   
    29   13   43 1   
    30   13   44 1   
    31   14   15 1   
    32   14   45 1   
    33   14   46 1   
    34   15   16 1   
    35   15   19 1   
    36   15   20 1   
    37   16   17 1   
    38   16   47 1   
    39   17   18 1   
    40   17   48 1   
    41   17   49 1   
    42   18   19 1   
    43   18   50 1   
    44   18   51 1   
    45   19   22 1   
    46   19   52 1   
    47   20   53 1   
    48   20   54 1   
    49   20   55 1   
    50   21   56 1   
    51   21   57 1   
    52   22   23 1   
    53   22   25 1   
    54   22   58 1   
    55   23   30 2   
    56   23   59 1   
    57   24   26 1   
    58   24   29 1   
    59   24   30 1   
    60   24   60 1   
    61   25   61 1   
    62   25   62 1   
    63   25   63 1   
    64   26   27 1   
    65   26   28 1   
    66   26   64 1   
    67   27   28 1   
    68   27   65 1   
    69   27   66 1   
    70   28   67 1   
    71   28   68 1   
    72   29   69 1   
    73   30   70 1   
@<TRIPOS>SUBSTRUCTURE
     1 MC9         1 TEMP              0 ****  ****    0 ROOT
