@<TRIPOS>MOLECULE
MC9
   70    73     1     0     0
SMALL
bcc


@<TRIPOS>ATOM
      1 O2         16.4980   18.1250   34.2660 oh        1 MC9     -0.598800
      2 O1         13.0470   17.7700   36.6140 oh        1 MC9     -0.595800
      3 C1         13.8990   18.3500   35.6350 c3        1 MC9      0.179300
      4 C2         14.3680   17.2050   34.7410 c3        1 MC9     -0.066400
      5 C3         15.2830   17.7260   33.6410 c3        1 MC9      0.146100
      6 C4         14.6330   18.8570   32.8470 c3        1 MC9     -0.074200
      7 C5         14.0220   19.9150   33.7050 ce        1 MC9     -0.070200
      8 C6         14.2060   21.2200   33.4170 cf        1 MC9     -0.118000
      9 C7         13.6690   22.3180   34.1860 cf        1 MC9     -0.148000
     10 C8         13.5540   23.5890   33.7650 c2        1 MC9     -0.078400
     11 C9         13.9670   24.0860   32.4160 c3        1 MC9     -0.044200
     12 C10        13.2160   19.4190   34.8230 ce        1 MC9     -0.112200
     13 C11        12.9540   25.0060   31.7550 c3        1 MC9     -0.072400
     14 C12        12.3690   26.0610   32.6790 c3        1 MC9     -0.065400
     15 C13        11.8590   25.4220   33.9610 c3        1 MC9     -0.043000
     16 C14        13.0580   24.6920   34.6280 c3        1 MC9     -0.036500
     17 C15        12.5800   24.4380   36.0520 c3        1 MC9     -0.072400
     18 C16        11.6860   25.6380   36.3820 c3        1 MC9     -0.076400
     19 C17        11.4690   26.4170   35.0740 c3        1 MC9     -0.051700
     20 C18        10.7270   24.4580   33.6560 c3        1 MC9     -0.085100
     21 C19        11.9840   19.8650   35.0870 c2        1 MC9     -0.204000
     22 C20        10.1170   27.1040   34.9260 c3        1 MC9     -0.026500
     23 C22         8.9290   26.2200   35.0940 c2        1 MC9     -0.138200
     24 C24         6.6990   25.3340   34.4280 c3        1 MC9      0.205300
     25 C21        10.0210   28.2510   35.9230 c3        1 MC9     -0.089100
     26 C25         6.8560   24.0790   33.6050 cx        1 MC9     -0.132700
     27 C26         6.1620   23.9190   32.2790 cx        1 MC9     -0.119400
     28 C27         5.6980   23.1270   33.4640 cx        1 MC9     -0.119400
     29 O3          5.5040   25.9970   34.0170 oh        1 MC9     -0.599800
     30 C23         7.8890   26.2270   34.2560 c2        1 MC9     -0.222200
     31 HO2        17.0070   18.6140   33.6100 ho        1 MC9      0.400000
     32 HO1        12.8460   18.4640   37.2520 ho        1 MC9      0.400000
     33 H1         14.7970   18.8110   36.1430 h1        1 MC9      0.060700
     34 H21        14.9180   16.4580   35.3690 hc        1 MC9      0.067700
     35 H22A       13.4850   16.6970   34.2780 hc        1 MC9      0.067700
     36 H3         15.5180   16.8820   32.9280 h1        1 MC9      0.034700
     37 H41        15.3960   19.3050   32.1560 hc        1 MC9      0.054200
     38 H42        13.8210   18.4120   32.2090 hc        1 MC9      0.054200
     39 H6         14.8320   21.4910   32.5470 ha        1 MC9      0.121000
     40 H7         13.3430   22.0580   35.2120 ha        1 MC9      0.131000
     41 H91        14.9380   24.6420   32.5430 hc        1 MC9      0.046700
     42 H92        14.1640   23.2290   31.7190 hc        1 MC9      0.046700
     43 H111       13.4510   25.5180   30.8890 hc        1 MC9      0.041700
     44 H112       12.1170   24.3860   31.3360 hc        1 MC9      0.041700
     45 H121       13.1520   26.8250   32.9250 hc        1 MC9      0.041200
     46 H122       11.5310   26.5910   32.1570 hc        1 MC9      0.041200
     47 H14        13.9090   25.4360   34.6970 hc        1 MC9      0.055700
     48 H151       11.9940   23.4880   36.1150 hc        1 MC9      0.045200
     49 H152       13.4400   24.3600   36.7600 hc        1 MC9      0.045200
     50 H161       10.7190   25.2900   36.8180 hc        1 MC9      0.042200
     51 H162       12.1750   26.2990   37.1400 hc        1 MC9      0.042200
     52 H17        12.2360   27.2460   35.0450 hc        1 MC9      0.045700
     53 H181       10.2680   24.0840   34.6050 hc        1 MC9      0.039700
     54 H182        9.9340   24.9700   33.0580 hc        1 MC9      0.039700
     55 H183       11.1030   23.5780   33.0800 hc        1 MC9      0.039700
     56 H191       11.3760   19.4590   35.9070 ha        1 MC9      0.121000
     57 H192       11.5040   20.6490   34.4860 ha        1 MC9      0.121000
     58 H20        10.0950   27.5410   33.8840 hc        1 MC9      0.052700
     59 H22         8.9350   25.5650   35.9810 ha        1 MC9      0.124000
     60 H24         6.5850   25.0390   35.5130 h1        1 MC9      0.037700
     61 H211        9.0390   28.7710   35.8200 hc        1 MC9      0.036700
     62 H212       10.1170   27.8670   36.9670 hc        1 MC9      0.036700
     63 H213       10.8370   28.9920   35.7400 hc        1 MC9      0.036700
     64 H25         7.8770   23.6600   33.7170 hc        1 MC9      0.083700
     65 H261        5.5280   24.7470   31.9130 hc        1 MC9      0.073700
     66 H262        6.6970   23.4060   31.4600 hc        1 MC9      0.073700
     67 H271        5.8940   22.0410   33.5020 hc        1 MC9      0.073700
     68 H272        4.7360   23.3970   33.9350 hc        1 MC9      0.073700
     69 HO3         5.4790   26.8350   34.4930 ho        1 MC9      0.402000
     70 H23         7.8540   26.8750   33.3660 ha        1 MC9      0.135000
@<TRIPOS>BOND
     1    1    5 1   
     2    1   31 1   
     3    2    3 1   
     4    2   32 1   
     5    3    4 1   
     6    3   12 1   
     7    3   33 1   
     8    4    5 1   
     9    4   34 1   
    10    4   35 1   
    11    5    6 1   
    12    5   36 1   
    13    6    7 1   
    14    6   37 1   
    15    6   38 1   
    16    7    8 2   
    17    7   12 1   
    18    8    9 1   
    19    8   39 1   
    20    9   10 2   
    21    9   40 1   
    22   10   11 1   
    23   10   16 1   
    24   11   13 1   
    25   11   41 1   
    26   11   42 1   
    27   12   21 2   
    28   13   14 1   
    29   13   43 1   
    30   13   44 1   
    31   14   15 1   
    32   14   45 1   
    33   14   46 1   
    34   15   16 1   
    35   15   19 1   
    36   15   20 1   
    37   16   17 1   
    38   16   47 1   
    39   17   18 1   
    40   17   48 1   
    41   17   49 1   
    42   18   19 1   
    43   18   50 1   
    44   18   51 1   
    45   19   22 1   
    46   19   52 1   
    47   20   53 1   
    48   20   54 1   
    49   20   55 1   
    50   21   56 1   
    51   21   57 1   
    52   22   23 1   
    53   22   25 1   
    54   22   58 1   
    55   23   30 2   
    56   23   59 1   
    57   24   26 1   
    58   24   29 1   
    59   24   30 1   
    60   24   60 1   
    61   25   61 1   
    62   25   62 1   
    63   25   63 1   
    64   26   27 1   
    65   26   28 1   
    66   26   64 1   
    67   27   28 1   
    68   27   65 1   
    69   27   66 1   
    70   28   67 1   
    71   28   68 1   
    72   29   69 1   
    73   30   70 1   
@<TRIPOS>SUBSTRUCTURE
     1 MC9         1 TEMP              0 ****  ****    0 ROOT
