@<TRIPOS>MOLECULE
MC9
   70    73     1     0     0
SMALL
bcc


@<TRIPOS>ATOM
      1 O2          0.6250   -0.5280    0.6470 oh        1 MC9     -0.594800
      2 O1          1.1030    3.6110   -0.5200 oh        1 MC9     -0.597800
      3 C1          1.1260    2.4320    0.2790 c3        1 MC9      0.184300
      4 C2          1.8060    1.2920   -0.4760 c3        1 MC9     -0.143400
      5 C3          1.9030    0.0420    0.3860 c3        1 MC9      0.150100
      6 C4          2.5540    0.3250    1.7380 c3        1 MC9     -0.034200
      7 C5          2.0440    1.5530    2.4150 ce        1 MC9     -0.072200
      8 C6          1.8100    1.5440    3.7440 cf        1 MC9     -0.113000
      9 C7          1.3070    2.6660    4.5020 cf        1 MC9     -0.148000
     10 C8          1.4360    2.8340    5.8290 c2        1 MC9     -0.081400
     11 C9          2.1310    1.8810    6.7480 c3        1 MC9     -0.044200
     12 C10         1.8540    2.7270    1.5620 ce        1 MC9     -0.088200
     13 C11         3.0660    2.5510    7.7420 c3        1 MC9     -0.071400
     14 C12         2.4880    3.7850    8.4130 c3        1 MC9     -0.066400
     15 C13         1.9260    4.7420    7.3740 c3        1 MC9     -0.042000
     16 C14         0.8390    3.9750    6.5710 c3        1 MC9     -0.036500
     17 C15         0.0730    5.0800    5.8530 c3        1 MC9     -0.072400
     18 C16         0.1140    6.2710    6.8160 c3        1 MC9     -0.077400
     19 C17         1.0920    5.9080    7.9460 c3        1 MC9     -0.049700
     20 C18         3.0310    5.2420    6.4630 c3        1 MC9     -0.087100
     21 C19         2.2790    3.9530    1.8870 c2        1 MC9     -0.181000
     22 C20         1.8630    7.0710    8.5590 c3        1 MC9     -0.039500
     23 C22         2.6610    7.8830    7.5990 c2        1 MC9     -0.121200
     24 C24         4.8210    8.0860    8.9420 c3        1 MC9      0.208300
     25 C21         0.8850    7.9840    9.2860 c3        1 MC9     -0.084100
     26 C25         5.5390    6.7640    8.8140 cx        1 MC9     -0.118700
     27 C26         7.0230    6.6940    9.0590 cx        1 MC9     -0.128400
     28 C27         6.4880    6.5530    7.6650 cx        1 MC9     -0.128400
     29 O3          4.1510    8.0630   10.2010 oh        1 MC9     -0.599800
     30 C23         3.9090    8.3240    7.7790 c2        1 MC9     -0.230200
     31 HO2         0.1900   -0.6410   -0.2060 ho        1 MC9      0.396000
     32 HO1         0.5990    3.3910   -1.3120 ho        1 MC9      0.399000
     33 H1          0.0670    2.1310    0.5300 h1        1 MC9      0.053700
     34 H21         2.8350    1.6110   -0.7810 hc        1 MC9      0.052700
     35 H22A        1.2260    1.0670   -1.4080 hc        1 MC9      0.052700
     36 H3          2.5250   -0.7270   -0.1610 h1        1 MC9      0.031700
     37 H41         3.6580    0.4480    1.5650 hc        1 MC9      0.060200
     38 H42         2.4030   -0.5730    2.3940 hc        1 MC9      0.060200
     39 H6          1.9820    0.6100    4.3090 ha        1 MC9      0.124000
     40 H7          0.7650    3.4280    3.9090 ha        1 MC9      0.133000
     41 H91         2.7230    1.1270    6.1650 hc        1 MC9      0.046200
     42 H92         1.3380    1.3170    7.3140 hc        1 MC9      0.046200
     43 H111        4.0160    2.8350    7.2150 hc        1 MC9      0.040200
     44 H112        3.3390    1.8020    8.5330 hc        1 MC9      0.040200
     45 H121        3.2870    4.2960    9.0100 hc        1 MC9      0.042200
     46 H122        1.6760    3.4830    9.1250 hc        1 MC9      0.042200
     47 H14         0.1240    3.5160    7.3200 hc        1 MC9      0.054700
     48 H151       -0.9760    4.7680    5.6310 hc        1 MC9      0.045700
     49 H152        0.5650    5.3460    4.8840 hc        1 MC9      0.045700
     50 H161       -0.9000    6.4710    7.2430 hc        1 MC9      0.040700
     51 H162        0.4360    7.1940    6.2760 hc        1 MC9      0.040700
     52 H17         0.4800    5.4750    8.7930 hc        1 MC9      0.045700
     53 H181        3.4260    4.4100    5.8300 hc        1 MC9      0.040033
     54 H182        3.8710    5.6670    7.0670 hc        1 MC9      0.040033
     55 H183        2.6420    6.0400    5.7840 hc        1 MC9      0.040033
     56 H191        2.8040    4.1570    2.8300 ha        1 MC9      0.125500
     57 H192        2.1290    4.8140    1.2220 ha        1 MC9      0.125500
     58 H20         2.5690    6.6240    9.3230 hc        1 MC9      0.076700
     59 H22         2.1320    8.1580    6.6690 ha        1 MC9      0.121000
     60 H24         5.5770    8.9280    8.9760 h1        1 MC9      0.035700
     61 H211        0.3530    7.4190   10.0880 hc        1 MC9      0.034367
     62 H212        1.4260    8.8400    9.7560 hc        1 MC9      0.034367
     63 H213        0.1280    8.3900    8.5720 hc        1 MC9      0.034367
     64 H25         4.9090    5.9170    9.1540 hc        1 MC9      0.095700
     65 H261        7.4330    5.8070    9.5720 hc        1 MC9      0.070950
     66 H262        7.5650    7.6160    9.3350 hc        1 MC9      0.070950
     67 H271        6.6450    7.3760    6.9450 hc        1 MC9      0.070950
     68 H272        6.5110    5.5650    7.1730 hc        1 MC9      0.070950
     69 HO3         3.5050    8.7790   10.1850 ho        1 MC9      0.403000
     70 H23         4.3850    8.9220    6.9820 ha        1 MC9      0.122000
@<TRIPOS>BOND
     1    1    5 1   
     2    1   31 1   
     3    2    3 1   
     4    2   32 1   
     5    3    4 1   
     6    3   12 1   
     7    3   33 1   
     8    4    5 1   
     9    4   34 1   
    10    4   35 1   
    11    5    6 1   
    12    5   36 1   
    13    6    7 1   
    14    6   37 1   
    15    6   38 1   
    16    7    8 2   
    17    7   12 1   
    18    8    9 1   
    19    8   39 1   
    20    9   10 2   
    21    9   40 1   
    22   10   11 1   
    23   10   16 1   
    24   11   13 1   
    25   11   41 1   
    26   11   42 1   
    27   12   21 2   
    28   13   14 1   
    29   13   43 1   
    30   13   44 1   
    31   14   15 1   
    32   14   45 1   
    33   14   46 1   
    34   15   16 1   
    35   15   19 1   
    36   15   20 1   
    37   16   17 1   
    38   16   47 1   
    39   17   18 1   
    40   17   48 1   
    41   17   49 1   
    42   18   19 1   
    43   18   50 1   
    44   18   51 1   
    45   19   22 1   
    46   19   52 1   
    47   20   53 1   
    48   20   54 1   
    49   20   55 1   
    50   21   56 1   
    51   21   57 1   
    52   22   23 1   
    53   22   25 1   
    54   22   58 1   
    55   23   30 2   
    56   23   59 1   
    57   24   26 1   
    58   24   29 1   
    59   24   30 1   
    60   24   60 1   
    61   25   61 1   
    62   25   62 1   
    63   25   63 1   
    64   26   27 1   
    65   26   28 1   
    66   26   64 1   
    67   27   28 1   
    68   27   65 1   
    69   27   66 1   
    70   28   67 1   
    71   28   68 1   
    72   29   69 1   
    73   30   70 1   
@<TRIPOS>SUBSTRUCTURE
     1 MC9         1 TEMP              0 ****  ****    0 ROOT
