@<TRIPOS>MOLECULE
MCB
    7     6     1     0     0
SMALL
bcc


@<TRIPOS>ATOM
      1 CA          0.0180    0.0420   -0.0060 c3        1 MCB     -0.221100
      2 C           1.5040   -0.0490    0.0480 c         1 MCB      0.561900
      3 O           2.1280   -0.4100    1.0460 o         1 MCB     -0.526100
      4 HA1        -0.2840    1.0910   -0.2430 hc        1 MCB      0.065033
      5 HA2        -0.3690   -0.6290   -0.8120 hc        1 MCB      0.065033
      6 HA1A       -0.4450   -0.2570    0.9660 hc        1 MCB      0.065033
      7 H           2.0310    0.2350   -0.8920 h4        1 MCB     -0.009800
@<TRIPOS>BOND
     1    1    2 1   
     2    1    4 1   
     3    1    5 1   
     4    1    6 1   
     5    2    3 2   
     6    2    7 1   
@<TRIPOS>SUBSTRUCTURE
     1 MCB         1 TEMP              0 ****  ****    0 ROOT
