@<TRIPOS>MOLECULE
MCB
    7     6     1     0     0
SMALL
bcc


@<TRIPOS>ATOM
      1 CA          0.0170   -0.0140    0.0010 c3        1 MCB     -0.221100
      2 C           1.5060    0.0230    0.0380 c         1 MCB      0.561900
      3 O           2.1790   -0.5500    0.8940 o         1 MCB     -0.526100
      4 HA1        -0.3850    1.0260    0.0750 hc        1 MCB      0.065033
      5 HA2        -0.3220   -0.4560   -0.9680 hc        1 MCB      0.065033
      6 HA1A       -0.3980   -0.6220    0.8410 hc        1 MCB      0.065033
      7 H           1.9870    0.6150   -0.7740 h4        1 MCB     -0.009800
@<TRIPOS>BOND
     1    1    2 1   
     2    1    4 1   
     3    1    5 1   
     4    1    6 1   
     5    2    3 2   
     6    2    7 1   
@<TRIPOS>SUBSTRUCTURE
     1 MCB         1 TEMP              0 ****  ****    0 ROOT
