@<TRIPOS>MOLECULE
MCE
    8     7     1     0     0
SMALL
bcc


@<TRIPOS>ATOM
      1 C1          1.7040   -0.3890    0.0000 c3        1 MCE     -0.107100
      2 C2          0.6270    0.6580   -0.0000 c3        1 MCE      0.039000
      3 CL         -0.9800   -0.0550    0.0000 cl        1 MCE     -0.202400
      4 H11         1.6320   -1.0390    0.9060 hc        1 MCE      0.048700
      5 H12         1.6320   -1.0400   -0.9050 hc        1 MCE      0.048700
      6 H13         2.7050    0.1090   -0.0000 hc        1 MCE      0.048700
      7 H21         0.6850    1.2990    0.9110 h1        1 MCE      0.062700
      8 H22         0.6840    1.2980   -0.9130 h1        1 MCE      0.062700
@<TRIPOS>BOND
     1    1    2 1   
     2    1    4 1   
     3    1    5 1   
     4    1    6 1   
     5    2    3 1   
     6    2    7 1   
     7    2    8 1   
@<TRIPOS>SUBSTRUCTURE
     1 MCE         1 TEMP              0 ****  ****    0 ROOT
