@<TRIPOS>MOLECULE
MCE
    8     7     1     0     0
SMALL
bcc


@<TRIPOS>ATOM
      1 C1          0.0080    0.0000    0.0060 c3        1 MCE     -0.107100
      2 C2          1.5100   -0.0000    0.0110 c3        1 MCE      0.039000
      3 CL          2.1600    0.0000    1.6450 cl        1 MCE     -0.202400
      4 H11        -0.3590   -0.0000   -1.0500 hc        1 MCE      0.048700
      5 H12        -0.3950    0.9050    0.5210 hc        1 MCE      0.048700
      6 H13        -0.3950   -0.9050    0.5210 hc        1 MCE      0.048700
      7 H21         1.9170   -0.9120   -0.4880 h1        1 MCE      0.062700
      8 H22         1.9170    0.9120   -0.4880 h1        1 MCE      0.062700
@<TRIPOS>BOND
     1    1    2 1   
     2    1    4 1   
     3    1    5 1   
     4    1    6 1   
     5    2    3 1   
     6    2    7 1   
     7    2    8 1   
@<TRIPOS>SUBSTRUCTURE
     1 MCE         1 TEMP              0 ****  ****    0 ROOT
