@<TRIPOS>MOLECULE
MCF
   39    41     1     0     0
SMALL
bcc


@<TRIPOS>ATOM
      1 O8          0.3040    0.0150    0.0300 oh        1 MCF     -0.610800
      2 C8          1.5410    0.2440   -0.6350 c3        1 MCF      0.101800
      3 C7          2.6640   -0.1100    0.3640 c3        1 MCF      0.187800
      4 N6          2.6120    0.4940    1.6650 nu        1 MCF     -0.829200
      5 C5          2.5190    1.8690    1.8490 c2        1 MCF      0.652100
      6 N4          2.3890    2.8840    1.0450 ne        1 MCF     -0.639100
      7 C10         2.1120    2.7540   -0.3110 cc        1 MCF      0.063800
      8 C9          1.6840    1.6450   -1.1040 cd        1 MCF      0.205600
      9 N1          1.4390    2.0580   -2.4160 nd        1 MCF     -0.659000
     10 C2          1.7050    3.3770   -2.4420 cc        1 MCF      0.402400
     11 N3          2.1340    3.8580   -1.1970 na        1 MCF     -0.220900
     12 C1S         2.4290    5.2270   -0.8330 c3        1 MCF      0.215800
     13 C2S         3.9040    5.4590   -0.3550 c3        1 MCF      0.132100
     14 O2S         3.9140    6.2030    0.8340 oh        1 MCF     -0.559800
     15 O4S         2.2100    6.0950   -1.9510 os        1 MCF     -0.406600
     16 C4S         3.4550    6.4800   -2.5550 c3        1 MCF      0.109100
     17 C3S         4.5820    6.1780   -1.5440 c3        1 MCF      0.081100
     18 O3S         5.1460    7.3760   -1.0480 oh        1 MCF     -0.589800
     19 C5S         3.6230    5.7550   -3.8750 c3        1 MCF     -0.046300
     20 S5S         4.8970    6.5730   -4.7910 ss        1 MCF     -0.300200
     21 C6S         5.1980    5.4390   -6.0930 c3        1 MCF     -0.036000
     22 HO8        -0.3870    0.3940   -0.5260 ho        1 MCF      0.420000
     23 H8          1.6120   -0.4660   -1.5110 h1        1 MCF      0.063700
     24 H7          3.6410    0.1800   -0.1190 h1        1 MCF      0.064700
     25 H7A         2.6550   -1.2280    0.5090 h1        1 MCF      0.064700
     26 HN6         2.1010   -0.0360    2.3420 hn        1 MCF      0.421800
     27 H5          2.6420    2.1630    2.9220 h5        1 MCF      0.042800
     28 H2          1.5960    4.0420   -3.3080 h5        1 MCF      0.068100
     29 H1S         1.6960    5.5590   -0.0370 h2        1 MCF      0.117700
     30 H2S         4.4280    4.4990   -0.0990 h1        1 MCF      0.111700
     31 HO2S        3.7130    7.1240    0.6170 ho        1 MCF      0.420000
     32 H4S         3.3550    7.5900   -2.7270 h1        1 MCF      0.096700
     33 H3S         5.3750    5.5300   -2.0040 h1        1 MCF      0.072700
     34 HO3S        5.6860    7.7450   -1.7590 ho        1 MCF      0.421000
     35 H5S         2.6580    5.7900   -4.4400 h1        1 MCF      0.077200
     36 H5SA        3.8790    4.6810   -3.7100 h1        1 MCF      0.077200
     37 H6S         6.0130    5.8870   -6.7090 h1        1 MCF      0.068033
     38 H6SA        4.2980    5.2920   -6.7310 h1        1 MCF      0.068033
     39 H6SB        5.5310    4.4470   -5.7130 h1        1 MCF      0.068033
@<TRIPOS>BOND
     1    1    2 1   
     2    1   22 1   
     3    2    3 1   
     4    2    8 1   
     5    2   23 1   
     6    3    4 1   
     7    3   24 1   
     8    3   25 1   
     9    4    5 1   
    10    4   26 1   
    11    5    6 2   
    12    5   27 1   
    13    6    7 1   
    14    7    8 2   
    15    7   11 1   
    16    8    9 1   
    17    9   10 2   
    18   10   11 1   
    19   10   28 1   
    20   11   12 1   
    21   12   13 1   
    22   12   15 1   
    23   12   29 1   
    24   13   14 1   
    25   13   17 1   
    26   13   30 1   
    27   14   31 1   
    28   15   16 1   
    29   16   17 1   
    30   16   19 1   
    31   16   32 1   
    32   17   18 1   
    33   17   33 1   
    34   18   34 1   
    35   19   20 1   
    36   19   35 1   
    37   19   36 1   
    38   20   21 1   
    39   21   37 1   
    40   21   38 1   
    41   21   39 1   
@<TRIPOS>SUBSTRUCTURE
     1 MCF         1 TEMP              0 ****  ****    0 ROOT
