@<TRIPOS>MOLECULE
MCF
   39    41     1     0     0
SMALL
bcc


@<TRIPOS>ATOM
      1 O8          0.2860    0.0350    0.0490 oh        1 MCF     -0.610800
      2 C8          1.5170    0.2540   -0.6290 c3        1 MCF      0.101800
      3 C7          2.6490   -0.1160    0.3550 c3        1 MCF      0.187800
      4 N6          2.6190    0.4830    1.6590 nh        1 MCF     -0.829200
      5 C5          2.5420    1.8590    1.8490 c2        1 MCF      0.652100
      6 N4          2.4130    2.8780    1.0510 ne        1 MCF     -0.639100
      7 C10         2.1170    2.7560   -0.3010 cc        1 MCF      0.063800
      8 C9          1.6690    1.6560   -1.0940 cd        1 MCF      0.205600
      9 N1          1.4110    2.0760   -2.4010 nd        1 MCF     -0.659000
     10 C2          1.6910    3.3940   -2.4250 cc        1 MCF      0.402400
     11 N3          2.1400    3.8640   -1.1830 na        1 MCF     -0.220900
     12 C1S         2.4540    5.2290   -0.8170 c3        1 MCF      0.215800
     13 C2S         3.9360    5.4430   -0.3570 c3        1 MCF      0.132100
     14 O2S         3.9690    6.1810    0.8360 oh        1 MCF     -0.559800
     15 O4S         2.2290    6.1040   -1.9290 os        1 MCF     -0.406600
     16 C4S         3.4700    6.4800   -2.5470 c3        1 MCF      0.109100
     17 C3S         4.6060    6.1620   -1.5510 c3        1 MCF      0.081100
     18 O3S         5.1880    7.3520   -1.0570 oh        1 MCF     -0.589800
     19 C5S         3.6140    5.7590   -3.8720 c3        1 MCF     -0.046300
     20 S5S         4.8850    6.5690   -4.7990 ss        1 MCF     -0.300200
     21 C6S         5.1560    5.4400   -6.1130 c3        1 MCF     -0.036000
     22 HO8        -0.4080    0.4240   -0.4960 ho        1 MCF      0.420000
     23 H8          1.5700   -0.4530   -1.5090 h1        1 MCF      0.063700
     24 H7          2.6290   -1.2340    0.4950 h1        1 MCF      0.064700
     25 H7A         3.6220    0.1660   -0.1400 h1        1 MCF      0.064700
     26 HN6         2.1100   -0.0440    2.3390 hn        1 MCF      0.421800
     27 H5          2.6820    2.1460    2.9220 h5        1 MCF      0.042800
     28 H2          1.5780    4.0630   -3.2860 h5        1 MCF      0.068100
     29 H1S         1.7340    5.5640   -0.0100 h2        1 MCF      0.117700
     30 H2S         4.4540    4.4780   -0.1120 h1        1 MCF      0.111700
     31 HO2S        3.7750    7.1060    0.6260 ho        1 MCF      0.420000
     32 H4S         3.3780    7.5910   -2.7120 h1        1 MCF      0.096700
     33 H3S         5.3870    5.5090   -2.0230 h1        1 MCF      0.072700
     34 HO3S        5.7230    7.7200   -1.7720 ho        1 MCF      0.421000
     35 H5S         3.8620    4.6810   -3.7140 h1        1 MCF      0.077200
     36 H5SA        2.6430    5.8060   -4.4240 h1        1 MCF      0.077200
     37 H6S         5.9660    5.8830   -6.7370 h1        1 MCF      0.068033
     38 H6SA        5.4830    4.4420   -5.7440 h1        1 MCF      0.068033
     39 H6SB        4.2450    5.3070   -6.7390 h1        1 MCF      0.068033
@<TRIPOS>BOND
     1    1    2 1   
     2    1   22 1   
     3    2    3 1   
     4    2    8 1   
     5    2   23 1   
     6    3    4 1   
     7    3   24 1   
     8    3   25 1   
     9    4    5 1   
    10    4   26 1   
    11    5    6 2   
    12    5   27 1   
    13    6    7 1   
    14    7    8 2   
    15    7   11 1   
    16    8    9 1   
    17    9   10 2   
    18   10   11 1   
    19   10   28 1   
    20   11   12 1   
    21   12   13 1   
    22   12   15 1   
    23   12   29 1   
    24   13   14 1   
    25   13   17 1   
    26   13   30 1   
    27   14   31 1   
    28   15   16 1   
    29   16   17 1   
    30   16   19 1   
    31   16   32 1   
    32   17   18 1   
    33   17   33 1   
    34   18   34 1   
    35   19   20 1   
    36   19   35 1   
    37   19   36 1   
    38   20   21 1   
    39   21   37 1   
    40   21   38 1   
    41   21   39 1   
@<TRIPOS>SUBSTRUCTURE
     1 MCF         1 TEMP              0 ****  ****    0 ROOT
