@<TRIPOS>MOLECULE
MCF
   39    41     1     0     0
SMALL
bcc


@<TRIPOS>ATOM
      1 O8         -4.4820   -1.6940   -0.5730 oh        1 MCF     -0.611800
      2 C8         -3.5670   -1.6020    0.5120 c3        1 MCF      0.100800
      3 C7         -4.1110   -0.5230    1.4730 c3        1 MCF      0.186800
      4 N6         -4.4410    0.7580    0.9150 nh        1 MCF     -0.826200
      5 C5         -3.5370    1.5080    0.1740 c2        1 MCF      0.654100
      6 N4         -2.3280    1.3000   -0.2630 ne        1 MCF     -0.664100
      7 C10        -1.7070    0.0550   -0.2160 cc        1 MCF      0.048800
      8 C9         -2.1930   -1.2570    0.0660 cd        1 MCF      0.216600
      9 N1         -1.1750   -2.1960   -0.1150 nd        1 MCF     -0.662000
     10 C2         -0.0890   -1.4970   -0.4990 cc        1 MCF      0.418400
     11 N3         -0.3450   -0.1220   -0.5640 na        1 MCF     -0.223900
     12 C1S         0.5310    0.9270   -1.0370 c3        1 MCF      0.218800
     13 C2S         0.7240    2.1010   -0.0220 c3        1 MCF      0.085100
     14 O2S         0.4590    3.3250   -0.6710 oh        1 MCF     -0.593800
     15 O4S         1.8280    0.4030   -1.3370 os        1 MCF     -0.399600
     16 C4S         2.8000    0.8340   -0.3710 c3        1 MCF      0.109100
     17 C3S         2.2200    2.0680    0.3610 c3        1 MCF      0.131100
     18 O3S         2.9180    3.2410    0.0260 oh        1 MCF     -0.573800
     19 C5S         3.1370   -0.2890    0.5900 c3        1 MCF     -0.043300
     20 S5S         4.3620   -1.3260   -0.1570 ss        1 MCF     -0.269200
     21 C6S         4.8720   -2.3120    1.1960 c3        1 MCF     -0.048000
     22 HO8        -4.0700   -2.2550   -1.2410 ho        1 MCF      0.421000
     23 H8         -3.5590   -2.5900    1.0590 h1        1 MCF      0.065700
     24 H7         -5.0440   -0.9320    1.9550 h1        1 MCF      0.066700
     25 H7A        -3.3320   -0.3690    2.2730 h1        1 MCF      0.066700
     26 HN6        -5.3860    0.8360    0.5970 hn        1 MCF      0.424800
     27 H5         -3.9200    2.5380   -0.0390 h5        1 MCF      0.037800
     28 H2          0.8950   -1.9130   -0.7550 h5        1 MCF      0.081100
     29 H1S         0.1280    1.3140   -2.0230 h2        1 MCF      0.104700
     30 H2S         0.0810    1.9900    0.8900 h1        1 MCF      0.079700
     31 HO2S       -0.5010    3.3860   -0.7690 ho        1 MCF      0.432000
     32 H4S         3.7030    1.1190   -0.9820 h1        1 MCF      0.108700
     33 H3S         2.3400    1.9790    1.4760 h1        1 MCF      0.092700
     34 HO3S        2.6510    3.5080   -0.8640 ho        1 MCF      0.425000
     35 H5S         3.5390    0.1320    1.5440 h1        1 MCF      0.071200
     36 H5SA        2.2210   -0.8810    0.8310 h1        1 MCF      0.071200
     37 H6S         5.6670   -2.9880    0.8030 h1        1 MCF      0.065033
     38 H6SA        5.2940   -1.7000    2.0240 h1        1 MCF      0.065033
     39 H6SB        4.0400   -2.9300    1.6010 h1        1 MCF      0.065033
@<TRIPOS>BOND
     1    1    2 1   
     2    1   22 1   
     3    2    3 1   
     4    2    8 1   
     5    2   23 1   
     6    3    4 1   
     7    3   24 1   
     8    3   25 1   
     9    4    5 1   
    10    4   26 1   
    11    5    6 2   
    12    5   27 1   
    13    6    7 1   
    14    7    8 2   
    15    7   11 1   
    16    8    9 1   
    17    9   10 2   
    18   10   11 1   
    19   10   28 1   
    20   11   12 1   
    21   12   13 1   
    22   12   15 1   
    23   12   29 1   
    24   13   14 1   
    25   13   17 1   
    26   13   30 1   
    27   14   31 1   
    28   15   16 1   
    29   16   17 1   
    30   16   19 1   
    31   16   32 1   
    32   17   18 1   
    33   17   33 1   
    34   18   34 1   
    35   19   20 1   
    36   19   35 1   
    37   19   36 1   
    38   20   21 1   
    39   21   37 1   
    40   21   38 1   
    41   21   39 1   
@<TRIPOS>SUBSTRUCTURE
     1 MCF         1 TEMP              0 ****  ****    0 ROOT
