@<TRIPOS>MOLECULE
MCF
   39    41     1     0     0
SMALL
bcc


@<TRIPOS>ATOM
      1 O8          0.3140    0.0190    0.0580 oh        1 MCF     -0.610800
      2 C8          1.5360    0.2460   -0.6330 c3        1 MCF      0.101800
      3 C7          2.6810   -0.1260    0.3350 c3        1 MCF      0.187800
      4 N6          2.6640    0.4650    1.6430 nh        1 MCF     -0.829200
      5 C5          2.5860    1.8390    1.8420 c2        1 MCF      0.652100
      6 N4          2.4440    2.8630    1.0520 ne        1 MCF     -0.639100
      7 C10         2.1330    2.7480   -0.2980 cc        1 MCF      0.063800
      8 C9          1.6780    1.6510   -1.0920 cd        1 MCF      0.205600
      9 N1          1.4050    2.0790   -2.3930 nd        1 MCF     -0.659000
     10 C2          1.6800    3.3970   -2.4130 cc        1 MCF      0.402400
     11 N3          2.1420    3.8610   -1.1730 na        1 MCF     -0.220900
     12 C1S         2.4560    5.2240   -0.8020 c3        1 MCF      0.215800
     13 C2S         3.9430    5.4410   -0.3580 c3        1 MCF      0.132100
     14 O2S         3.9860    6.1730    0.8380 oh        1 MCF     -0.559800
     15 O4S         2.2160    6.1050   -1.9070 os        1 MCF     -0.406600
     16 C4S         3.4490    6.4880   -2.5360 c3        1 MCF      0.109100
     17 C3S         4.5980    6.1670   -1.5550 c3        1 MCF      0.081100
     18 O3S         5.1820    7.3570   -1.0610 oh        1 MCF     -0.589800
     19 C5S         3.5810    5.7750   -3.8670 c3        1 MCF     -0.046300
     20 S5S         4.8390    6.5930   -4.8040 ss        1 MCF     -0.300200
     21 C6S         5.1020    5.4680   -6.1240 c3        1 MCF     -0.036000
     22 HO8        -0.3880    0.4090   -0.4770 ho        1 MCF      0.420000
     23 H8          1.5810   -0.4560   -1.5180 h1        1 MCF      0.063700
     24 H7          3.6470    0.1620   -0.1690 h1        1 MCF      0.064700
     25 H7A         2.6660   -1.2450    0.4690 h1        1 MCF      0.064700
     26 HN6         2.1650   -0.0680    2.3260 hn        1 MCF      0.421800
     27 H5          2.7360    2.1210    2.9150 h5        1 MCF      0.042800
     28 H2          1.5550    4.0710   -3.2680 h5        1 MCF      0.068100
     29 H1S         1.7440    5.5540    0.0140 h2        1 MCF      0.117700
     30 H2S         4.4660    4.4750   -0.1230 h1        1 MCF      0.111700
     31 HO2S        3.7880    7.0980    0.6360 ho        1 MCF      0.420000
     32 H4S         3.3530    7.6000   -2.6950 h1        1 MCF      0.096700
     33 H3S         5.3750    5.5190   -2.0400 h1        1 MCF      0.072700
     34 HO3S        5.7080    7.7290   -1.7800 ho        1 MCF      0.421000
     35 H5S         3.8330    4.6970   -3.7180 h1        1 MCF      0.077200
     36 H5SA        2.6030    5.8230   -4.4080 h1        1 MCF      0.077200
     37 H6S         5.4370    4.4710   -5.7600 h1        1 MCF      0.068033
     38 H6SA        5.9050    5.9170   -6.7540 h1        1 MCF      0.068033
     39 H6SB        4.1870    5.3340   -6.7420 h1        1 MCF      0.068033
@<TRIPOS>BOND
     1    1    2 1   
     2    1   22 1   
     3    2    3 1   
     4    2    8 1   
     5    2   23 1   
     6    3    4 1   
     7    3   24 1   
     8    3   25 1   
     9    4    5 1   
    10    4   26 1   
    11    5    6 2   
    12    5   27 1   
    13    6    7 1   
    14    7    8 2   
    15    7   11 1   
    16    8    9 1   
    17    9   10 2   
    18   10   11 1   
    19   10   28 1   
    20   11   12 1   
    21   12   13 1   
    22   12   15 1   
    23   12   29 1   
    24   13   14 1   
    25   13   17 1   
    26   13   30 1   
    27   14   31 1   
    28   15   16 1   
    29   16   17 1   
    30   16   19 1   
    31   16   32 1   
    32   17   18 1   
    33   17   33 1   
    34   18   34 1   
    35   19   20 1   
    36   19   35 1   
    37   19   36 1   
    38   20   21 1   
    39   21   37 1   
    40   21   38 1   
    41   21   39 1   
@<TRIPOS>SUBSTRUCTURE
     1 MCF         1 TEMP              0 ****  ****    0 ROOT
