@<TRIPOS>MOLECULE
MCG
   24    24     1     0     0
SMALL
bcc


@<TRIPOS>ATOM
      1 N          -0.9190    1.7360   -2.4280 n3        1 MCG     -0.904800
      2 CA          0.0380    0.6630   -2.1020 c3        1 MCG      0.083500
      3 C          -0.3470   -0.6740   -2.8660 c         1 MCG      0.920600
      4 CB          0.0470    0.3890   -0.6080 ca        1 MCG     -0.079300
      5 CG1        -1.0390   -0.2860   -0.0320 ca        1 MCG     -0.158500
      6 CG2         1.0620    0.8520    0.2370 ca        1 MCG     -0.158500
      7 CD1        -1.1160   -0.4690    1.3470 ca        1 MCG     -0.123500
      8 CD2         0.9840    0.6650    1.6170 ca        1 MCG     -0.123500
      9 CE         -0.1120    0.0150    2.1920 ca        1 MCG     -0.139600
     10 CZ         -0.2090   -0.1440    3.6940 c         1 MCG      0.906200
     11 OH2         0.7380    0.2910    4.4170 o         1 MCG     -0.859300
     12 OH1        -1.2360   -0.7000    4.1880 o         1 MCG     -0.859300
     13 O           0.5820   -1.4200   -3.2760 o         1 MCG     -0.846300
     14 OXT        -1.5770   -0.9100   -3.0560 o         1 MCG     -0.846300
     15 CM          1.4360    1.0570   -2.5940 c3        1 MCG     -0.045100
     16 H          -1.7320    1.3130   -2.8470 hn        1 MCG      0.334800
     17 H2         -1.2170    2.1850   -1.5830 hn        1 MCG      0.334800
     18 HG1        -1.8240   -0.6830   -0.6990 ha        1 MCG      0.125500
     19 HG2         1.9370    1.3720   -0.1780 ha        1 MCG      0.125500
     20 HD1        -1.9700   -0.9960    1.7980 ha        1 MCG      0.130000
     21 HD2         1.7820    1.0310    2.2800 ha        1 MCG      0.130000
     22 HM1         2.1600    0.2690   -2.2780 hc        1 MCG      0.016700
     23 HM2         1.4380    1.1070   -3.7090 hc        1 MCG      0.016700
     24 HM3         1.7580    2.0470   -2.1920 hc        1 MCG      0.016700
@<TRIPOS>BOND
     1    1    2 1   
     2    1   16 1   
     3    1   17 1   
     4    2    3 1   
     5    2    4 1   
     6    2   15 1   
     7    3   13 1   
     8    3   14 1   
     9    4    5 ar  
    10    4    6 ar  
    11    5    7 ar  
    12    5   18 1   
    13    6    8 ar  
    14    6   19 1   
    15    7    9 ar  
    16    7   20 1   
    17    8    9 ar  
    18    8   21 1   
    19    9   10 1   
    20   10   11 1   
    21   10   12 1   
    22   15   22 1   
    23   15   23 1   
    24   15   24 1   
@<TRIPOS>SUBSTRUCTURE
     1 MCG         1 TEMP              0 ****  ****    0 ROOT
