@<TRIPOS>MOLECULE
MCH
    5     4     1     0     0
SMALL
bcc


@<TRIPOS>ATOM
      1 C1          0.0000   -0.0000    0.4790 c3        1 MCH      0.223500
      2 CL2         0.8340    1.4420   -0.0520 cl        1 MCH     -0.114400
      3 CL1        -1.6650    0.0010   -0.0520 cl        1 MCH     -0.114400
      4 CL3         0.8320   -1.4430   -0.0520 cl        1 MCH     -0.114400
      5 H1          0.0000   -0.0000    1.5950 h3        1 MCH      0.118700
@<TRIPOS>BOND
     1    1    2 1   
     2    1    3 1   
     3    1    4 1   
     4    1    5 1   
@<TRIPOS>SUBSTRUCTURE
     1 MCH         1 TEMP              0 ****  ****    0 ROOT
