@<TRIPOS>MOLECULE
MCH
    5     4     1     0     0
SMALL
bcc


@<TRIPOS>ATOM
      1 C1          0.0160    0.0400    0.0230 c3        1 MCH      0.223500
      2 CL2         1.7630   -0.0090   -0.0050 cl        1 MCH     -0.114400
      3 CL1        -0.5910   -0.0070    1.6610 cl        1 MCH     -0.114400
      4 CL3        -0.5910    1.4360   -0.8370 cl        1 MCH     -0.114400
      5 H1         -0.3570   -0.8710   -0.5030 h3        1 MCH      0.118700
@<TRIPOS>BOND
     1    1    2 1   
     2    1    3 1   
     3    1    4 1   
     4    1    5 1   
@<TRIPOS>SUBSTRUCTURE
     1 MCH         1 TEMP              0 ****  ****    0 ROOT
