@<TRIPOS>MOLECULE
MCI
   47    49     1     0     0
SMALL
bcc


@<TRIPOS>ATOM
      1 C2          7.8850   10.5580   85.9570 ca        1 MCI     -0.070300
      2 C1          6.8480   10.2470   86.8450 ca        1 MCI     -0.126000
      3 C3          8.3620    9.5690   85.0880 ca        1 MCI     -0.126000
      4 C4          7.8080    8.2900   85.1080 ca        1 MCI     -0.132000
      5 C5          6.7730    7.9870   85.9930 ca        1 MCI     -0.141000
      6 C6          6.2950    8.9680   86.8620 ca        1 MCI     -0.132000
      7 C12         8.4650   11.9290   85.9320 c3        1 MCI     -0.044100
      8 C13         9.5290   12.1390   86.9950 c3        1 MCI     -0.066400
      9 C16        10.8530   11.4720   86.6470 c3        1 MCI     -0.136700
     10 C19        11.8160   11.5160   87.8220 c3        1 MCI      0.038700
     11 S20        12.2450    9.9040   88.4270 sh        1 MCI     -0.468900
     12 C23        11.4950   12.2000   85.4580 c         1 MCI      0.731500
     13 O25        11.7630   13.4110   85.5320 o         1 MCI     -0.578100
     14 N26        11.5980   11.5020   84.2410 ne        1 MCI     -0.675100
     15 C27        12.5950   10.7950   83.8430 cf        1 MCI      0.511900
     16 C28        13.9000   10.5040   84.6160 c         1 MCI      0.789300
     17 O29        14.0250   10.8660   85.8060 o         1 MCI     -0.771800
     18 O30        14.7880    9.8500   83.9640 o         1 MCI     -0.771800
     19 C31        12.6080   10.1260   82.5480 cd        1 MCI     -0.243000
     20 C33        11.6130   10.0920   81.5750 cc        1 MCI     -0.126000
     21 C34        12.0280    9.3350   80.4540 cc        1 MCI     -0.183000
     22 C35        13.3210    8.8380   80.6310 cd        1 MCI     -0.338400
     23 S36        13.9720    9.2810   82.0940 ss        1 MCI      0.384200
     24 C37        14.0070    7.9580   79.6650 c3        1 MCI      0.150600
     25 N38        14.2330    8.5740   78.3580 na        1 MCI     -0.061400
     26 C41        13.9560    9.8950   77.9760 cc        1 MCI      0.391400
     27 N42        14.3420    9.9950   76.6720 nd        1 MCI     -0.409000
     28 N43        14.8150    8.7990   76.3250 nd        1 MCI     -0.074000
     29 N44        14.7650    7.9490   77.2840 nc        1 MCI     -0.219800
     30 H11         6.4730   11.0180   87.5340 ha        1 MCI      0.139000
     31 H31         9.1830    9.8050   84.3910 ha        1 MCI      0.139000
     32 H41         8.1930    7.5190   84.4260 ha        1 MCI      0.124500
     33 H51         6.3390    6.9780   86.0090 ha        1 MCI      0.121000
     34 H61         5.4830    8.7320   87.5640 ha        1 MCI      0.124500
     35 H121        8.9060   12.1390   84.9200 hc        1 MCI      0.054200
     36 H122        7.6430   12.6770   86.1000 hc        1 MCI      0.054200
     37 H131        9.7040   13.2410   87.1200 hc        1 MCI      0.050200
     38 H132        9.1620   11.7320   87.9730 hc        1 MCI      0.050200
     39 H161       10.6470   10.3960   86.3790 hc        1 MCI      0.088700
     40 H191       12.7520   12.0590   87.5350 h1        1 MCI      0.086200
     41 H192       11.3560   12.0430   88.6940 h1        1 MCI      0.086200
     42 HS         13.2320    9.6160   87.5680 hs        1 MCI      0.274800
     43 H331       10.6430   10.5830   81.6630 ha        1 MCI      0.150000
     44 H341       11.4060    9.1670   79.5740 ha        1 MCI      0.127000
     45 H371       15.0150    7.6460   80.0690 h1        1 MCI      0.065200
     46 H372       13.3920    7.0240   79.4950 h1        1 MCI      0.065200
     47 H411       13.5130   10.6520   78.6310 h5        1 MCI      0.098100
@<TRIPOS>BOND
     1    1    2 ar  
     2    1    3 ar  
     3    1    7 1   
     4    2    6 ar  
     5    2   30 1   
     6    3    4 ar  
     7    3   31 1   
     8    4    5 ar  
     9    4   32 1   
    10    5    6 ar  
    11    5   33 1   
    12    6   34 1   
    13    7    8 1   
    14    7   35 1   
    15    7   36 1   
    16    8    9 1   
    17    8   37 1   
    18    8   38 1   
    19    9   10 1   
    20    9   12 1   
    21    9   39 1   
    22   10   11 1   
    23   10   40 1   
    24   10   41 1   
    25   11   42 1   
    26   12   13 2   
    27   12   14 1   
    28   14   15 2   
    29   15   16 1   
    30   15   19 1   
    31   16   17 1   
    32   16   18 1   
    33   19   20 2   
    34   19   23 1   
    35   20   21 1   
    36   20   43 1   
    37   21   22 2   
    38   21   44 1   
    39   22   23 1   
    40   22   24 1   
    41   24   25 1   
    42   24   45 1   
    43   24   46 1   
    44   25   26 1   
    45   25   29 1   
    46   26   27 2   
    47   26   47 1   
    48   27   28 1   
    49   28   29 2   
@<TRIPOS>SUBSTRUCTURE
     1 MCI         1 TEMP              0 ****  ****    0 ROOT
