@<TRIPOS>MOLECULE
MCI
   47    49     1     0     0
SMALL
bcc


@<TRIPOS>ATOM
      1 C2         -0.2010   -0.0040   -0.4650 ca        1 MCI     -0.070300
      2 C1          1.1130    0.4650   -0.3430 ca        1 MCI     -0.126000
      3 C3         -0.9710   -0.1890    0.6910 ca        1 MCI     -0.126000
      4 C4         -0.4320    0.0920    1.9460 ca        1 MCI     -0.132000
      5 C5          0.8760    0.5610    2.0590 ca        1 MCI     -0.141000
      6 C6          1.6480    0.7470    0.9120 ca        1 MCI     -0.132000
      7 C12        -0.7740   -0.2920   -1.8080 c3        1 MCI     -0.044100
      8 C13        -0.4050   -1.6710   -2.3240 c3        1 MCI     -0.066400
      9 C16        -1.1900   -2.7860   -1.6470 c3        1 MCI     -0.136700
     10 C19        -0.6430   -4.1520   -2.0270 c3        1 MCI      0.038700
     11 S20         0.0030   -5.0500   -0.6390 sh        1 MCI     -0.468900
     12 C23        -2.6610   -2.7080   -2.0780 c         1 MCI      0.731500
     13 O25        -2.9700   -2.7910   -3.2800 o         1 MCI     -0.578100
     14 N26        -3.6130   -2.3630   -1.1020 ne        1 MCI     -0.675100
     15 C27        -4.2800   -3.1740   -0.3590 cf        1 MCI      0.511900
     16 C28        -4.1700   -4.7140   -0.3260 c         1 MCI      0.789300
     17 O29        -3.2810   -5.3000   -0.9810 o         1 MCI     -0.771800
     18 O30        -5.0150   -5.3070    0.4330 o         1 MCI     -0.771800
     19 C31        -5.2620   -2.7110    0.6140 cd        1 MCI     -0.243000
     20 C33        -5.6230   -1.4040    0.9330 cc        1 MCI     -0.126000
     21 C34        -6.6270   -1.3870    1.9290 cc        1 MCI     -0.183000
     22 C35        -6.9810   -2.6820    2.3130 cd        1 MCI     -0.338400
     23 S36        -6.1210   -3.8400    1.4890 ss        1 MCI      0.384200
     24 C37        -7.9540   -2.9910    3.3790 c3        1 MCI      0.150600
     25 N38        -9.3070   -2.5130    3.1030 na        1 MCI     -0.061400
     26 C41        -9.7750   -1.8950    1.9340 cc        1 MCI      0.391400
     27 N42       -11.0970   -1.6370    2.1500 nd        1 MCI     -0.409000
     28 N43       -11.3730   -2.0830    3.3740 nd        1 MCI     -0.074000
     29 N44       -10.3520   -2.5980    3.9570 nc        1 MCI     -0.219800
     30 H11         1.7250    0.6070   -1.2460 ha        1 MCI      0.139000
     31 H31        -2.0030   -0.5650    0.6030 ha        1 MCI      0.139000
     32 H41        -1.0420   -0.0620    2.8470 ha        1 MCI      0.124500
     33 H51         1.2990    0.7800    3.0490 ha        1 MCI      0.121000
     34 H61         2.6810    1.1120    0.9980 ha        1 MCI      0.124500
     35 H121       -0.3950    0.4740   -2.5380 hc        1 MCI      0.054200
     36 H122       -1.8930   -0.1950   -1.7740 hc        1 MCI      0.054200
     37 H131        0.6910   -1.8470   -2.1620 hc        1 MCI      0.050200
     38 H132       -0.6030   -1.7100   -3.4280 hc        1 MCI      0.050200
     39 H161       -1.1050   -2.6520   -0.5310 hc        1 MCI      0.088700
     40 H191       -1.4410   -4.7660   -2.5180 h1        1 MCI      0.086200
     41 H192        0.2140   -4.0540   -2.7370 h1        1 MCI      0.086200
     42 HS         -1.1400   -5.5800   -0.1850 hs        1 MCI      0.274800
     43 H331       -5.1910   -0.5120    0.4750 ha        1 MCI      0.150000
     44 H341       -7.0550   -0.4710    2.3400 ha        1 MCI      0.127000
     45 H371       -8.0170   -4.1080    3.5360 h1        1 MCI      0.065200
     46 H372       -7.6200   -2.5170    4.3490 h1        1 MCI      0.065200
     47 H411       -9.1580   -1.6800    1.0550 h5        1 MCI      0.098100
@<TRIPOS>BOND
     1    1    2 ar  
     2    1    3 ar  
     3    1    7 1   
     4    2    6 ar  
     5    2   30 1   
     6    3    4 ar  
     7    3   31 1   
     8    4    5 ar  
     9    4   32 1   
    10    5    6 ar  
    11    5   33 1   
    12    6   34 1   
    13    7    8 1   
    14    7   35 1   
    15    7   36 1   
    16    8    9 1   
    17    8   37 1   
    18    8   38 1   
    19    9   10 1   
    20    9   12 1   
    21    9   39 1   
    22   10   11 1   
    23   10   40 1   
    24   10   41 1   
    25   11   42 1   
    26   12   13 2   
    27   12   14 1   
    28   14   15 2   
    29   15   16 1   
    30   15   19 1   
    31   16   17 1   
    32   16   18 1   
    33   19   20 2   
    34   19   23 1   
    35   20   21 1   
    36   20   43 1   
    37   21   22 2   
    38   21   44 1   
    39   22   23 1   
    40   22   24 1   
    41   24   25 1   
    42   24   45 1   
    43   24   46 1   
    44   25   26 1   
    45   25   29 1   
    46   26   27 2   
    47   26   47 1   
    48   27   28 1   
    49   28   29 2   
@<TRIPOS>SUBSTRUCTURE
     1 MCI         1 TEMP              0 ****  ****    0 ROOT
