@<TRIPOS>MOLECULE
MCI
   47    49     1     0     0
SMALL
bcc


@<TRIPOS>ATOM
      1 C2         -0.1900   -0.0130   -0.4450 ca        1 MCI     -0.070300
      2 C1          1.1260    0.4510   -0.3190 ca        1 MCI     -0.126000
      3 C3         -0.9630   -0.2010    0.7070 ca        1 MCI     -0.126000
      4 C4         -0.4260    0.0710    1.9640 ca        1 MCI     -0.132000
      5 C5          0.8840    0.5340    2.0840 ca        1 MCI     -0.141000
      6 C6          1.6590    0.7230    0.9400 ca        1 MCI     -0.132000
      7 C12        -0.7610   -0.2910   -1.7920 c3        1 MCI     -0.044100
      8 C13        -0.3960   -1.6690   -2.3140 c3        1 MCI     -0.066400
      9 C16        -1.1890   -2.7840   -1.6450 c3        1 MCI     -0.136700
     10 C19        -0.6460   -4.1510   -2.0310 c3        1 MCI      0.038700
     11 S20        -0.0090   -5.0590   -0.6470 sh        1 MCI     -0.468900
     12 C23        -2.6580   -2.6970   -2.0800 c         1 MCI      0.731500
     13 O25        -2.9640   -2.7710   -3.2830 o         1 MCI     -0.578100
     14 N26        -3.6110   -2.3540   -1.1040 ne        1 MCI     -0.675100
     15 C27        -4.2830   -3.1670   -0.3680 cf        1 MCI      0.511900
     16 C28        -4.1810   -4.7070   -0.3440 c         1 MCI      0.789300
     17 O29        -3.2930   -5.2930   -1.0000 o         1 MCI     -0.771800
     18 O30        -5.0310   -5.3010    0.4090 o         1 MCI     -0.771800
     19 C31        -5.2660   -2.7040    0.6050 cd        1 MCI     -0.243000
     20 C33        -5.6220   -1.3980    0.9310 cc        1 MCI     -0.126000
     21 C34        -6.6280   -1.3820    1.9250 cc        1 MCI     -0.183000
     22 C35        -6.9900   -2.6780    2.2990 cd        1 MCI     -0.338400
     23 S36        -6.1330   -3.8360    1.4700 ss        1 MCI      0.384200
     24 C37        -7.9670   -2.9890    3.3600 c3        1 MCI      0.150600
     25 N38        -9.3180   -2.5030    3.0830 na        1 MCI     -0.061400
     26 C41        -9.7790   -1.8750    1.9170 cc        1 MCI      0.391400
     27 N42       -11.1000   -1.6130    2.1300 nd        1 MCI     -0.409000
     28 N43       -11.3820   -2.0660    3.3510 nd        1 MCI     -0.074000
     29 N44       -10.3660   -2.5890    3.9330 nc        1 MCI     -0.219800
     30 H11         1.7400    0.5960   -1.2190 ha        1 MCI      0.139000
     31 H31        -1.9960   -0.5730    0.6150 ha        1 MCI      0.139000
     32 H41        -1.0390   -0.0860    2.8640 ha        1 MCI      0.124500
     33 H51         1.3060    0.7460    3.0760 ha        1 MCI      0.121000
     34 H61         2.6930    1.0840    1.0300 ha        1 MCI      0.124500
     35 H121       -0.3770    0.4770   -2.5170 hc        1 MCI      0.054200
     36 H122       -1.8790   -0.1900   -1.7600 hc        1 MCI      0.054200
     37 H131        0.6990   -1.8500   -2.1500 hc        1 MCI      0.050200
     38 H132       -0.5920   -1.7020   -3.4190 hc        1 MCI      0.050200
     39 H161       -1.1050   -2.6560   -0.5280 hc        1 MCI      0.088700
     40 H191       -1.4460   -4.7580   -2.5290 h1        1 MCI      0.086200
     41 H192        0.2130   -4.0530   -2.7380 h1        1 MCI      0.086200
     42 HS         -1.1560   -5.5870   -0.1990 hs        1 MCI      0.274800
     43 H331       -5.1840   -0.5060    0.4810 ha        1 MCI      0.150000
     44 H341       -7.0530   -0.4670    2.3400 ha        1 MCI      0.127000
     45 H371       -8.0370   -4.1070    3.5100 h1        1 MCI      0.065200
     46 H372       -7.6350   -2.5230    4.3350 h1        1 MCI      0.065200
     47 H411       -9.1580   -1.6580    1.0410 h5        1 MCI      0.098100
@<TRIPOS>BOND
     1    1    2 ar  
     2    1    3 ar  
     3    1    7 1   
     4    2    6 ar  
     5    2   30 1   
     6    3    4 ar  
     7    3   31 1   
     8    4    5 ar  
     9    4   32 1   
    10    5    6 ar  
    11    5   33 1   
    12    6   34 1   
    13    7    8 1   
    14    7   35 1   
    15    7   36 1   
    16    8    9 1   
    17    8   37 1   
    18    8   38 1   
    19    9   10 1   
    20    9   12 1   
    21    9   39 1   
    22   10   11 1   
    23   10   40 1   
    24   10   41 1   
    25   11   42 1   
    26   12   13 2   
    27   12   14 1   
    28   14   15 2   
    29   15   16 1   
    30   15   19 1   
    31   16   17 1   
    32   16   18 1   
    33   19   20 2   
    34   19   23 1   
    35   20   21 1   
    36   20   43 1   
    37   21   22 2   
    38   21   44 1   
    39   22   23 1   
    40   22   24 1   
    41   24   25 1   
    42   24   45 1   
    43   24   46 1   
    44   25   26 1   
    45   25   29 1   
    46   26   27 2   
    47   26   47 1   
    48   27   28 1   
    49   28   29 2   
@<TRIPOS>SUBSTRUCTURE
     1 MCI         1 TEMP              0 ****  ****    0 ROOT
