@<TRIPOS>MOLECULE
MCI
   47    49     1     0     0
SMALL
bcc


@<TRIPOS>ATOM
      1 C2         -0.2010   -0.0040   -0.4660 ca        1 MCI     -0.070300
      2 C1          1.1130    0.4650   -0.3470 ca        1 MCI     -0.126000
      3 C3         -0.9670   -0.1930    0.6900 ca        1 MCI     -0.126000
      4 C4         -0.4250    0.0830    1.9450 ca        1 MCI     -0.132000
      5 C5          0.8840    0.5520    2.0560 ca        1 MCI     -0.141000
      6 C6          1.6520    0.7420    0.9070 ca        1 MCI     -0.132000
      7 C12        -0.7780   -0.2860   -1.8090 c3        1 MCI     -0.044100
      8 C13        -0.4120   -1.6650   -2.3300 c3        1 MCI     -0.066400
      9 C16        -1.1970   -2.7810   -1.6560 c3        1 MCI     -0.136700
     10 C19        -0.6520   -4.1460   -2.0420 c3        1 MCI      0.038700
     11 S20        -0.0040   -5.0510   -0.6600 sh        1 MCI     -0.468900
     12 C23        -2.6690   -2.7000   -2.0830 c         1 MCI      0.731500
     13 O25        -2.9810   -2.7770   -3.2840 o         1 MCI     -0.578100
     14 N26        -3.6170   -2.3580   -1.1020 ne        1 MCI     -0.675100
     15 C27        -4.2830   -3.1710   -0.3610 cf        1 MCI      0.511900
     16 C28        -4.1760   -4.7110   -0.3360 c         1 MCI      0.789300
     17 O29        -3.2900   -5.2950   -0.9960 o         1 MCI     -0.771800
     18 O30        -5.0200   -5.3060    0.4230 o         1 MCI     -0.771800
     19 C31        -5.2620   -2.7110    0.6160 cd        1 MCI     -0.243000
     20 C33        -5.6200   -1.4050    0.9430 cc        1 MCI     -0.126000
     21 C34        -6.6210   -1.3900    1.9420 cc        1 MCI     -0.183000
     22 C35        -6.9760   -2.6870    2.3200 cd        1 MCI     -0.338400
     23 S36        -6.1210   -3.8430    1.4890 ss        1 MCI      0.384200
     24 C37        -7.9470   -2.9990    3.3870 c3        1 MCI      0.150600
     25 N38        -9.3000   -2.5170    3.1180 na        1 MCI     -0.061400
     26 C41        -9.7700   -1.8920    1.9530 cc        1 MCI      0.391400
     27 N42       -11.0900   -1.6330    2.1740 nd        1 MCI     -0.409000
     28 N43       -11.3640   -2.0850    3.3970 nd        1 MCI     -0.074000
     29 N44       -10.3430   -2.6050    3.9740 nc        1 MCI     -0.219800
     30 H11         1.7220    0.6110   -1.2520 ha        1 MCI      0.139000
     31 H31        -2.0000   -0.5690    0.6050 ha        1 MCI      0.139000
     32 H41        -1.0320   -0.0740    2.8480 ha        1 MCI      0.124500
     33 H51         1.3100    0.7670    3.0460 ha        1 MCI      0.121000
     34 H61         2.6860    1.1070    0.9920 ha        1 MCI      0.124500
     35 H121       -0.4000    0.4810   -2.5380 hc        1 MCI      0.054200
     36 H122       -1.8970   -0.1890   -1.7720 hc        1 MCI      0.054200
     37 H131       -0.6130   -1.7000   -3.4350 hc        1 MCI      0.050200
     38 H132        0.6850   -1.8420   -2.1720 hc        1 MCI      0.050200
     39 H161       -1.1080   -2.6510   -0.5390 hc        1 MCI      0.088700
     40 H191        0.2030   -4.0470   -2.7540 h1        1 MCI      0.086200
     41 H192       -1.4520   -4.7570   -2.5340 h1        1 MCI      0.086200
     42 HS         -1.1470   -5.5820   -0.2050 hs        1 MCI      0.274800
     43 H331       -5.1880   -0.5120    0.4880 ha        1 MCI      0.150000
     44 H341       -7.0460   -0.4760    2.3580 ha        1 MCI      0.127000
     45 H371       -8.0120   -4.1170    3.5390 h1        1 MCI      0.065200
     46 H372       -7.6090   -2.5310    4.3600 h1        1 MCI      0.065200
     47 H411       -9.1550   -1.6740    1.0740 h5        1 MCI      0.098100
@<TRIPOS>BOND
     1    1    2 ar  
     2    1    3 ar  
     3    1    7 1   
     4    2    6 ar  
     5    2   30 1   
     6    3    4 ar  
     7    3   31 1   
     8    4    5 ar  
     9    4   32 1   
    10    5    6 ar  
    11    5   33 1   
    12    6   34 1   
    13    7    8 1   
    14    7   35 1   
    15    7   36 1   
    16    8    9 1   
    17    8   37 1   
    18    8   38 1   
    19    9   10 1   
    20    9   12 1   
    21    9   39 1   
    22   10   11 1   
    23   10   40 1   
    24   10   41 1   
    25   11   42 1   
    26   12   13 2   
    27   12   14 1   
    28   14   15 2   
    29   15   16 1   
    30   15   19 1   
    31   16   17 1   
    32   16   18 1   
    33   19   20 2   
    34   19   23 1   
    35   20   21 1   
    36   20   43 1   
    37   21   22 2   
    38   21   44 1   
    39   22   23 1   
    40   22   24 1   
    41   24   25 1   
    42   24   45 1   
    43   24   46 1   
    44   25   26 1   
    45   25   29 1   
    46   26   27 2   
    47   26   47 1   
    48   27   28 1   
    49   28   29 2   
@<TRIPOS>SUBSTRUCTURE
     1 MCI         1 TEMP              0 ****  ****    0 ROOT
