@<TRIPOS>MOLECULE
MCJ
   77    79     1     0     0
SMALL
bcc


@<TRIPOS>ATOM
      1 C1          0.9540    6.7140    0.6460 ca        1 MCJ      0.117100
      2 N1          0.3020    3.2730   -0.3510 n         1 MCJ     -0.543900
      3 O1          0.5850    6.7170    1.9660 oh        1 MCJ     -0.526100
      4 C3         -7.5450   -2.0560   -1.0200 ca        1 MCJ      0.112100
      5 N3         -4.1370   -1.3600    0.1470 n         1 MCJ     -0.508900
      6 O3         -8.2700   -2.1280    0.1430 oh        1 MCJ     -0.539100
      7 C4          1.1540    7.9990    0.0780 ca        1 MCJ      0.090100
      8 O4          0.9830    9.1550    0.8040 oh        1 MCJ     -0.502100
      9 C6         -8.2380   -2.4930   -2.1770 ca        1 MCJ      0.082100
     10 O6         -9.5370   -2.9480   -2.1250 oh        1 MCJ     -0.507100
     11 C7          1.5360    8.1280   -1.2580 ca        1 MCJ     -0.121000
     12 O7          1.2890    3.9800    1.6180 o         1 MCJ     -0.605100
     13 C9         -7.6130   -2.4740   -3.4250 ca        1 MCJ     -0.125000
     14 O9         -6.1110   -0.6060    1.0360 o         1 MCJ     -0.682100
     15 C10         1.7230    6.9790   -2.0300 ca        1 MCJ     -0.144000
     16 C12        -6.2980   -2.0160   -3.5210 ca        1 MCJ     -0.147000
     17 O12        -1.5980   -2.3630    0.1880 o         1 MCJ     -0.835300
     18 C13         1.5200    5.7170   -1.4850 ca        1 MCJ     -0.107000
     19 O14        -1.0450   -1.2990    2.0570 o         1 MCJ     -0.835300
     20 C15        -5.6090   -1.5920   -2.3890 ca        1 MCJ     -0.102000
     21 C16         1.1230    5.5710   -0.1480 ca        1 MCJ     -0.187600
     22 C18        -6.2160   -1.6170   -1.1260 ca        1 MCJ     -0.170600
     23 C19         0.9100    4.2180    0.4510 c         1 MCJ      0.682700
     24 C21        -5.4810   -1.1570    0.0930 c         1 MCJ      0.664700
     25 C22        -0.1520    1.9770    0.0730 c3        1 MCJ      0.058700
     26 C24        -3.3140   -0.9950    1.2760 c3        1 MCJ     -0.024300
     27 C25        -1.4440    2.0220    0.8930 c         1 MCJ      0.619100
     28 C27        -1.8790   -1.6020    1.1590 c         1 MCJ      0.916600
     29 C30        -3.2040    0.5230    1.5000 c3        1 MCJ      0.142400
     30 C32         0.8520    1.1350    0.8920 c3        1 MCJ      0.124400
     31 O33         1.4510    0.2490   -0.0720 os        1 MCJ     -0.448900
     32 C34         2.3480   -0.6550    0.4270 c         1 MCJ      0.630100
     33 O35         2.8810   -0.4270    1.5130 o         1 MCJ     -0.536000
     34 C36         2.5450   -1.8410   -0.5120 c3        1 MCJ      0.021700
     35 N37         3.7050   -2.6180   -0.1550 n         1 MCJ     -0.520900
     36 C38         1.2440   -2.6950   -0.4860 c3        1 MCJ      0.144400
     37 O39         1.0630   -3.2770    0.7790 oh        1 MCJ     -0.634800
     38 C40         4.9320   -2.4390   -0.7420 c         1 MCJ      0.679700
     39 O41         5.0700   -1.7360   -1.7740 o         1 MCJ     -0.656100
     40 C42         6.0940   -3.1690   -0.1560 ca        1 MCJ     -0.177600
     41 C43         7.0950   -3.6850   -0.9940 ca        1 MCJ      0.109100
     42 C44         8.1950   -4.3790   -0.4320 ca        1 MCJ      0.086100
     43 C45         8.2970   -4.5360    0.9530 ca        1 MCJ     -0.120000
     44 C46         7.3080   -3.9960    1.7750 ca        1 MCJ     -0.142000
     45 C47         6.2210   -3.3200    1.2320 ca        1 MCJ     -0.099000
     46 O48         7.1040   -3.6000   -2.3640 oh        1 MCJ     -0.534100
     47 O49         9.1930   -4.9240   -1.2080 oh        1 MCJ     -0.503100
     48 HN1        -0.0620    3.5840   -1.2230 hn        1 MCJ      0.314500
     49 HN3        -3.6610   -1.8550   -0.5800 hn        1 MCJ      0.346500
     50 HO3        -7.7990   -1.6460    0.8480 ho        1 MCJ      0.475000
     51 HO6        -9.8420   -2.8700   -1.2070 ho        1 MCJ      0.436000
     52 H7          1.6900    9.1300   -1.6810 ha        1 MCJ      0.148000
     53 H10         2.0380    7.0790   -3.0790 ha        1 MCJ      0.135000
     54 H13         1.6940    4.8260   -2.1070 ha        1 MCJ      0.142000
     55 H15        -4.5760   -1.2260   -2.4990 ha        1 MCJ      0.148000
     56 H22        -0.3830    1.3890   -0.8740 h1        1 MCJ      0.110700
     57 H24        -3.7880   -1.4130    2.2140 h1        1 MCJ      0.069700
     58 H30        -2.7930    0.7090    2.5270 h1        1 MCJ      0.067700
     59 H30A       -4.1820    1.0510    1.3640 h1        1 MCJ      0.067700
     60 H32         1.6460    1.7470    1.3890 h1        1 MCJ      0.108200
     61 H32A        0.3050    0.5010    1.6500 h1        1 MCJ      0.108200
     62 H36         2.6810   -1.4330   -1.5580 h1        1 MCJ      0.104700
     63 HN37        3.6230   -3.1460    0.6850 hn        1 MCJ      0.339500
     64 H38         0.3790   -2.0350   -0.7710 h1        1 MCJ      0.069700
     65 H38A        1.3520   -3.5340   -1.2240 h1        1 MCJ      0.069700
     66 HO39        0.2770   -2.8590    1.1840 ho        1 MCJ      0.473000
     67 H45         9.1570   -5.0760    1.3730 ha        1 MCJ      0.147000
     68 H46         7.3920   -4.1060    2.8670 ha        1 MCJ      0.138000
     69 H47         5.4650   -2.8860    1.9070 ha        1 MCJ      0.155000
     70 HO48        6.4580   -2.9280   -2.6470 ho        1 MCJ      0.470000
     71 HO49        9.0120   -4.6910   -2.1320 ho        1 MCJ      0.437000
     72 H28         0.6000    5.8060    2.3110 ho        1 MCJ      0.475000
     73 H29         0.7540    8.9070    1.7140 ho        1 MCJ      0.440000
     74 O10        -1.7760    2.8040    1.7830 o         1 MCJ     -0.534000
     75 O15        -2.2950    1.0320    0.5070 os        1 MCJ     -0.434900
     76 H9         -8.1640   -2.8160   -4.3110 ha        1 MCJ      0.144000
     77 H12        -5.8040   -1.9930   -4.5030 ha        1 MCJ      0.133000
@<TRIPOS>BOND
     1    1    3 1   
     2    1    7 ar  
     3    1   21 ar  
     4    2   23 1   
     5    2   25 1   
     6    2   48 1   
     7    3   72 1   
     8    4    6 1   
     9    4    9 ar  
    10    4   22 ar  
    11    5   24 1   
    12    5   26 1   
    13    5   49 1   
    14    6   50 1   
    15    7    8 1   
    16    7   11 ar  
    17    8   73 1   
    18    9   10 1   
    19    9   13 ar  
    20   10   51 1   
    21   11   15 ar  
    22   11   52 1   
    23   12   23 2   
    24   13   16 ar  
    25   13   76 1   
    26   14   24 2   
    27   15   18 ar  
    28   15   53 1   
    29   16   20 ar  
    30   16   77 1   
    31   17   28 1   
    32   18   21 ar  
    33   18   54 1   
    34   19   28 1   
    35   20   22 ar  
    36   20   55 1   
    37   21   23 1   
    38   22   24 1   
    39   25   27 1   
    40   25   30 1   
    41   25   56 1   
    42   26   28 1   
    43   26   29 1   
    44   26   57 1   
    45   27   74 2   
    46   27   75 1   
    47   29   58 1   
    48   29   59 1   
    49   29   75 1   
    50   30   31 1   
    51   30   60 1   
    52   30   61 1   
    53   31   32 1   
    54   32   33 2   
    55   32   34 1   
    56   34   35 1   
    57   34   36 1   
    58   34   62 1   
    59   35   38 1   
    60   35   63 1   
    61   36   37 1   
    62   36   64 1   
    63   36   65 1   
    64   37   66 1   
    65   38   39 2   
    66   38   40 1   
    67   40   41 ar  
    68   40   45 ar  
    69   41   42 ar  
    70   41   46 1   
    71   42   43 ar  
    72   42   47 1   
    73   43   44 ar  
    74   43   67 1   
    75   44   45 ar  
    76   44   68 1   
    77   45   69 1   
    78   46   70 1   
    79   47   71 1   
@<TRIPOS>SUBSTRUCTURE
     1 MCJ         1 TEMP              0 ****  ****    0 ROOT
