@<TRIPOS>MOLECULE
MCJ
   80    77     1     0     0
SMALL
bcc


@<TRIPOS>ATOM
      1 C1         -0.3390    1.2080    0.6310 c2        1 MCJ     -0.143000
      2 N1         -3.1090    2.0610    0.7230 n         1 MCJ     -0.382000
      3 O1         -0.9730    0.4100   -0.3170 oh        1 MCJ     -0.283000
      4 C3        -10.0300   -7.9790    5.2250 ca        1 MCJ      0.106000
      5 N3        -10.4130   -5.3490    2.4910 n4        1 MCJ     -0.055000
      6 O3        -10.6530   -9.0990    4.7570 oh        1 MCJ     -0.240000
      7 C4          0.5290    0.5800    1.4740 c2        1 MCJ      0.181000
      8 O4          0.8080   -0.7590    1.3600 oh        1 MCJ     -0.248000
      9 C6         -9.6680   -8.0430    6.6010 ca        1 MCJ      0.076000
     10 O6         -9.9040   -9.1450    7.3710 oh        1 MCJ     -0.213000
     11 C7          1.2130    1.2120    2.5810 c2        1 MCJ     -0.486000
     12 O7         -2.4330    4.1100    1.4230 o         1 MCJ     -0.521000
     13 C9         -9.0500   -6.9520    7.2150 ca        1 MCJ     -0.064000
     14 O9        -10.4780   -7.6530    2.3360 o         1 MCJ     -0.239000
     15 C10         2.0160    0.6550    3.4740 c1        1 MCJ      0.323000
     16 C12        -8.7860   -5.7970    6.4670 ca        1 MCJ     -0.110000
     17 O12        -8.9480   -3.0640    2.9780 oh        1 MCJ     -0.342000
     18 C13         0.1900    3.6000    0.4880 c2        1 MCJ     -0.127000
     19 O14        -7.6880   -3.2560    1.1500 o         1 MCJ     -0.307000
     20 C15        -9.1460   -5.7130    5.1340 ca        1 MCJ     -0.116000
     21 C16        -0.7040    2.6200    0.6770 c2        1 MCJ     -0.112000
     22 C18        -9.7920   -6.7940    4.4920 ca        1 MCJ     -0.226000
     23 C19        -2.1310    2.9700    0.9640 c2        1 MCJ      0.367000
     24 C21       -10.2090   -6.7340    3.1060 c2        1 MCJ      0.334000
     25 C22        -6.8180    1.2670    3.3660 c2        1 MCJ     -0.238000
     26 C24        -9.3320   -4.9800    1.5730 c2        1 MCJ     -0.195000
     27 C25        -6.4030    0.3880    2.2800 c2        1 MCJ      0.367000
     28 C27        -8.5850   -3.7270    1.8480 c2        1 MCJ      0.355000
     29 C30        -9.0140   -5.7200    0.4900 c2        1 MCJ     -0.021000
     30 C32        -6.2380    2.4770    3.4910 c2        1 MCJ      0.068000
     31 O33        -6.6550    3.2850    4.5340 os        1 MCJ     -0.228000
     32 C34        -6.1040    4.5370    4.6730 c2        1 MCJ      0.308000
     33 O35        -5.2640    4.9120    3.8600 o         1 MCJ     -0.383000
     34 C36        -1.8760    6.9020    2.3040 c3        1 MCJ     -0.221000
     35 N37        -3.3350    6.5760    2.3570 n4        1 MCJ     -0.088000
     36 C38        -1.1160    7.2580    3.5320 c1        1 MCJ      0.047000
     37 O39        -1.7770    7.2000    4.6640 oh        1 MCJ     -0.230000
     38 C40        -4.2040    7.7900    2.4520 c2        1 MCJ      0.302000
     39 O41        -4.7440    7.9800    3.5390 o         1 MCJ     -0.212000
     40 C42        -4.3550    8.6420    1.2560 c2        1 MCJ     -0.142000
     41 C43        -3.7410    8.2220    0.0010 c2        1 MCJ     -0.053000
     42 C44        -2.8690    8.9980   -0.7080 c2        1 MCJ      0.079000
     43 C45        -2.4870   10.3380   -0.3240 c2        1 MCJ     -0.477000
     44 C46        -3.1590   11.1030    0.5240 c1        1 MCJ      0.241000
     45 C47        -5.0720    9.7810    1.3670 c2        1 MCJ     -0.042000
     46 O48        -4.0670    6.9340   -0.3790 oh        1 MCJ     -0.276000
     47 O49        -2.3310    8.4280   -1.8410 oh        1 MCJ     -0.259000
     48 HN1        -4.0560    2.2670    0.9370 hn        1 MCJ      0.248500
     49 HN3       -10.4870   -4.6440    3.2400 hn        1 MCJ      0.274000
     50 HO3       -10.5770   -9.1600    3.7900 ho        1 MCJ      0.263000
     51 HO6       -10.2950   -9.8460    6.8210 ho        1 MCJ      0.258000
     52 H7          1.0330    2.3070    2.6730 ha        1 MCJ      0.201000
     53 H10        -0.0940    4.6610    0.5380 ha        1 MCJ      0.134000
     54 H13         1.2490    3.3950    0.2710 ha        1 MCJ      0.134000
     55 H22        -7.6000    0.9020    4.0480 ha        1 MCJ      0.175000
     56 H24        -9.5200   -6.6630    0.2190 ha        1 MCJ      0.191000
     57 H30        -6.7050   -1.3390    1.4880 ho        1 MCJ      0.271000
     58 H30A       -8.1960   -5.3900   -0.1800 ha        1 MCJ      0.191000
     59 H32        -8.4290   -2.2370    3.0670 ho        1 MCJ      0.304000
     60 H32A       -5.4510    2.8760    2.8270 h4        1 MCJ      0.179000
     61 H36        -6.5370    5.0460    5.5550 h5        1 MCJ      0.219000
     62 HN37       -1.3480    5.9810    1.8850 hx        1 MCJ      0.189500
     63 H38        -1.7260    7.7460    1.5630 hx        1 MCJ      0.189500
     64 H38A       -3.5110    5.9690    3.1740 hn        1 MCJ      0.285000
     65 HO39       -1.1670    7.4450    5.3920 ho        1 MCJ      0.298000
     66 H45        -1.5540   10.7400   -0.7770 ha        1 MCJ      0.218000
     67 H46        -5.4870   10.1180    2.3330 ha        1 MCJ      0.171000
     68 H47        -5.3200   10.4140    0.4960 ha        1 MCJ      0.171000
     69 HO48       -3.8490    6.8330   -1.3210 ho        1 MCJ      0.259000
     70 HO49       -2.0390    9.1390   -2.4340 ho        1 MCJ      0.252000
     71 H28        -0.6720    0.7220   -1.1840 ho        1 MCJ      0.222000
     72 H29         0.3430   -1.1130    0.5820 ho        1 MCJ      0.248000
     73 O10        -5.5620    0.5890    1.3940 o         1 MCJ     -0.381000
     74 O15        -7.0380   -0.8220    2.2460 oh        1 MCJ     -0.351000
     75 H9         -8.7690   -7.0190    8.2800 ha        1 MCJ      0.191000
     76 H12        -8.2790   -4.9480    6.9550 ha        1 MCJ      0.167000
     77 H121       -2.8950    1.1460    0.3990 hn        1 MCJ      0.248500
     78 H321      -11.2950   -5.3620    1.9590 hn        1 MCJ      0.274000
     79 H372       -3.5830    6.0340    1.5080 hn        1 MCJ      0.285000
     80 H15        -8.8850   -4.7960    4.5800 ha        1 MCJ      0.141000
@<TRIPOS>BOND
     1    1    3 1   
     2    1    7 1   
     3    1   21 1   
     4    2   23 1   
     5    2   48 1   
     6    2   77 1   
     7    3   71 1   
     8    4    6 1   
     9    4    9 1   
    10    4   22 1   
    11    5   24 1   
    12    5   26 1   
    13    5   49 1   
    14    5   78 1   
    15    6   50 1   
    16    7    8 1   
    17    7   11 1   
    18    8   72 1   
    19    9   10 1   
    20    9   13 1   
    21   10   51 1   
    22   11   15 1   
    23   11   52 1   
    24   12   23 1   
    25   13   16 1   
    26   13   75 1   
    27   14   24 1   
    28   16   20 1   
    29   16   76 1   
    30   17   28 1   
    31   17   59 1   
    32   18   21 1   
    33   18   53 1   
    34   18   54 1   
    35   19   28 1   
    36   20   22 1   
    37   20   80 1   
    38   21   23 1   
    39   22   24 1   
    40   25   27 1   
    41   25   30 1   
    42   25   55 1   
    43   26   28 1   
    44   26   29 1   
    45   27   73 1   
    46   27   74 1   
    47   29   56 1   
    48   29   58 1   
    49   30   31 1   
    50   30   60 1   
    51   31   32 1   
    52   32   33 1   
    53   32   61 1   
    54   34   35 1   
    55   34   36 1   
    56   34   62 1   
    57   34   63 1   
    58   35   38 1   
    59   35   64 1   
    60   35   79 1   
    61   36   37 1   
    62   37   65 1   
    63   38   39 1   
    64   38   40 1   
    65   40   41 1   
    66   40   45 1   
    67   41   42 1   
    68   41   46 1   
    69   42   43 1   
    70   42   47 1   
    71   43   44 1   
    72   43   66 1   
    73   45   67 1   
    74   45   68 1   
    75   46   69 1   
    76   47   70 1   
    77   57   74 1   
@<TRIPOS>SUBSTRUCTURE
     1 MCJ         1 TEMP              0 ****  ****    0 ROOT
