@<TRIPOS>MOLECULE
MCJ
   80    77     1     0     0
SMALL
bcc


@<TRIPOS>ATOM
      1 C1         -0.3040    2.3450    1.6250 c2        1 MCJ     -0.066000
      2 N1         -1.2650   -1.1740    1.8470 nt        1 MCJ     -0.402000
      3 O1         -1.1080    2.9130    2.6080 oh        1 MCJ     -0.299000
      4 C3         -9.6840   -6.7370    4.8490 ca        1 MCJ      0.093000
      5 N3         -9.1280   -3.3840    3.1910 ny        1 MCJ     -0.053000
      6 O3        -10.8780   -7.1790    4.3500 oh        1 MCJ     -0.243000
      7 C4          0.0750    3.1980    0.6300 c2        1 MCJ      0.131000
      8 O4         -0.2840    4.5310    0.6700 oh        1 MCJ     -0.284000
      9 C6         -9.2070   -7.4570    5.9790 ca        1 MCJ      0.083000
     10 O6         -9.8760   -8.5240    6.5040 oh        1 MCJ     -0.213000
     11 C7          0.7770    2.8330   -0.5790 c2        1 MCJ     -0.475000
     12 O7         -1.8390    0.5620    3.1900 o         1 MCJ     -0.461000
     13 C9         -8.0130   -7.0780    6.5980 ca        1 MCJ     -0.070000
     14 O9        -10.2170   -5.2580    2.3440 o         1 MCJ     -0.231000
     15 C10         1.3290    3.6400   -1.4710 c1        1 MCJ      0.304000
     16 C12        -7.2900   -5.9900    6.0960 ca        1 MCJ     -0.105000
     17 O12        -9.7350   -1.5790    5.1750 oh        1 MCJ     -0.336000
     18 C13         1.2330    0.4270    1.4320 c2        1 MCJ     -0.137000
     19 O14       -11.5250   -0.7490    4.1370 o         1 MCJ     -0.278000
     20 C15        -7.7530   -5.2680    5.0090 ca        1 MCJ     -0.123000
     21 C16         0.0320    0.9320    1.7430 c2        1 MCJ     -0.127000
     22 C18        -8.9690   -5.6140    4.3820 ca        1 MCJ     -0.219000
     23 C19        -1.0670    0.0920    2.3120 c2        1 MCJ      0.354000
     24 C21        -9.4980   -4.8620    3.2560 c2        1 MCJ      0.333000
     25 C22        -5.8060   -0.6940    2.5750 c2        1 MCJ     -0.281000
     26 C24       -10.2940   -2.5130    3.0280 c2        1 MCJ     -0.191000
     27 C25        -5.3430   -2.0720    2.5970 c2        1 MCJ      0.372000
     28 C27       -10.5950   -1.5510    4.1200 c2        1 MCJ      0.341000
     29 C30       -11.0930   -2.5520    1.9420 c2        1 MCJ     -0.024000
     30 C32        -4.8790    0.2850    2.6670 c2        1 MCJ      0.090000
     31 O33        -5.2840    1.5970    2.5900 os        1 MCJ     -0.221000
     32 C34        -4.2700    2.5520    2.6710 c2        1 MCJ      0.289000
     33 O35        -4.7140    3.6860    2.5070 o         1 MCJ     -0.360000
     34 C36        -4.8520    7.7910    2.8690 c3        1 MCJ     -0.259000
     35 N37        -4.4700    6.5160    2.2050 ny        1 MCJ     -0.064000
     36 C38        -5.9690    7.5040    3.8500 c1        1 MCJ      0.052000
     37 O39        -6.5420    8.4500    4.4880 oh        1 MCJ     -0.097000
     38 C40        -3.1700    6.6420    1.4580 c2        1 MCJ      0.314000
     39 O41        -2.1790    6.2570    2.0720 o         1 MCJ     -0.212000
     40 C42        -3.2080    7.1630    0.0800 c2        1 MCJ     -0.149000
     41 C43        -4.3010    8.0400   -0.3220 c2        1 MCJ     -0.079000
     42 C44        -4.1040    9.3170   -0.7720 c2        1 MCJ      0.109000
     43 C45        -2.7980    9.9100   -0.9510 c2        1 MCJ     -0.484000
     44 C46        -1.6680    9.2210   -1.0260 c1        1 MCJ      0.256000
     45 C47        -2.1910    6.8360   -0.7490 c2        1 MCJ     -0.034000
     46 O48        -5.5720    7.5210   -0.1480 oh        1 MCJ     -0.295000
     47 O49        -5.2390   10.0330   -1.0670 oh        1 MCJ     -0.254000
     48 HN1        -0.6460   -1.5810    1.1920 hn        1 MCJ      0.245500
     49 HN3        -8.4850   -3.2370    2.3970 hn        1 MCJ      0.279000
     50 HO3       -10.9390   -6.9760    3.4010 ho        1 MCJ      0.260000
     51 HO6       -10.6580   -8.7150    5.9570 ho        1 MCJ      0.257000
     52 H7          0.8510    1.7380   -0.7720 ha        1 MCJ      0.204000
     53 H10         1.4810   -0.6390    1.5360 ha        1 MCJ      0.142000
     54 H13         2.0570    1.0630    1.0750 ha        1 MCJ      0.142000
     55 H22        -6.8800   -0.5030    2.4660 ha        1 MCJ      0.163000
     56 H24       -10.9510   -3.2450    1.0960 ha        1 MCJ      0.187500
     57 H30        -5.9150   -3.9050    2.6590 ho        1 MCJ      0.259000
     58 H30A      -11.9610   -1.8670    1.8770 ha        1 MCJ      0.187500
     59 H32       -10.0240   -0.9400    5.8530 ho        1 MCJ      0.291000
     60 H32A       -3.7950    0.0850    2.8050 h4        1 MCJ      0.203000
     61 H36        -3.2230    2.2210    2.8570 h5        1 MCJ      0.231000
     62 HN37       -4.3850    5.7730    2.9230 hn        1 MCJ      0.285000
     63 H38        -5.1670    8.5230    2.0650 hx        1 MCJ      0.161000
     64 H38A       -3.9480    8.2020    3.4070 hx        1 MCJ      0.161000
     65 HO39       -6.2420    9.3730    4.3210 ho        1 MCJ      0.200000
     66 H45        -2.7540   11.0190   -1.0240 ha        1 MCJ      0.220000
     67 H46        -1.3290    6.2280   -0.4130 ha        1 MCJ      0.179500
     68 H47        -2.1870    7.1180   -1.8170 ha        1 MCJ      0.179500
     69 HO48       -6.1520    7.9250   -0.8160 ho        1 MCJ      0.263000
     70 HO49       -4.9970   10.7860   -1.6310 ho        1 MCJ      0.256000
     71 H28        -0.8730    2.4930    3.4530 ho        1 MCJ      0.248000
     72 H29        -0.4830    4.7670    1.5930 ho        1 MCJ      0.248000
     73 O10        -4.1940   -2.5200    2.5280 o         1 MCJ     -0.357000
     74 O15        -6.3320   -3.0270    2.7020 oh        1 MCJ     -0.394000
     75 H9         -7.6510   -7.6510    7.4700 ha        1 MCJ      0.191000
     76 H12        -6.3370   -5.7130    6.5760 ha        1 MCJ      0.168000
     77 H121       -1.9820   -1.7400    2.2440 hn        1 MCJ      0.245500
     78 H321       -8.6260   -3.1180    4.0550 hn        1 MCJ      0.279000
     79 H372       -5.2180    6.2340    1.5520 hn        1 MCJ      0.285000
     80 H15        -7.1330   -4.4430    4.6230 ha        1 MCJ      0.131000
@<TRIPOS>BOND
     1    1    3 1   
     2    1    7 1   
     3    1   21 1   
     4    2   23 1   
     5    2   48 1   
     6    2   77 1   
     7    3   71 1   
     8    4    6 1   
     9    4    9 1   
    10    4   22 1   
    11    5   24 1   
    12    5   26 1   
    13    5   49 1   
    14    5   78 1   
    15    6   50 1   
    16    7    8 1   
    17    7   11 1   
    18    8   72 1   
    19    9   10 1   
    20    9   13 1   
    21   10   51 1   
    22   11   15 1   
    23   11   52 1   
    24   12   23 1   
    25   13   16 1   
    26   13   75 1   
    27   14   24 1   
    28   16   20 1   
    29   16   76 1   
    30   17   28 1   
    31   17   59 1   
    32   18   21 1   
    33   18   53 1   
    34   18   54 1   
    35   19   28 1   
    36   20   22 1   
    37   20   80 1   
    38   21   23 1   
    39   22   24 1   
    40   25   27 1   
    41   25   30 1   
    42   25   55 1   
    43   26   28 1   
    44   26   29 1   
    45   27   73 1   
    46   27   74 1   
    47   29   56 1   
    48   29   58 1   
    49   30   31 1   
    50   30   60 1   
    51   31   32 1   
    52   32   33 1   
    53   32   61 1   
    54   34   35 1   
    55   34   36 1   
    56   34   63 1   
    57   34   64 1   
    58   35   38 1   
    59   35   62 1   
    60   35   79 1   
    61   36   37 1   
    62   37   65 1   
    63   38   39 1   
    64   38   40 1   
    65   40   41 1   
    66   40   45 1   
    67   41   42 1   
    68   41   46 1   
    69   42   43 1   
    70   42   47 1   
    71   43   44 1   
    72   43   66 1   
    73   45   67 1   
    74   45   68 1   
    75   46   69 1   
    76   47   70 1   
    77   57   74 1   
@<TRIPOS>SUBSTRUCTURE
     1 MCJ         1 TEMP              0 ****  ****    0 ROOT
