@<TRIPOS>MOLECULE
MCK
   63    64     1     0     0
SMALL
bcc


@<TRIPOS>ATOM
      1 C1          5.3790    1.3970    0.6600 ca        1 MCK     -0.183600
      2 C2          5.8880    2.4910    1.3770 ca        1 MCK      0.117100
      3 C3          7.2240    2.9150    1.1610 ca        1 MCK      0.088100
      4 C4          8.0410    2.2380    0.2550 ca        1 MCK     -0.120000
      5 C5          7.5300    1.1370   -0.4350 ca        1 MCK     -0.145000
      6 C6          6.2190    0.7210   -0.2370 ca        1 MCK     -0.102000
      7 C7          3.9700    0.9520    0.8810 c         1 MCK      0.675700
      8 O8          3.4590    1.0280    2.0230 o         1 MCK     -0.640100
      9 N9          3.2990    0.4210   -0.2020 n         1 MCK     -0.514900
     10 O10         5.1920    3.2350    2.2960 oh        1 MCK     -0.529100
     11 O11         7.7690    3.9900    1.8260 oh        1 MCK     -0.503100
     12 C12         1.8900    0.1110   -0.2150 c3        1 MCK      0.007700
     13 C13         1.0050    1.3380   -0.3980 c         1 MCK      0.656100
     14 C14         1.4110   -0.7900    0.9450 c3        1 MCK      0.140400
     15 O15         1.3680   -2.1260    0.4270 os        1 MCK     -0.450900
     16 O16         1.3490    2.4580   -0.7780 o         1 MCK     -0.551000
     17 O17        -0.3130    1.1070   -0.1180 os        1 MCK     -0.445900
     18 C18        -1.2750    1.6550   -1.0350 c3        1 MCK      0.146400
     19 C19        -2.0220    0.4860   -1.7060 c3        1 MCK     -0.034300
     20 N20        -2.8460   -0.2630   -0.7850 n         1 MCK     -0.497900
     21 C21        -1.0120   -0.4550   -2.4380 c         1 MCK      0.917600
     22 O22        -1.3970   -1.6050   -2.7870 o         1 MCK     -0.843800
     23 O23         0.1620   -0.0270   -2.6300 o         1 MCK     -0.843800
     24 C24         0.1500   -2.6630    0.1090 c         1 MCK      0.618100
     25 O25        -0.8550   -2.2390    0.6850 o         1 MCK     -0.571000
     26 C26         0.2290   -3.7990   -0.9100 c3        1 MCK      0.105500
     27 N27        -1.0600   -4.2440   -1.3810 n3        1 MCK     -0.912800
     28 C28         1.1590   -3.3400   -2.0600 c3        1 MCK      0.115400
     29 C29        -3.9760    0.2400   -0.2170 c         1 MCK      0.667700
     30 O30        -4.4120    1.3870   -0.5100 o         1 MCK     -0.689100
     31 C31        -4.7210   -0.6170    0.7560 ca        1 MCK     -0.171600
     32 C32        -6.1170   -0.5080    0.8610 ca        1 MCK      0.111100
     33 C33        -6.8200   -1.3170    1.7880 ca        1 MCK      0.076100
     34 C34        -6.1320   -2.2130    2.6080 ca        1 MCK     -0.125000
     35 C35        -4.7440   -2.2990    2.5070 ca        1 MCK     -0.150000
     36 C36        -4.0450   -1.5130    1.5950 ca        1 MCK     -0.099000
     37 O37        -6.9100    0.3270    0.1120 oh        1 MCK     -0.542100
     38 O38        -8.1910   -1.2600    1.9190 oh        1 MCK     -0.509100
     39 O45         1.4540   -4.4120   -2.9290 oh        1 MCK     -0.608800
     40 H4          9.0750    2.5780    0.1000 ha        1 MCK      0.147000
     41 H5          8.1750    0.5960   -1.1430 ha        1 MCK      0.136000
     42 H6          5.8470   -0.1600   -0.7830 ha        1 MCK      0.146000
     43 HN9         3.6790    0.6160   -1.1030 hn        1 MCK      0.322500
     44 HO10        4.3300    2.8170    2.4680 ho        1 MCK      0.472000
     45 HO11        7.0880    4.3540    2.4140 ho        1 MCK      0.439000
     46 H12         1.6970   -0.4740   -1.1880 h1        1 MCK      0.160700
     47 H14         2.1410   -0.8330    1.7940 h1        1 MCK      0.095700
     48 H14A        0.4030   -0.4640    1.3130 h1        1 MCK      0.095700
     49 H18        -1.9620    2.2840   -0.4110 h1        1 MCK      0.068700
     50 H18A       -0.7710    2.2700   -1.8240 h1        1 MCK      0.068700
     51 H19        -2.6930    0.9460   -2.4910 h1        1 MCK      0.069700
     52 HN20       -2.5180   -1.1740   -0.5450 hn        1 MCK      0.342500
     53 H26         0.7190   -4.6680   -0.3770 h1        1 MCK      0.076700
     54 HN27       -1.7170   -4.2720   -0.6240 hn        1 MCK      0.378800
     55 HN2A       -1.4100   -3.6250   -2.0950 hn        1 MCK      0.378800
     56 H28         0.6920   -2.4740   -2.6140 h1        1 MCK      0.089700
     57 H28A        2.1500   -3.0360   -1.6270 h1        1 MCK      0.089700
     58 H34        -6.6920   -2.8320    3.3220 ha        1 MCK      0.141000
     59 H35        -4.1960   -2.9980    3.1550 ha        1 MCK      0.133000
     60 H36        -2.9450   -1.6010    1.5460 ha        1 MCK      0.172000
     61 HO37       -6.3480    0.9650   -0.3630 ho        1 MCK      0.474000
     62 HO38       -8.5170   -0.5740    1.3170 ho        1 MCK      0.434000
     63 HO45        0.6490   -4.6060   -3.4230 ho        1 MCK      0.410000
@<TRIPOS>BOND
     1    1    2 ar  
     2    1    6 ar  
     3    1    7 1   
     4    2    3 ar  
     5    2   10 1   
     6    3    4 ar  
     7    3   11 1   
     8    4    5 ar  
     9    4   40 1   
    10    5    6 ar  
    11    5   41 1   
    12    6   42 1   
    13    7    8 2   
    14    7    9 1   
    15    9   12 1   
    16    9   43 1   
    17   10   44 1   
    18   11   45 1   
    19   12   13 1   
    20   12   14 1   
    21   12   46 1   
    22   13   16 2   
    23   13   17 1   
    24   14   15 1   
    25   14   47 1   
    26   14   48 1   
    27   15   24 1   
    28   17   18 1   
    29   18   19 1   
    30   18   49 1   
    31   18   50 1   
    32   19   20 1   
    33   19   21 1   
    34   19   51 1   
    35   20   29 1   
    36   20   52 1   
    37   21   22 1   
    38   21   23 1   
    39   24   25 2   
    40   24   26 1   
    41   26   27 1   
    42   26   28 1   
    43   26   53 1   
    44   27   54 1   
    45   27   55 1   
    46   28   39 1   
    47   28   56 1   
    48   28   57 1   
    49   29   30 2   
    50   29   31 1   
    51   31   32 ar  
    52   31   36 ar  
    53   32   33 ar  
    54   32   37 1   
    55   33   34 ar  
    56   33   38 1   
    57   34   35 ar  
    58   34   58 1   
    59   35   36 ar  
    60   35   59 1   
    61   36   60 1   
    62   37   61 1   
    63   38   62 1   
    64   39   63 1   
@<TRIPOS>SUBSTRUCTURE
     1 MCK         1 TEMP              0 ****  ****    0 ROOT
