@<TRIPOS>MOLECULE
MCK
   66    67     1     0     0
SMALL
bcc


@<TRIPOS>ATOM
      1 C1          0.5640   -0.5930    0.3230 ca        1 MCK     -0.239600
      2 C2          1.7560   -1.3040    0.1030 ca        1 MCK      0.204100
      3 C3          2.3740   -1.9730    1.1970 ca        1 MCK      0.066100
      4 C4          1.8070   -1.9220    2.4650 ca        1 MCK     -0.108000
      5 C5          0.6140   -1.2080    2.6650 ca        1 MCK     -0.103000
      6 C6         -0.0040   -0.5550    1.6130 ca        1 MCK     -0.110000
      7 C7         -0.0220    0.1530   -0.7880 c         1 MCK      0.603700
      8 O8          0.4550    0.9920   -1.5280 o         1 MCK     -0.391100
      9 N9         -1.4890   -0.2290   -1.0480 ny        1 MCK     -0.687800
     10 O10         2.2460   -1.3480   -1.1670 oh        1 MCK     -0.485100
     11 O11         3.5270   -2.6450    0.8770 oh        1 MCK     -0.497100
     12 C12        -2.2050    0.5450   -2.1110 c3        1 MCK      0.057500
     13 C13        -1.8330    0.0040   -3.4850 c         1 MCK      0.658100
     14 C14        -2.0560    2.0750   -1.9760 c3        1 MCK      0.144400
     15 O15        -3.3920    2.5920   -2.0270 os        1 MCK     -0.448900
     16 O16        -1.6050   -1.1800   -3.7300 o         1 MCK     -0.512000
     17 O17        -1.8010    0.9430   -4.4670 os        1 MCK     -0.386900
     18 C18        -1.8550    0.4750   -5.8210 c3        1 MCK      0.139400
     19 C19        -3.2820   -0.0160   -6.1450 c3        1 MCK     -0.025500
     20 N20        -3.5980    0.0820   -7.6000 ny        1 MCK     -0.647800
     21 C21        -4.3190    0.7690   -5.3010 c         1 MCK      0.927600
     22 O22        -5.1320    1.5460   -5.8760 o         1 MCK     -0.830300
     23 O23        -4.2930    0.6050   -4.0470 o         1 MCK     -0.830300
     24 C24        -3.6570    3.6090   -2.9090 c         1 MCK      0.630100
     25 O25        -2.7450    4.1720   -3.4960 o         1 MCK     -0.442000
     26 C26        -5.1400    3.9370   -2.9950 c3        1 MCK      0.044500
     27 N27        -5.9300    2.7820   -3.5040 nz        1 MCK     -0.854600
     28 C28        -5.6380    4.4130   -1.6050 c3        1 MCK      0.118400
     29 C29        -3.1010   -1.0750   -8.4360 c         1 MCK      0.583700
     30 O30        -2.3040   -1.8270   -7.8860 o         1 MCK     -0.447100
     31 C31        -3.6270   -1.1940   -9.7940 ca        1 MCK     -0.213600
     32 C32        -4.2240   -0.1510  -10.5270 ca        1 MCK      0.160100
     33 C33        -4.6700   -0.3920  -11.8490 ca        1 MCK      0.057100
     34 C34        -4.5250   -1.6510  -12.4320 ca        1 MCK     -0.095000
     35 C35        -3.9270   -2.6810  -11.7000 ca        1 MCK     -0.117000
     36 C36        -3.4810   -2.4600  -10.4050 ca        1 MCK     -0.054000
     37 O37        -4.3520    1.0850   -9.9470 oh        1 MCK     -0.546100
     38 O38        -5.2410    0.6920  -12.4730 oh        1 MCK     -0.508100
     39 O45        -7.0360    4.5630   -1.6550 oh        1 MCK     -0.599800
     40 H4          2.2900   -2.4350    3.3140 ha        1 MCK      0.176000
     41 H5          0.1750   -1.1680    3.6760 ha        1 MCK      0.174000
     42 H6         -0.9200    0.0250    1.7990 ha        1 MCK      0.134000
     43 HN9        -2.0050   -0.1370   -0.1660 hn        1 MCK      0.473800
     44 HO10        3.1080   -1.8080   -1.1620 ho        1 MCK      0.482000
     45 HO11        3.9210   -2.9980    1.6920 ho        1 MCK      0.462000
     46 H12        -3.3210    0.3000   -2.0230 hx        1 MCK      0.170700
     47 H14        -1.4090    2.4940   -2.7960 h1        1 MCK      0.111200
     48 H14A       -1.6460    2.3820   -0.9770 h1        1 MCK      0.111200
     49 H18        -1.5650    1.3940   -6.4010 h1        1 MCK      0.103700
     50 H18A       -1.1160   -0.3560   -5.9800 h1        1 MCK      0.103700
     51 H19        -3.3550   -1.1060   -5.8420 hx        1 MCK      0.140700
     52 HN20       -4.6250    0.1650   -7.7020 hn        1 MCK      0.479800
     53 H26        -5.2560    4.7860   -3.7400 hx        1 MCK      0.139700
     54 HN27       -5.5460    1.8860   -3.1460 hn        1 MCK      0.487800
     55 HN2A       -6.9060    2.8910   -3.2070 hn        1 MCK      0.487800
     56 H28        -5.1010    5.3590   -1.3390 h1        1 MCK      0.092700
     57 H28A       -5.4300    3.6230   -0.8320 h1        1 MCK      0.092700
     58 H34        -4.8770   -1.8310  -13.4620 ha        1 MCK      0.174000
     59 H35        -3.8070   -3.6770  -12.1590 ha        1 MCK      0.177000
     60 H36        -2.9990   -3.2750   -9.8370 ha        1 MCK      0.174000
     61 HO37       -4.7360    1.7050  -10.5950 ho        1 MCK      0.489000
     62 HO38       -5.4650    0.4440  -13.3840 ho        1 MCK      0.461000
     63 HO45       -7.2480    5.5050   -1.7160 ho        1 MCK      0.446000
     64 H92        -1.4910   -1.2250   -1.3260 hn        1 MCK      0.473800
     65 H202       -3.2090    0.9540   -7.9880 hn        1 MCK      0.479800
     66 H273       -5.8760    2.7270   -4.5440 hn        1 MCK      0.487800
@<TRIPOS>BOND
     1    1    2 ar  
     2    1    6 ar  
     3    1    7 1   
     4    2    3 ar  
     5    2   10 1   
     6    3    4 ar  
     7    3   11 1   
     8    4    5 ar  
     9    4   40 1   
    10    5    6 ar  
    11    5   41 1   
    12    6   42 1   
    13    7    8 2   
    14    7    9 1   
    15    9   12 1   
    16    9   43 1   
    17    9   64 1   
    18   10   44 1   
    19   11   45 1   
    20   12   13 1   
    21   12   14 1   
    22   12   46 1   
    23   13   16 2   
    24   13   17 1   
    25   14   15 1   
    26   14   47 1   
    27   14   48 1   
    28   15   24 1   
    29   17   18 1   
    30   18   19 1   
    31   18   49 1   
    32   18   50 1   
    33   19   20 1   
    34   19   21 1   
    35   19   51 1   
    36   20   29 1   
    37   20   52 1   
    38   20   65 1   
    39   21   22 1   
    40   21   23 1   
    41   24   25 2   
    42   24   26 1   
    43   26   27 1   
    44   26   28 1   
    45   26   53 1   
    46   27   54 1   
    47   27   55 1   
    48   27   66 1   
    49   28   39 1   
    50   28   56 1   
    51   28   57 1   
    52   29   30 2   
    53   29   31 1   
    54   31   32 ar  
    55   31   36 ar  
    56   32   33 ar  
    57   32   37 1   
    58   33   34 ar  
    59   33   38 1   
    60   34   35 ar  
    61   34   58 1   
    62   35   36 ar  
    63   35   59 1   
    64   36   60 1   
    65   37   61 1   
    66   38   62 1   
    67   39   63 1   
@<TRIPOS>SUBSTRUCTURE
     1 MCK         1 TEMP              0 ****  ****    0 ROOT
