@<TRIPOS>MOLECULE
MCK
   66    67     1     0     0
SMALL
bcc


@<TRIPOS>ATOM
      1 C1         -0.9780   -0.9100    0.9320 ca        1 MCK     -0.214600
      2 C2          0.3720   -0.5230    1.0150 ca        1 MCK      0.147100
      3 C3          1.1010   -0.7820    2.2000 ca        1 MCK      0.068100
      4 C4          0.4890   -1.4180    3.2830 ca        1 MCK     -0.096000
      5 C5         -0.8550   -1.7890    3.1930 ca        1 MCK     -0.107000
      6 C6         -1.5860   -1.5340    2.0400 ca        1 MCK     -0.058000
      7 C7         -1.8260   -0.6480   -0.2280 c         1 MCK      0.600700
      8 O8         -3.0010   -0.3130   -0.2500 o         1 MCK     -0.420100
      9 N9         -1.1890   -0.8950   -1.5940 n4        1 MCK     -0.677800
     10 O10         0.9420    0.1200   -0.0580 oh        1 MCK     -0.555100
     11 O11         2.4090   -0.3660    2.1770 oh        1 MCK     -0.506100
     12 C12        -1.6140    0.0970   -2.6320 c3        1 MCK      0.047500
     13 C13        -1.5410   -0.5430   -4.0120 c         1 MCK      0.647100
     14 C14        -0.8570    1.4380   -2.5330 c3        1 MCK      0.134400
     15 O15        -1.8790    2.4400   -2.4390 os        1 MCK     -0.440900
     16 O16        -1.6940   -1.7410   -4.2450 o         1 MCK     -0.509000
     17 O17        -1.3040    0.3420   -5.0180 os        1 MCK     -0.393900
     18 C18        -1.6490   -0.0630   -6.3480 c3        1 MCK      0.139400
     19 C19        -3.1760    0.0560   -6.5430 c3        1 MCK     -0.023500
     20 N20        -3.5540    0.3100   -7.9650 n4        1 MCK     -0.662800
     21 C21        -3.7390    1.1720   -5.6230 c         1 MCK      0.925600
     22 O22        -4.1900    2.2330   -6.1400 o         1 MCK     -0.828300
     23 O23        -3.7000    0.9730   -4.3760 o         1 MCK     -0.828300
     24 C24        -1.8290    3.4970   -3.3120 c         1 MCK      0.629100
     25 O25        -0.8330    3.6870   -3.9960 o         1 MCK     -0.447000
     26 C26        -3.0840    4.3540   -3.2620 c3        1 MCK      0.044500
     27 N27        -4.2900    3.5860   -3.6780 n4        1 MCK     -0.853600
     28 C28        -3.2410    4.9480   -1.8370 c3        1 MCK      0.117400
     29 C29        -3.4810   -0.9240   -8.8570 c         1 MCK      0.594700
     30 O30        -2.6210   -1.7380   -8.5630 o         1 MCK     -0.411100
     31 C31        -4.4640   -0.9440   -9.9360 ca        1 MCK     -0.230600
     32 C32        -5.0920   -2.1630  -10.2510 ca        1 MCK      0.207100
     33 C33        -6.0020   -2.2120  -11.3440 ca        1 MCK      0.058100
     34 C34        -6.2680   -1.0730  -12.0940 ca        1 MCK     -0.108000
     35 C35        -5.6360    0.1360  -11.7630 ca        1 MCK     -0.108000
     36 C36        -4.7520    0.2060  -10.7010 ca        1 MCK     -0.106000
     37 O37        -4.8260   -3.2420   -9.4640 oh        1 MCK     -0.480100
     38 O38        -6.5680   -3.4450  -11.5610 oh        1 MCK     -0.499100
     39 O45        -4.4730    5.6220   -1.7660 oh        1 MCK     -0.598800
     40 H4          1.0630   -1.6210    4.2030 ha        1 MCK      0.178000
     41 H5         -1.3410   -2.2860    4.0510 ha        1 MCK      0.181000
     42 H6         -2.6510   -1.8160    1.9850 ha        1 MCK      0.172000
     43 HN9        -0.1640   -0.8860   -1.5060 hn        1 MCK      0.480300
     44 HO10        1.8590    0.3600    0.1680 ho        1 MCK      0.490000
     45 HO11        2.8160   -0.5630    3.0370 ho        1 MCK      0.465000
     46 H12        -2.7330    0.3110   -2.4840 hx        1 MCK      0.195700
     47 H14        -0.2000    1.6040   -3.4290 h1        1 MCK      0.112200
     48 H14A       -0.2510    1.5240   -1.5880 h1        1 MCK      0.112200
     49 H18        -1.3120   -1.1160   -6.5460 h1        1 MCK      0.106200
     50 H18A       -1.0720    0.6690   -6.9780 h1        1 MCK      0.106200
     51 H19        -3.6530   -0.9220   -6.2300 hx        1 MCK      0.134700
     52 HN20       -4.5160    0.6860   -7.9690 hn        1 MCK      0.467300
     53 H26        -2.9460    5.2020   -4.0040 hx        1 MCK      0.139700
     54 HN27       -4.3480    3.5230   -4.7170 hn        1 MCK      0.487800
     55 HN2A       -5.1250    4.0510   -3.3040 hn        1 MCK      0.487800
     56 H28        -3.2870    4.1190   -1.0780 h1        1 MCK      0.093700
     57 H28A       -2.3620    5.6110   -1.6290 h1        1 MCK      0.093700
     58 H34        -6.9680   -1.1150  -12.9440 ha        1 MCK      0.173000
     59 H35        -5.8480    1.0350  -12.3660 ha        1 MCK      0.171000
     60 H36        -4.2510    1.1600  -10.4800 ha        1 MCK      0.136000
     61 HO37       -5.2630   -4.0290   -9.8420 ho        1 MCK      0.478000
     62 HO38       -7.0960   -3.4060  -12.3760 ho        1 MCK      0.460000
     63 HO45       -4.3140    6.5750   -1.8230 ho        1 MCK      0.445000
     64 H92        -1.4790   -1.8360   -1.9110 hn        1 MCK      0.480300
     65 H202       -2.9450    1.0420   -8.3460 hn        1 MCK      0.467300
     66 H273       -4.2440    2.6090   -3.3290 hn        1 MCK      0.487800
@<TRIPOS>BOND
     1    1    2 ar  
     2    1    6 ar  
     3    1    7 1   
     4    2    3 ar  
     5    2   10 1   
     6    3    4 ar  
     7    3   11 1   
     8    4    5 ar  
     9    4   40 1   
    10    5    6 ar  
    11    5   41 1   
    12    6   42 1   
    13    7    8 2   
    14    7    9 1   
    15    9   12 1   
    16    9   43 1   
    17    9   64 1   
    18   10   44 1   
    19   11   45 1   
    20   12   13 1   
    21   12   14 1   
    22   12   46 1   
    23   13   16 2   
    24   13   17 1   
    25   14   15 1   
    26   14   47 1   
    27   14   48 1   
    28   15   24 1   
    29   17   18 1   
    30   18   19 1   
    31   18   49 1   
    32   18   50 1   
    33   19   20 1   
    34   19   21 1   
    35   19   51 1   
    36   20   29 1   
    37   20   52 1   
    38   20   65 1   
    39   21   22 1   
    40   21   23 1   
    41   24   25 2   
    42   24   26 1   
    43   26   27 1   
    44   26   28 1   
    45   26   53 1   
    46   27   54 1   
    47   27   55 1   
    48   27   66 1   
    49   28   39 1   
    50   28   56 1   
    51   28   57 1   
    52   29   30 2   
    53   29   31 1   
    54   31   32 ar  
    55   31   36 ar  
    56   32   33 ar  
    57   32   37 1   
    58   33   34 ar  
    59   33   38 1   
    60   34   35 ar  
    61   34   58 1   
    62   35   36 ar  
    63   35   59 1   
    64   36   60 1   
    65   37   61 1   
    66   38   62 1   
    67   39   63 1   
@<TRIPOS>SUBSTRUCTURE
     1 MCK         1 TEMP              0 ****  ****    0 ROOT
