@<TRIPOS>MOLECULE
MCK
   66    67     1     0     0
SMALL
bcc


@<TRIPOS>ATOM
      1 C1          0.5870   -0.5160    0.3000 ca        1 MCK     -0.239600
      2 C2          1.7580   -1.2620    0.0800 ca        1 MCK      0.204100
      3 C3          2.3830   -1.9110    1.1820 ca        1 MCK      0.066100
      4 C4          1.8440   -1.8050    2.4590 ca        1 MCK     -0.108000
      5 C5          0.6720   -1.0580    2.6590 ca        1 MCK     -0.103000
      6 C6          0.0480   -0.4240    1.5990 ca        1 MCK     -0.110000
      7 C7         -0.0040    0.2080   -0.8220 c         1 MCK      0.603700
      8 O8          0.4760    1.0120   -1.5980 o         1 MCK     -0.391100
      9 N9         -1.4840   -0.1490   -1.0400 n4        1 MCK     -0.687800
     10 O10         2.2200   -1.3590   -1.1970 oh        1 MCK     -0.485100
     11 O11         3.5130   -2.6200    0.8610 oh        1 MCK     -0.497100
     12 C12        -2.2040    0.6100   -2.1120 c3        1 MCK      0.057500
     13 C13        -1.8730    0.0180   -3.4760 c         1 MCK      0.658100
     14 C14        -2.0180    2.1390   -2.0280 c3        1 MCK      0.144400
     15 O15        -3.3440    2.6850   -2.0670 os        1 MCK     -0.448900
     16 O16        -1.6770   -1.1770   -3.6900 o         1 MCK     -0.512000
     17 O17        -1.8410    0.9270   -4.4870 os        1 MCK     -0.386900
     18 C18        -1.9330    0.4200   -5.8240 c3        1 MCK      0.139400
     19 C19        -3.3770   -0.0470   -6.1050 c3        1 MCK     -0.025500
     20 N20        -3.7210    0.0150   -7.5560 n4        1 MCK     -0.647800
     21 C21        -4.3790    0.7870   -5.2650 c         1 MCK      0.927600
     22 O22        -5.1860    1.5640   -5.8470 o         1 MCK     -0.830300
     23 O23        -4.3300    0.6590   -4.0070 o         1 MCK     -0.830300
     24 C24        -3.6040    3.6800   -2.9740 c         1 MCK      0.630100
     25 O25        -2.6920    4.2040   -3.5970 o         1 MCK     -0.442000
     26 C26        -5.0810    4.0390   -3.0400 c3        1 MCK      0.044500
     27 N27        -5.9070    2.8880   -3.4980 n4        1 MCK     -0.854600
     28 C28        -5.5400    4.5670   -1.6550 c3        1 MCK      0.118400
     29 C29        -3.2720   -1.1790   -8.3660 c         1 MCK      0.583700
     30 O30        -2.4840   -1.9360   -7.8090 o         1 MCK     -0.446100
     31 C31        -3.8290   -1.3240   -9.7090 ca        1 MCK     -0.213600
     32 C32        -4.4120   -0.2870  -10.4620 ca        1 MCK      0.160100
     33 C33        -4.8910   -0.5560  -11.7670 ca        1 MCK      0.057100
     34 C34        -4.7930   -1.8350  -12.3140 ca        1 MCK     -0.095000
     35 C35        -4.2090   -2.8590  -11.5620 ca        1 MCK     -0.117000
     36 C36        -3.7300   -2.6120  -10.2840 ca        1 MCK     -0.054000
     37 O37        -4.4940    0.9690   -9.9180 oh        1 MCK     -0.546100
     38 O38        -5.4450    0.5250  -12.4130 oh        1 MCK     -0.508100
     39 O45        -6.9340    4.7480   -1.6810 oh        1 MCK     -0.599800
     40 H4          2.3320   -2.3030    3.3140 ha        1 MCK      0.176000
     41 H5          0.2560   -0.9740    3.6770 ha        1 MCK      0.174000
     42 H6         -0.8500    0.1840    1.7850 ha        1 MCK      0.134000
     43 HN9        -1.9800   -0.0190   -0.1520 hn        1 MCK      0.473800
     44 HO10        3.0710   -1.8390   -1.1950 ho        1 MCK      0.482000
     45 HO11        3.9150   -2.9560    1.6800 ho        1 MCK      0.462000
     46 H12        -3.3240    0.3930   -1.9940 hx        1 MCK      0.170700
     47 H14        -1.5810    2.4660   -1.0460 h1        1 MCK      0.111200
     48 H14A       -1.3800    2.5180   -2.8720 h1        1 MCK      0.111200
     49 H18        -1.2170   -0.4330   -5.9730 h1        1 MCK      0.103700
     50 H18A       -1.6340    1.3140   -6.4380 h1        1 MCK      0.103700
     51 H19        -3.4690   -1.1250   -5.7680 hx        1 MCK      0.140700
     52 HN20       -3.3180    0.8640   -7.9780 hn        1 MCK      0.479800
     53 H26        -5.1940    4.8680   -3.8070 hx        1 MCK      0.139700
     54 HN27       -5.8760    2.8010   -4.5360 hn        1 MCK      0.487800
     55 HN2A       -6.8740    3.0280   -3.1840 hn        1 MCK      0.487800
     56 H28        -5.3330    3.7960   -0.8620 h1        1 MCK      0.092700
     57 H28A       -4.9760    5.5090   -1.4290 h1        1 MCK      0.092700
     58 H34        -5.1700   -2.0360  -13.3310 ha        1 MCK      0.174000
     59 H35        -4.1260   -3.8710  -11.9930 ha        1 MCK      0.177000
     60 H36        -3.2600   -3.4230   -9.7010 ha        1 MCK      0.174000
     61 HO37       -4.8730    1.5790  -10.5770 ho        1 MCK      0.489000
     62 HO38       -5.6940    0.2560  -13.3120 ho        1 MCK      0.461000
     63 HO45       -7.1270    5.6920   -1.7660 ho        1 MCK      0.446000
     64 H92        -1.5140   -1.1530   -1.2880 hn        1 MCK      0.473800
     65 H202       -4.7480    0.1220   -7.6400 hn        1 MCK      0.479800
     66 H273       -5.5360    1.9940   -3.1210 hn        1 MCK      0.487800
@<TRIPOS>BOND
     1    1    2 ar  
     2    1    6 ar  
     3    1    7 1   
     4    2    3 ar  
     5    2   10 1   
     6    3    4 ar  
     7    3   11 1   
     8    4    5 ar  
     9    4   40 1   
    10    5    6 ar  
    11    5   41 1   
    12    6   42 1   
    13    7    8 2   
    14    7    9 1   
    15    9   12 1   
    16    9   43 1   
    17    9   64 1   
    18   10   44 1   
    19   11   45 1   
    20   12   13 1   
    21   12   14 1   
    22   12   46 1   
    23   13   16 2   
    24   13   17 1   
    25   14   15 1   
    26   14   47 1   
    27   14   48 1   
    28   15   24 1   
    29   17   18 1   
    30   18   19 1   
    31   18   49 1   
    32   18   50 1   
    33   19   20 1   
    34   19   21 1   
    35   19   51 1   
    36   20   29 1   
    37   20   52 1   
    38   20   65 1   
    39   21   22 1   
    40   21   23 1   
    41   24   25 2   
    42   24   26 1   
    43   26   27 1   
    44   26   28 1   
    45   26   53 1   
    46   27   54 1   
    47   27   55 1   
    48   27   66 1   
    49   28   39 1   
    50   28   56 1   
    51   28   57 1   
    52   29   30 2   
    53   29   31 1   
    54   31   32 ar  
    55   31   36 ar  
    56   32   33 ar  
    57   32   37 1   
    58   33   34 ar  
    59   33   38 1   
    60   34   35 ar  
    61   34   58 1   
    62   35   36 ar  
    63   35   59 1   
    64   36   60 1   
    65   37   61 1   
    66   38   62 1   
    67   39   63 1   
@<TRIPOS>SUBSTRUCTURE
     1 MCK         1 TEMP              0 ****  ****    0 ROOT
