@<TRIPOS>MOLECULE
MCL
   31    30     1     0     0
SMALL
bcc


@<TRIPOS>ATOM
      1 N           0.5260   -2.2210   -2.5400 n3        1 MCL     -0.891800
      2 CA          0.1920   -0.8070   -2.6640 c3        1 MCL      0.026500
      3 CB          1.0410    0.1090   -1.7790 c3        1 MCL     -0.065400
      4 CG          0.8940   -0.1790   -0.2990 c3        1 MCL     -0.075400
      5 CD          1.7430    0.7640    0.5300 c3        1 MCL     -0.080400
      6 CE          1.7450    0.3620    2.0050 c3        1 MCL      0.151800
      7 NZ          2.7100    1.1070    2.7940 n3        1 MCL     -0.788200
      8 CX1         2.8560    0.6020    4.1570 c3        1 MCL      0.046500
      9 C1          4.1520    1.0810    4.8030 c3        1 MCL     -0.069100
     10 CX2         1.6500    0.9860    5.0800 c         1 MCL      0.928600
     11 O1          0.5370    0.4390    4.8440 o         1 MCL     -0.848800
     12 O2          1.8650    1.7640    6.0510 o         1 MCL     -0.848800
     13 C           0.2540   -0.2660   -4.1300 c         1 MCL      0.885600
     14 O           0.6800   -1.0380   -5.0410 o         1 MCL     -0.855800
     15 OXT        -0.1470    0.9120   -4.3450 o         1 MCL     -0.855800
     16 H           0.2760   -2.6680   -3.4080 hn        1 MCL      0.326300
     17 H2          1.5230   -2.3120   -2.4520 hn        1 MCL      0.326300
     18 HA         -0.8840   -0.7110   -2.3340 h1        1 MCL      0.043700
     19 HB2         2.1200    0.0210   -2.0730 hc        1 MCL      0.039700
     20 HB3         0.7220    1.1640   -1.9960 hc        1 MCL      0.039700
     21 HG2         1.1970   -1.2380   -0.0860 hc        1 MCL      0.036700
     22 HG3        -0.1810   -0.0800    0.0000 hc        1 MCL      0.036700
     23 HD2         1.3550    1.8110    0.4260 hc        1 MCL      0.026700
     24 HD3         2.7910    0.7610    0.1270 hc        1 MCL      0.026700
     25 HE2         0.7330    0.5490    2.4670 h1        1 MCL      0.043200
     26 HE3         1.9280   -0.7550    2.0630 h1        1 MCL      0.043200
     27 HZ          3.6070    1.0600    2.3390 hn        1 MCL      0.307800
     28 HX1         2.8820   -0.5340    4.1540 h1        1 MCL     -0.006300
     29 H11         4.2100    0.6590    5.8340 hc        1 MCL      0.016033
     30 H12         5.0500    0.7540    4.2240 hc        1 MCL      0.016033
     31 H13         4.1540    2.1940    4.8870 hc        1 MCL      0.016033
@<TRIPOS>BOND
     1    1    2 1   
     2    1   16 1   
     3    1   17 1   
     4    2    3 1   
     5    2   13 1   
     6    2   18 1   
     7    3    4 1   
     8    3   19 1   
     9    3   20 1   
    10    4    5 1   
    11    4   21 1   
    12    4   22 1   
    13    5    6 1   
    14    5   23 1   
    15    5   24 1   
    16    6    7 1   
    17    6   25 1   
    18    6   26 1   
    19    7    8 1   
    20    7   27 1   
    21    8    9 1   
    22    8   10 1   
    23    8   28 1   
    24    9   29 1   
    25    9   30 1   
    26    9   31 1   
    27   10   11 1   
    28   10   12 1   
    29   13   14 1   
    30   13   15 1   
@<TRIPOS>SUBSTRUCTURE
     1 MCL         1 TEMP              0 ****  ****    0 ROOT
