@<TRIPOS>MOLECULE
MCM
   22    20     1     0     0
SMALL
bcc


@<TRIPOS>ATOM
      1 N          -3.8310    0.0100   -0.1200 n3        1 MCM     -0.346000
      2 CA         -2.4120    0.0100   -0.1200 c2        1 MCM      0.128000
      3 C2         -1.7180    0.0100    1.0830 c1        1 MCM     -0.237000
      4 C3         -0.3100    0.0100    1.0830 c1        1 MCM      0.154000
      5 C4          1.7580    0.0100    2.2890 c1        1 MCM      0.341000
      6 C5          2.4560    0.0100    1.0850 c1        1 MCM     -0.262000
      7 C6          1.7700    0.0100   -0.1060 c1        1 MCM      0.056000
      8 C7          0.3770    0.0100   -0.1070 c1        1 MCM     -0.191000
      9 C8         -0.3280    0.0100   -1.3260 c2        1 MCM     -0.033000
     10 C9         -1.7170    0.0100   -1.3260 c2        1 MCM     -0.225000
     11 C10         2.5270   -0.0390   -1.4150 c3        1 MCM     -0.196000
     12 O1          0.3860    0.0100    2.2880 os        1 MCM     -0.194000
     13 O2          2.3650    0.0110    3.3410 o         1 MCM     -0.298000
     14 HN1        -4.2870   -0.7800   -0.1160 hn        1 MCM      0.206000
     15 HN2        -4.2870    0.8000   -0.1160 hn        1 MCM      0.206000
     16 H2         -2.2060    0.0100    1.9280 ha        1 MCM      0.159000
     17 H5          3.4320    0.0100    1.0860 ha        1 MCM      0.166000
     18 H8          0.1600    0.0100   -2.1720 ha        1 MCM      0.137000
     19 H9         -2.2050    0.0110   -2.1710 ha        1 MCM      0.138000
     20 H101        2.3090    0.7500   -1.9460 hc        1 MCM      0.096000
     21 H102        3.4860   -0.0550   -1.2350 hc        1 MCM      0.096000
     22 H103        2.2740   -0.8430   -1.9070 hc        1 MCM      0.096000
@<TRIPOS>BOND
     1    1    2 1   
     2    1   14 1   
     3    1   15 1   
     4    2    3 1   
     5    2   10 1   
     6    3   16 1   
     7    4    8 1   
     8    4   12 1   
     9    5   12 1   
    10    5   13 1   
    11    6    7 1   
    12    6   17 1   
    13    7   11 1   
    14    8    9 1   
    15    9   10 1   
    16    9   18 1   
    17   10   19 1   
    18   11   20 1   
    19   11   21 1   
    20   11   22 1   
@<TRIPOS>SUBSTRUCTURE
     1 MCM         1 TEMP              0 ****  ****    0 ROOT
