@<TRIPOS>MOLECULE
MCM
   22    23     1     0     0
SMALL
bcc


@<TRIPOS>ATOM
      1 N          -0.0240   -0.1280    0.0270 nv        1 MCM     -0.837200
      2 CA          1.3590   -0.0380    0.0070 ca        1 MCM      0.209600
      3 C2          2.0930    0.0310    1.2090 ca        1 MCM     -0.237000
      4 C3          3.4930    0.0340    1.1590 ca        1 MCM      0.199100
      5 C4          5.5210    0.1120    2.4140 c         1 MCM      0.725800
      6 C5          6.2710    0.0510    1.1730 cc        1 MCM     -0.281200
      7 C6          5.6450   -0.0130   -0.0270 cd        1 MCM      0.063600
      8 C7          4.1990   -0.0210   -0.0610 ca        1 MCM     -0.202800
      9 C8          3.4490   -0.0800   -1.2480 ca        1 MCM     -0.033000
     10 C9          2.0690   -0.0850   -1.2280 ca        1 MCM     -0.225000
     11 C10         6.4040   -0.0770   -1.2970 c3        1 MCM     -0.073900
     12 O1          4.1240    0.1010    2.3820 os        1 MCM     -0.329200
     13 O2          5.9290    0.1770    3.5730 o         1 MCM     -0.573500
     14 HN1        -0.4950    0.1120   -0.8130 hn        1 MCM      0.410800
     15 HN2        -0.4740    0.1540    0.8660 hn        1 MCM      0.410800
     16 H2          1.5950    0.0730    2.1890 ha        1 MCM      0.159000
     17 H5          7.3660    0.0590    1.2780 ha        1 MCM      0.166000
     18 H8          3.9770   -0.1230   -2.2150 ha        1 MCM      0.137000
     19 H9          1.5120   -0.1350   -2.1750 ha        1 MCM      0.138000
     20 H101        7.5060   -0.0650   -1.1100 hc        1 MCM      0.056700
     21 H102        6.1490   -1.0150   -1.8510 hc        1 MCM      0.056700
     22 H103        6.1450    0.7990   -1.9440 hc        1 MCM      0.056700
@<TRIPOS>BOND
     1    1    2 1   
     2    1   14 1   
     3    1   15 1   
     4    2    3 ar  
     5    2   10 ar  
     6    3    4 ar  
     7    3   16 1   
     8    4    8 ar  
     9    4   12 1   
    10    5    6 1   
    11    5   12 1   
    12    5   13 2   
    13    6    7 2   
    14    6   17 1   
    15    7    8 1   
    16    7   11 1   
    17    8    9 ar  
    18    9   10 ar  
    19    9   18 1   
    20   10   19 1   
    21   11   20 1   
    22   11   21 1   
    23   11   22 1   
@<TRIPOS>SUBSTRUCTURE
     1 MCM         1 TEMP              0 ****  ****    0 ROOT
