@<TRIPOS>MOLECULE
MCM
   22    23     1     0     0
SMALL
bcc


@<TRIPOS>ATOM
      1 N          -0.8860   -0.1350   -3.8680 nh        1 MCM     -0.837200
      2 CA         -0.3530   -0.0390   -2.5920 ca        1 MCM      0.209600
      3 C2         -1.1930   -0.0260   -1.4610 ca        1 MCM     -0.237000
      4 C3         -0.6220   -0.0150   -0.1820 ca        1 MCM      0.199100
      5 C4         -1.0260    0.0070    2.1700 c         1 MCM      0.725800
      6 C5          0.4070    0.0100    2.3990 cc        1 MCM     -0.281200
      7 C6          1.2860    0.0040    1.3670 cd        1 MCM      0.063600
      8 C7          0.7760   -0.0070    0.0150 ca        1 MCM     -0.202800
      9 C8          1.5960   -0.0110   -1.1270 ca        1 MCM     -0.033000
     10 C9          1.0590   -0.0210   -2.3980 ca        1 MCM     -0.225000
     11 C10         2.7490    0.0060    1.5940 c3        1 MCM     -0.073900
     12 O1         -1.5200   -0.0070    0.8630 os        1 MCM     -0.329200
     13 O2         -1.9490    0.0160    2.9830 o         1 MCM     -0.573500
     14 HN1        -0.2960    0.1440   -4.6160 hn        1 MCM      0.410800
     15 HN2        -1.8450    0.1030   -3.9670 hn        1 MCM      0.410800
     16 H2         -2.2890   -0.0350   -1.5540 ha        1 MCM      0.159000
     17 H5          0.7210    0.0180    3.4530 ha        1 MCM      0.166000
     18 H8          2.6900   -0.0030   -1.0000 ha        1 MCM      0.137000
     19 H9          1.7290   -0.0270   -3.2710 ha        1 MCM      0.138000
     20 H101        2.9900    0.0130    2.6860 hc        1 MCM      0.056700
     21 H102        3.2110   -0.9040    1.1350 hc        1 MCM      0.056700
     22 H103        3.2090    0.9120    1.1250 hc        1 MCM      0.056700
@<TRIPOS>BOND
     1    1    2 1   
     2    1   14 1   
     3    1   15 1   
     4    2    3 ar  
     5    2   10 ar  
     6    3    4 ar  
     7    3   16 1   
     8    4    8 ar  
     9    4   12 1   
    10    5    6 1   
    11    5   12 1   
    12    5   13 2   
    13    6    7 2   
    14    6   17 1   
    15    7    8 1   
    16    7   11 1   
    17    8    9 ar  
    18    9   10 ar  
    19    9   18 1   
    20   10   19 1   
    21   11   20 1   
    22   11   21 1   
    23   11   22 1   
@<TRIPOS>SUBSTRUCTURE
     1 MCM         1 TEMP              0 ****  ****    0 ROOT
