@<TRIPOS>MOLECULE
MCM
   23    24     1     0     0
SMALL
bcc


@<TRIPOS>ATOM
      1 N          -0.0620    0.0210   -0.0040 n4        1 MCM     -0.704000
      2 CA          1.4030    0.0150   -0.0140 ca        1 MCM     -0.033400
      3 C2          2.0940    0.0230    1.2000 ca        1 MCM     -0.127000
      4 C3          3.5020    0.0170    1.1590 ca        1 MCM      0.179100
      5 C4          5.5300    0.0200    2.4260 c         1 MCM      0.715800
      6 C5          6.2770    0.0050    1.1770 cc        1 MCM     -0.204200
      7 C6          5.6610   -0.0030   -0.0260 cd        1 MCM      0.018600
      8 C7          4.2050    0.0030   -0.0660 ca        1 MCM     -0.085800
      9 C8          3.4690   -0.0050   -1.2600 ca        1 MCM     -0.047000
     10 C9          2.0800    0.0010   -1.2490 ca        1 MCM     -0.144000
     11 C10         6.4200   -0.0180   -1.2970 c3        1 MCM     -0.080900
     12 O1          4.1190    0.0250    2.3790 os        1 MCM     -0.328200
     13 O2          5.9110    0.0290    3.5870 o         1 MCM     -0.492500
     14 HN1        -0.4120   -0.8170   -0.4830 hn        1 MCM      0.467467
     15 HN2        -0.4100    0.0290    0.9620 hn        1 MCM      0.467467
     16 H2          1.5970    0.0340    2.1850 ha        1 MCM      0.183000
     17 H5          7.3760    0.0020    1.2860 ha        1 MCM      0.195000
     18 H8          4.0020   -0.0160   -2.2280 ha        1 MCM      0.178000
     19 H9          1.5320   -0.0050   -2.2040 ha        1 MCM      0.162000
     20 H101        7.5220   -0.0200   -1.1070 hc        1 MCM      0.072033
     21 H102        6.1720    0.8870   -1.9080 hc        1 MCM      0.072033
     22 H103        6.1640   -0.9310   -1.8910 hc        1 MCM      0.072033
     23 HN3        -0.4050    0.8570   -0.4930 hn        1 MCM      0.467467
@<TRIPOS>BOND
     1    1    2 1   
     2    1   14 1   
     3    1   15 1   
     4    1   23 1   
     5    2    3 ar  
     6    2   10 ar  
     7    3    4 ar  
     8    3   16 1   
     9    4    8 ar  
    10    4   12 1   
    11    5    6 1   
    12    5   12 1   
    13    5   13 2   
    14    6    7 2   
    15    6   17 1   
    16    7    8 1   
    17    7   11 1   
    18    8    9 ar  
    19    9   10 ar  
    20    9   18 1   
    21   10   19 1   
    22   11   20 1   
    23   11   21 1   
    24   11   22 1   
@<TRIPOS>SUBSTRUCTURE
     1 MCM         1 TEMP              0 ****  ****    0 ROOT
