@<TRIPOS>MOLECULE
MCO
   28    28     1     0     0
SMALL
bcc


@<TRIPOS>ATOM
      1 O2         -0.5540    0.0100    0.5850 o         1 MCO     -0.836800
      2 C9          0.6680    0.0140    0.2640 c         1 MCO      0.917600
      3 O3          1.0910    0.0340   -0.9230 o         1 MCO     -0.836800
      4 C8          1.7720    0.0300    1.3730 c3        1 MCO     -0.030300
      5 C7          2.4550    1.4150    1.3520 c3        1 MCO     -0.073400
      6 C6          1.9000    2.1730    2.5540 c3        1 MCO     -0.082400
      7 C5          1.1360    1.1350    3.3980 c3        1 MCO      0.081000
      8 N           1.3090   -0.1530    2.7520 n         1 MCO     -0.434800
      9 C4          0.6810   -1.3050    3.1690 c         1 MCO      0.670100
     10 O1          0.9020   -2.4040    2.6160 o         1 MCO     -0.622100
     11 C2         -0.2400   -1.2650    4.3990 c3        1 MCO     -0.140700
     12 C3          0.1030   -2.4290    5.3070 c3        1 MCO     -0.084100
     13 C1         -1.6800   -1.3600    3.9330 c3        1 MCO      0.047700
     14 S          -2.3670    0.1920    3.4200 sh        1 MCO     -0.545900
     15 HC81        2.4990   -0.7930    1.1370 h1        1 MCO      0.069700
     16 HC71        2.2270    1.9320    0.3880 hc        1 MCO      0.046700
     17 HC72        3.5640    1.3040    1.4350 hc        1 MCO      0.046700
     18 HC61        1.2040    2.9830    2.2270 hc        1 MCO      0.032200
     19 HC62        2.7170    2.6390    3.1550 hc        1 MCO      0.032200
     20 HC51        1.5570    1.0870    4.4390 h1        1 MCO      0.035200
     21 HC52        0.0440    1.4120    3.4690 h1        1 MCO      0.035200
     22 HC21       -0.1080   -0.3120    4.9810 hc        1 MCO      0.063700
     23 HC31        1.1560   -2.3370    5.6680 hc        1 MCO      0.035367
     24 HC32        0.0050   -3.3930    4.7500 hc        1 MCO      0.035367
     25 HC33       -0.5790   -2.4460    6.1910 hc        1 MCO      0.035367
     26 HC11       -2.3300   -1.6940    4.7790 h1        1 MCO      0.072700
     27 HC12       -1.7590   -2.1060    3.1040 h1        1 MCO      0.072700
     28 HS1        -1.7540    0.3160    2.1990 hs        1 MCO      0.355800
@<TRIPOS>BOND
     1    1    2 1   
     2    2    3 1   
     3    2    4 1   
     4    4    5 1   
     5    4    8 1   
     6    4   15 1   
     7    5    6 1   
     8    5   16 1   
     9    5   17 1   
    10    6    7 1   
    11    6   18 1   
    12    6   19 1   
    13    7    8 1   
    14    7   20 1   
    15    7   21 1   
    16    8    9 1   
    17    9   10 2   
    18    9   11 1   
    19   11   12 1   
    20   11   13 1   
    21   11   22 1   
    22   12   23 1   
    23   12   24 1   
    24   12   25 1   
    25   13   14 1   
    26   13   26 1   
    27   13   27 1   
    28   14   28 1   
@<TRIPOS>SUBSTRUCTURE
     1 MCO         1 TEMP              0 ****  ****    0 ROOT
