@<TRIPOS>MOLECULE
MCO
   28    28     1     0     0
SMALL
bcc


@<TRIPOS>ATOM
      1 O2         -0.4890   -0.0370    0.5460 o         1 MCO     -0.836800
      2 C9          0.7420   -0.0050    0.2610 c         1 MCO      0.917600
      3 O3          1.2000    0.0180   -0.9120 o         1 MCO     -0.836800
      4 C8          1.8100    0.0460    1.4030 c3        1 MCO     -0.030300
      5 C7          2.4590    1.4470    1.3930 c3        1 MCO     -0.073400
      6 C6          1.8490    2.1990    2.5720 c3        1 MCO     -0.082400
      7 C5          1.0870    1.1480    3.4000 c3        1 MCO      0.081000
      8 N           1.3110   -0.1400    2.7680 n         1 MCO     -0.434800
      9 C4          0.7000   -1.3050    3.1750 c         1 MCO      0.670100
     10 O1          0.9660   -2.4010    2.6370 o         1 MCO     -0.622100
     11 C2         -0.2580   -1.2800    4.3770 c3        1 MCO     -0.140700
     12 C3          0.0870   -2.4300    5.3030 c3        1 MCO     -0.084100
     13 C1         -1.6810   -1.4150    3.8680 c3        1 MCO      0.047700
     14 S          -2.3900    0.1160    3.3240 sh        1 MCO     -0.545900
     15 HC81        2.5640   -0.7600    1.1940 h1        1 MCO      0.069700
     16 HC71        2.2470    1.9530    0.4190 hc        1 MCO      0.046700
     17 HC72        3.5670    1.3650    1.5100 hc        1 MCO      0.046700
     18 HC61        1.1430    2.9890    2.2190 hc        1 MCO      0.032200
     19 HC62        2.6360    2.6890    3.1930 hc        1 MCO      0.032200
     20 HC51       -0.0130    1.3970    3.4360 h1        1 MCO      0.035200
     21 HC52        1.4780    1.1160    4.4540 h1        1 MCO      0.035200
     22 HC21       -0.1680   -0.3210    4.9550 hc        1 MCO      0.063700
     23 HC31        1.1250   -2.3090    5.6940 hc        1 MCO      0.035367
     24 HC32        0.0290   -3.3990    4.7500 hc        1 MCO      0.035367
     25 HC33       -0.6210   -2.4580    6.1660 hc        1 MCO      0.035367
     26 HC11       -2.3470   -1.7600    4.6970 h1        1 MCO      0.072700
     27 HC12       -1.7160   -2.1680    3.0430 h1        1 MCO      0.072700
     28 HS1        -1.7440    0.2470    2.1210 hs        1 MCO      0.355800
@<TRIPOS>BOND
     1    1    2 1   
     2    2    3 1   
     3    2    4 1   
     4    4    5 1   
     5    4    8 1   
     6    4   15 1   
     7    5    6 1   
     8    5   16 1   
     9    5   17 1   
    10    6    7 1   
    11    6   18 1   
    12    6   19 1   
    13    7    8 1   
    14    7   20 1   
    15    7   21 1   
    16    8    9 1   
    17    9   10 2   
    18    9   11 1   
    19   11   12 1   
    20   11   13 1   
    21   11   22 1   
    22   12   23 1   
    23   12   24 1   
    24   12   25 1   
    25   13   14 1   
    26   13   26 1   
    27   13   27 1   
    28   14   28 1   
@<TRIPOS>SUBSTRUCTURE
     1 MCO         1 TEMP              0 ****  ****    0 ROOT
