@<TRIPOS>MOLECULE
MCO
   28    28     1     0     0
SMALL
bcc


@<TRIPOS>ATOM
      1 O2          1.0260    1.6180    1.0010 o         1 MCO     -0.836800
      2 C9          2.0350    1.1940    0.3690 c         1 MCO      0.917600
      3 O3          3.1380    1.8000    0.3010 o         1 MCO     -0.836800
      4 C8          1.9770   -0.1850   -0.3690 c3        1 MCO     -0.030300
      5 C7          2.8790   -1.1780    0.3960 c3        1 MCO     -0.073400
      6 C6          1.9330   -2.0860    1.1760 c3        1 MCO     -0.082400
      7 C5          0.5200   -1.7940    0.6370 c3        1 MCO      0.081000
      8 N           0.6630   -0.8290   -0.4380 n         1 MCO     -0.434800
      9 C4         -0.4050   -0.2550   -1.0920 c         1 MCO      0.670100
     10 O1         -0.2340    0.5310   -2.0490 o         1 MCO     -0.622100
     11 C2         -1.8370   -0.6540   -0.7050 c3        1 MCO     -0.140700
     12 C3         -2.6260   -0.9380   -1.9680 c3        1 MCO     -0.084100
     13 C1         -2.4680    0.4850    0.0720 c3        1 MCO      0.047700
     14 S          -2.0490    0.4900    1.7950 sh        1 MCO     -0.545900
     15 HC81        2.3410   -0.0200   -1.4190 h1        1 MCO      0.069700
     16 HC71        3.4970   -1.7740   -0.3190 hc        1 MCO      0.046700
     17 HC72        3.5710   -0.6150    1.0700 hc        1 MCO      0.046700
     18 HC61        2.1920   -3.1630    1.0310 hc        1 MCO      0.032200
     19 HC62        1.9770   -1.8630    2.2690 hc        1 MCO      0.032200
     20 HC51        0.0510   -2.7330    0.2320 h1        1 MCO      0.035200
     21 HC52       -0.1400   -1.3940    1.4600 h1        1 MCO      0.035200
     22 HC21       -1.8480   -1.5800   -0.0670 hc        1 MCO      0.063700
     23 HC31       -2.1710   -1.7940   -2.5210 hc        1 MCO      0.035367
     24 HC32       -3.6830   -1.1920   -1.7160 hc        1 MCO      0.035367
     25 HC33       -2.6140   -0.0420   -2.6370 hc        1 MCO      0.035367
     26 HC11       -2.1850    1.4610   -0.3940 h1        1 MCO      0.072700
     27 HC12       -3.5810    0.3870    0.0490 h1        1 MCO      0.072700
     28 HS1        -0.7660    0.9710    1.7120 hs        1 MCO      0.355800
@<TRIPOS>BOND
     1    1    2 1   
     2    2    3 1   
     3    2    4 1   
     4    4    5 1   
     5    4    8 1   
     6    4   15 1   
     7    5    6 1   
     8    5   16 1   
     9    5   17 1   
    10    6    7 1   
    11    6   18 1   
    12    6   19 1   
    13    7    8 1   
    14    7   20 1   
    15    7   21 1   
    16    8    9 1   
    17    9   10 2   
    18    9   11 1   
    19   11   12 1   
    20   11   13 1   
    21   11   22 1   
    22   12   23 1   
    23   12   24 1   
    24   12   25 1   
    25   13   14 1   
    26   13   26 1   
    27   13   27 1   
    28   14   28 1   
@<TRIPOS>SUBSTRUCTURE
     1 MCO         1 TEMP              0 ****  ****    0 ROOT
