@<TRIPOS>MOLECULE
MCP
   22    22     1     0     0
SMALL
bcc


@<TRIPOS>ATOM
      1 N          -0.0330    0.1120    0.0960 n3        1 MCP     -0.805200
      2 C1          1.4210    0.0910   -0.0160 c3        1 MCP      0.046500
      3 C2          2.0740   -0.1010    1.3510 c3        1 MCP     -0.052400
      4 C3          1.5630   -1.3510    2.0580 c3        1 MCP     -0.064700
      5 C4          0.0410   -1.4050    2.0430 c3        1 MCP     -0.065400
      6 C5         -0.5490   -1.1160    0.6600 c3        1 MCP      0.174800
      7 C6          1.9630    1.3650   -0.7430 c         1 MCP      0.926600
      8 O1          1.4210    1.6660   -1.8440 o         1 MCP     -0.841300
      9 O2          2.9340    1.9790   -0.2240 o         1 MCP     -0.841300
     10 C7          2.1600   -2.6090    1.4640 c3        1 MCP     -0.085100
     11 HN         -0.4300    0.3020   -0.8050 hn        1 MCP      0.376800
     12 H1          1.7500   -0.7790   -0.6700 h1        1 MCP     -0.007300
     13 H21         3.1820   -0.1620    1.2020 hc        1 MCP      0.052200
     14 H22         1.8710    0.8000    1.9850 hc        1 MCP      0.052200
     15 H3          1.8910   -1.2980    3.1370 hc        1 MCP      0.017700
     16 H41        -0.3510   -0.6490    2.7720 hc        1 MCP      0.023700
     17 H42        -0.3090   -2.4170    2.3760 hc        1 MCP      0.023700
     18 H51        -0.3570   -2.0180    0.0020 h1        1 MCP     -0.000800
     19 H52        -1.6660   -1.0110    0.7580 h1        1 MCP     -0.000800
     20 H71         3.2760   -2.5580    1.4930 hc        1 MCP      0.023033
     21 H72         1.8420   -2.7300    0.4010 hc        1 MCP      0.023033
     22 H73         1.8310   -3.5100    2.0370 hc        1 MCP      0.023033
@<TRIPOS>BOND
     1    1    2 1   
     2    1    6 1   
     3    1   11 1   
     4    2    3 1   
     5    2    7 1   
     6    2   12 1   
     7    3    4 1   
     8    3   13 1   
     9    3   14 1   
    10    4    5 1   
    11    4   10 1   
    12    4   15 1   
    13    5    6 1   
    14    5   16 1   
    15    5   17 1   
    16    6   18 1   
    17    6   19 1   
    18    7    8 1   
    19    7    9 1   
    20   10   20 1   
    21   10   21 1   
    22   10   22 1   
@<TRIPOS>SUBSTRUCTURE
     1 MCP         1 TEMP              0 ****  ****    0 ROOT
