@<TRIPOS>MOLECULE
MCP
   22    22     1     0     0
SMALL
bcc


@<TRIPOS>ATOM
      1 N          -0.0590    0.1920    0.2490 n3        1 MCP     -0.805200
      2 C1          1.3720    0.0980   -0.0140 c3        1 MCP      0.046500
      3 C2          2.1500   -0.1670    1.2730 c3        1 MCP     -0.052400
      4 C3          1.6470   -1.4080    2.0010 c3        1 MCP     -0.064700
      5 C4          0.1310   -1.3830    2.1420 c3        1 MCP     -0.065400
      6 C5         -0.5810   -1.0240    0.8350 c3        1 MCP      0.174800
      7 C6          1.9050    1.3630   -0.7630 c         1 MCP      0.926600
      8 O1          1.2700    1.7230   -1.7940 o         1 MCP     -0.841300
      9 O2          2.9570    1.9100   -0.3350 o         1 MCP     -0.841300
     10 C7          2.1110   -2.6780    1.3190 c3        1 MCP     -0.085100
     11 HN         -0.5360    0.4270   -0.6020 hn        1 MCP      0.376800
     12 H1          1.5850   -0.7680   -0.7190 h1        1 MCP     -0.007300
     13 H21         2.0630    0.7260    1.9460 hc        1 MCP      0.052200
     14 H22         3.2320   -0.2800    1.0090 hc        1 MCP      0.052200
     15 H3          2.0860   -1.4030    3.0400 hc        1 MCP      0.017700
     16 H41        -0.2380   -2.3840    2.4850 hc        1 MCP      0.023700
     17 H42        -0.1430   -0.6290    2.9250 hc        1 MCP      0.023700
     18 H51        -1.6750   -0.8640    1.0500 h1        1 MCP     -0.000800
     19 H52        -0.5060   -1.9150    0.1400 h1        1 MCP     -0.000800
     20 H71         1.6790   -2.7510    0.2910 hc        1 MCP      0.023033
     21 H72         1.7930   -3.5760    1.9010 hc        1 MCP      0.023033
     22 H73         3.2240   -2.6850    1.2330 hc        1 MCP      0.023033
@<TRIPOS>BOND
     1    1    2 1   
     2    1    6 1   
     3    1   11 1   
     4    2    3 1   
     5    2    7 1   
     6    2   12 1   
     7    3    4 1   
     8    3   13 1   
     9    3   14 1   
    10    4    5 1   
    11    4   10 1   
    12    4   15 1   
    13    5    6 1   
    14    5   16 1   
    15    5   17 1   
    16    6   18 1   
    17    6   19 1   
    18    7    8 1   
    19    7    9 1   
    20   10   20 1   
    21   10   21 1   
    22   10   22 1   
@<TRIPOS>SUBSTRUCTURE
     1 MCP         1 TEMP              0 ****  ****    0 ROOT
