@<TRIPOS>MOLECULE
MCP
   22    22     1     0     0
SMALL
bcc


@<TRIPOS>ATOM
      1 N          -1.4170   -0.1760    0.0250 n3        1 MCP     -0.805200
      2 C1         -0.0470   -0.2150   -0.4740 c3        1 MCP      0.046500
      3 C2          0.8430    0.7630    0.2910 c3        1 MCP     -0.052400
      4 C3          0.8020    0.5170    1.7950 c3        1 MCP     -0.064700
      5 C4         -0.6320    0.4060    2.2930 c3        1 MCP     -0.065400
      6 C5         -1.4910   -0.5200    1.4270 c3        1 MCP      0.174800
      7 C6          0.0130    0.0330   -2.0170 c         1 MCP      0.926600
      8 O1         -0.7570   -0.6640   -2.7350 o         1 MCP     -0.841300
      9 O2          0.8560    0.8620   -2.4540 o         1 MCP     -0.841300
     10 C7          1.6100   -0.7040    2.1800 c3        1 MCP     -0.085100
     11 HN         -1.9890   -0.7800   -0.5360 hn        1 MCP      0.376800
     12 H1          0.3930   -1.2530   -0.3280 h1        1 MCP     -0.007300
     13 H21         0.5120    1.8100    0.0720 hc        1 MCP      0.052200
     14 H22         1.8890    0.6570   -0.0940 hc        1 MCP      0.052200
     15 H3          1.2720    1.4070    2.3050 hc        1 MCP      0.017700
     16 H41        -0.6440    0.0220    3.3460 hc        1 MCP      0.023700
     17 H42        -1.0910    1.4290    2.2960 hc        1 MCP      0.023700
     18 H51        -1.1730   -1.5870    1.6370 h1        1 MCP     -0.000800
     19 H52        -2.5660   -0.4270    1.7530 h1        1 MCP     -0.000800
     20 H71         1.6270   -0.8300    3.2900 hc        1 MCP      0.023033
     21 H72         1.1700   -1.6250    1.7260 hc        1 MCP      0.023033
     22 H73         2.6610   -0.6020    1.8180 hc        1 MCP      0.023033
@<TRIPOS>BOND
     1    1    2 1   
     2    1    6 1   
     3    1   11 1   
     4    2    3 1   
     5    2    7 1   
     6    2   12 1   
     7    3    4 1   
     8    3   13 1   
     9    3   14 1   
    10    4    5 1   
    11    4   10 1   
    12    4   15 1   
    13    5    6 1   
    14    5   16 1   
    15    5   17 1   
    16    6   18 1   
    17    6   19 1   
    18    7    8 1   
    19    7    9 1   
    20   10   20 1   
    21   10   21 1   
    22   10   22 1   
@<TRIPOS>SUBSTRUCTURE
     1 MCP         1 TEMP              0 ****  ****    0 ROOT
