@<TRIPOS>MOLECULE
MCP
   22    22     1     0     0
SMALL
bcc


@<TRIPOS>ATOM
      1 N          -0.0430    0.1900    0.2160 n7        1 MCP     -0.805200
      2 C1          1.3960    0.1000   -0.0070 c3        1 MCP      0.046500
      3 C2          2.1380   -0.1650    1.3020 c3        1 MCP     -0.052400
      4 C3          1.6160   -1.4080    2.0130 c3        1 MCP     -0.064700
      5 C4          0.0970   -1.3870    2.1110 c3        1 MCP     -0.065400
      6 C5         -0.5780   -1.0270    0.7850 c3        1 MCP      0.174800
      7 C6          1.9470    1.3670   -0.7390 c         1 MCP      0.926600
      8 O1          1.3410    1.7270   -1.7870 o         1 MCP     -0.841300
      9 O2          2.9850    1.9160   -0.2790 o         1 MCP     -0.841300
     10 C7          2.1030   -2.6760    1.3430 c3        1 MCP     -0.085100
     11 HN         -0.4960    0.4260   -0.6470 hn        1 MCP      0.376800
     12 H1          1.6300   -0.7650   -0.7060 h1        1 MCP     -0.007300
     13 H21         2.0290    0.7260    1.9730 hc        1 MCP      0.052200
     14 H22         3.2270   -0.2760    1.0690 hc        1 MCP      0.052200
     15 H3          2.0260   -1.4040    3.0650 hc        1 MCP      0.017700
     16 H41        -0.2010   -0.6350    2.8870 hc        1 MCP      0.023700
     17 H42        -0.2790   -2.3890    2.4430 hc        1 MCP      0.023700
     18 H51        -0.4820   -1.9170    0.0910 h1        1 MCP     -0.000800
     19 H52        -1.6780   -0.8710    0.9700 h1        1 MCP     -0.000800
     20 H71         3.2180   -2.6810    1.2890 hc        1 MCP      0.023033
     21 H72         1.7700   -3.5760    1.9150 hc        1 MCP      0.023033
     22 H73         1.7000   -2.7490    0.3040 hc        1 MCP      0.023033
@<TRIPOS>BOND
     1    1    2 1   
     2    1    6 1   
     3    1   11 1   
     4    2    3 1   
     5    2    7 1   
     6    2   12 1   
     7    3    4 1   
     8    3   13 1   
     9    3   14 1   
    10    4    5 1   
    11    4   10 1   
    12    4   15 1   
    13    5    6 1   
    14    5   16 1   
    15    5   17 1   
    16    6   18 1   
    17    6   19 1   
    18    7    8 1   
    19    7    9 1   
    20   10   20 1   
    21   10   21 1   
    22   10   22 1   
@<TRIPOS>SUBSTRUCTURE
     1 MCP         1 TEMP              0 ****  ****    0 ROOT
