@<TRIPOS>MOLECULE
MCR
    8     7     1     0     0
SMALL
bcc


@<TRIPOS>ATOM
      1 O1          0.0650    2.5060   -1.8540 o         1 MCR     -0.827300
      2 C1         -0.4280    1.3650   -1.6400 c         1 MCR      0.928600
      3 O2         -1.6110    1.0300   -1.9240 o         1 MCR     -0.827300
      4 C2          0.4520    0.3310   -0.9010 c3        1 MCR     -0.104300
      5 S2          1.3710   -0.6580   -2.0480 sh        1 MCR     -0.386900
      6 H21         1.1540    0.8780   -0.2320 h1        1 MCR      0.038700
      7 H22        -0.2080   -0.3230   -0.2890 h1        1 MCR      0.038700
      8 HS2         2.0050   -1.4180   -1.1780 hs        1 MCR      0.140800
@<TRIPOS>BOND
     1    1    2 1   
     2    2    3 1   
     3    2    4 1   
     4    4    5 1   
     5    4    6 1   
     6    4    7 1   
     7    5    8 1   
@<TRIPOS>SUBSTRUCTURE
     1 MCR         1 TEMP              0 ****  ****    0 ROOT
