@<TRIPOS>MOLECULE
MCR
    8     7     1     0     0
SMALL
bcc


@<TRIPOS>ATOM
      1 O1          0.2550   -0.7300    0.0380 o         1 MCR     -0.827300
      2 C1          1.3030   -0.0280   -0.0030 c         1 MCR      0.928600
      3 O2          1.7470    0.6550    0.9600 o         1 MCR     -0.827300
      4 C2          2.0490    0.0680   -1.3530 c3        1 MCR     -0.104300
      5 S2          3.2930   -1.1870   -1.4830 sh        1 MCR     -0.386900
      6 H21         2.5220    1.0730   -1.4260 h1        1 MCR      0.038700
      7 H22         1.3090   -0.0530   -2.1760 h1        1 MCR      0.038700
      8 HS2         3.7480   -0.8790   -2.6810 hs        1 MCR      0.140800
@<TRIPOS>BOND
     1    1    2 1   
     2    2    3 1   
     3    2    4 1   
     4    4    5 1   
     5    4    6 1   
     6    4    7 1   
     7    5    8 1   
@<TRIPOS>SUBSTRUCTURE
     1 MCR         1 TEMP              0 ****  ****    0 ROOT
