@<TRIPOS>MOLECULE
MCS
   20    19     1     0     0
SMALL
bcc


@<TRIPOS>ATOM
      1 O           2.7140   -1.4600   -2.7660 o         1 MCS     -0.851300
      2 C           1.6070   -1.3140   -2.1720 c         1 MCS      0.896600
      3 CA          1.5980   -1.1440   -0.6150 c3        1 MCS      0.046500
      4 N           2.9080   -1.1980    0.0110 n3        1 MCS     -0.911800
      5 CB          0.7330    0.0520   -0.2250 c3        1 MCS      0.008700
      6 SAI         1.6060    1.6040   -0.0840 ss        1 MCS     -0.371700
      7 CAK         0.7840    2.4760    1.1960 c         1 MCS      0.646700
      8 OAC        -0.1430    2.0220    1.8710 o         1 MCS     -0.561100
      9 CAG         1.3240    3.8600    1.2560 c3        1 MCS     -0.291400
     10 CAJ         1.5380    4.4340    2.6790 c         1 MCS      0.930600
     11 OAE         0.8740    5.4670    2.9800 o         1 MCS     -0.841300
     12 OAB         2.3960    3.8980    3.4300 o         1 MCS     -0.841300
     13 OXT         0.4870   -1.3500   -2.7570 o         1 MCS     -0.851300
     14 HA          1.0440   -2.0590   -0.2370 h1        1 MCS      0.036700
     15 HN1         3.1690   -0.2850    0.3410 hn        1 MCS      0.345800
     16 HN2         3.5790   -1.4700   -0.6900 hn        1 MCS      0.345800
     17 HBC1        0.2330   -0.1350    0.7570 h1        1 MCS      0.072200
     18 HBC2       -0.0550    0.1700   -1.0110 h1        1 MCS      0.072200
     19 HAG1        0.5960    4.5280    0.7240 hc        1 MCS      0.058700
     20 HAG2        2.3100    3.9080    0.7240 hc        1 MCS      0.058700
@<TRIPOS>BOND
     1    1    2 1   
     2    2    3 1   
     3    2   13 1   
     4    3    4 1   
     5    3    5 1   
     6    3   14 1   
     7    4   15 1   
     8    4   16 1   
     9    5    6 1   
    10    5   17 1   
    11    5   18 1   
    12    6    7 1   
    13    7    8 2   
    14    7    9 1   
    15    9   10 1   
    16    9   19 1   
    17    9   20 1   
    18   10   11 1   
    19   10   12 1   
@<TRIPOS>SUBSTRUCTURE
     1 MCS         1 TEMP              0 ****  ****    0 ROOT
