@<TRIPOS>MOLECULE
MCT
   17    17     1     0     0
SMALL
bcc


@<TRIPOS>ATOM
      1 C1          0.0080   -0.0350    0.0000 ca        1 MCT     -0.072300
      2 C2          1.4050   -0.1260   -0.0020 ca        1 MCT     -0.187000
      3 C3          2.1080   -0.2030    1.2020 ca        1 MCT      0.105100
      4 O3          3.4790   -0.2940    1.2670 oh        1 MCT     -0.476100
      5 C4          1.4050   -0.1880    2.4300 ca        1 MCT      0.096100
      6 O4          2.1520   -0.2660    3.5820 oh        1 MCT     -0.475100
      7 C5          0.0100   -0.0960    2.4250 ca        1 MCT     -0.181000
      8 C6         -0.6800   -0.0200    1.2160 ca        1 MCT     -0.126000
      9 C          -0.7260    0.0320   -1.2850 c3        1 MCT     -0.050800
     10 H2          1.9530   -0.1370   -0.9560 ha        1 MCT      0.136000
     11 HO3         3.8150   -0.2920    0.3580 ho        1 MCT      0.414000
     12 HO4         1.5360   -0.2440    4.3300 ho        1 MCT      0.414000
     13 H5         -0.5400   -0.0830    3.3770 ha        1 MCT      0.135000
     14 H6         -1.7780    0.0530    1.2240 ha        1 MCT      0.135000
     15 H1         -0.1970    0.7020   -2.0080 hc        1 MCT      0.044700
     16 H2A        -0.7950   -0.9880   -1.7400 hc        1 MCT      0.044700
     17 H3         -1.7630    0.4210   -1.1370 hc        1 MCT      0.044700
@<TRIPOS>BOND
     1    1    2 ar  
     2    1    8 ar  
     3    1    9 1   
     4    2    3 ar  
     5    2   10 1   
     6    3    4 1   
     7    3    5 ar  
     8    4   11 1   
     9    5    6 1   
    10    5    7 ar  
    11    6   12 1   
    12    7    8 ar  
    13    7   13 1   
    14    8   14 1   
    15    9   15 1   
    16    9   16 1   
    17    9   17 1   
@<TRIPOS>SUBSTRUCTURE
     1 MCT         1 TEMP              0 ****  ****    0 ROOT
