@<TRIPOS>MOLECULE
MCT
   17    17     1     0     0
SMALL
bcc


@<TRIPOS>ATOM
      1 C1         -0.0650   -0.0220    1.6610 ca        1 MCT     -0.072300
      2 C2         -1.1400   -0.0420    0.7670 ca        1 MCT     -0.135000
      3 C3         -0.9010   -0.1470   -0.6080 ca        1 MCT      0.114100
      4 O3         -1.9940   -0.1620   -1.4410 oh        1 MCT     -0.496100
      5 C4          0.4250   -0.2330   -1.0840 ca        1 MCT      0.034100
      6 O4          0.5770   -0.3340   -2.4530 oh        1 MCT     -0.518100
      7 C5          1.4960   -0.2130   -0.1870 ca        1 MCT     -0.166000
      8 C6          1.2460   -0.1080    1.1790 ca        1 MCT     -0.132000
      9 C          -0.3180    0.1050    3.1160 c3        1 MCT     -0.051800
     10 H2         -2.1780    0.0220    1.1270 ha        1 MCT      0.153000
     11 HO3        -1.6730   -0.2400   -2.3530 ho        1 MCT      0.436000
     12 HO4         1.5250   -0.3870   -2.6400 ho        1 MCT      0.428000
     13 H5          2.5280   -0.2810   -0.5600 ha        1 MCT      0.134000
     14 H6          2.0890   -0.0940    1.8850 ha        1 MCT      0.135000
     15 H1         -0.3330    1.1860    3.4060 hc        1 MCT      0.045367
     16 H2A        -1.3030   -0.3450    3.3920 hc        1 MCT      0.045367
     17 H3          0.4820   -0.4050    3.7070 hc        1 MCT      0.045367
@<TRIPOS>BOND
     1    1    2 ar  
     2    1    8 ar  
     3    1    9 1   
     4    2    3 ar  
     5    2   10 1   
     6    3    4 1   
     7    3    5 ar  
     8    4   11 1   
     9    5    6 1   
    10    5    7 ar  
    11    6   12 1   
    12    7    8 ar  
    13    7   13 1   
    14    8   14 1   
    15    9   15 1   
    16    9   16 1   
    17    9   17 1   
@<TRIPOS>SUBSTRUCTURE
     1 MCT         1 TEMP              0 ****  ****    0 ROOT
