@<TRIPOS>MOLECULE
MCT
   17    17     1     0     0
SMALL
bcc


@<TRIPOS>ATOM
      1 C1          0.0060   -0.0630   -0.0010 ca        1 MCT     -0.072300
      2 C2          1.4060   -0.1050   -0.0020 ca        1 MCT     -0.187000
      3 C3          2.1110   -0.1500    1.2030 ca        1 MCT      0.105100
      4 O3          3.4840   -0.1930    1.2690 oh        1 MCT     -0.476100
      5 C4          1.4070   -0.1530    2.4310 ca        1 MCT      0.096100
      6 O4          2.1550   -0.1990    3.5840 oh        1 MCT     -0.475100
      7 C5          0.0100   -0.1100    2.4240 ca        1 MCT     -0.181000
      8 C6         -0.6820   -0.0650    1.2150 ca        1 MCT     -0.126000
      9 C          -0.7290   -0.0290   -1.2860 c3        1 MCT     -0.050800
     10 H2          1.9540   -0.1020   -0.9560 ha        1 MCT      0.136000
     11 HO3         3.8200   -0.1840    0.3600 ho        1 MCT      0.414000
     12 HO4         1.5390   -0.1940    4.3310 ho        1 MCT      0.414000
     13 H5         -0.5410   -0.1120    3.3760 ha        1 MCT      0.135000
     14 H6         -1.7820   -0.0310    1.2220 ha        1 MCT      0.135000
     15 H1         -0.2220    0.6510   -2.0140 hc        1 MCT      0.044700
     16 H2A        -0.7660   -1.0540   -1.7330 hc        1 MCT      0.044700
     17 H3         -1.7780    0.3280   -1.1410 hc        1 MCT      0.044700
@<TRIPOS>BOND
     1    1    2 ar  
     2    1    8 ar  
     3    1    9 1   
     4    2    3 ar  
     5    2   10 1   
     6    3    4 1   
     7    3    5 ar  
     8    4   11 1   
     9    5    6 1   
    10    5    7 ar  
    11    6   12 1   
    12    7    8 ar  
    13    7   13 1   
    14    8   14 1   
    15    9   15 1   
    16    9   16 1   
    17    9   17 1   
@<TRIPOS>SUBSTRUCTURE
     1 MCT         1 TEMP              0 ****  ****    0 ROOT
