@<TRIPOS>MOLECULE
MCU
   29    29     1     0     0
SMALL
bcc


@<TRIPOS>ATOM
      1 C4A         0.9410    3.1720    0.6510 c3        1 MCU      0.113700
      2 O4          0.8260    2.0770   -0.2490 os        1 MCU     -0.418600
      3 C4          0.0560    0.9950    0.2670 c3        1 MCU      0.116100
      4 C3         -1.4230    1.1980   -0.1100 c3        1 MCU      0.127100
      5 O3         -1.9270    2.2150    0.7400 oh        1 MCU     -0.597800
      6 C2         -2.2150   -0.1000    0.1040 c3        1 MCU      0.048100
      7 O2         -3.5080    0.1250   -0.4300 oh        1 MCU     -0.598800
      8 C1         -1.5260   -1.2680   -0.6250 c3        1 MCU      0.313900
      9 O1         -2.1030   -2.4990   -0.2940 oh        1 MCU     -0.591800
     10 O5         -0.1860   -1.4150   -0.1680 os        1 MCU     -0.436600
     11 C5          0.6220   -0.2670   -0.4160 c3        1 MCU      0.110100
     12 C6          1.9800   -0.6060    0.1720 c         1 MCU      0.648100
     13 O6          2.3420   -0.5400    1.3460 o         1 MCU     -0.524000
     14 O6A         2.8660   -1.0140   -0.7800 os        1 MCU     -0.424900
     15 C6A         4.1820   -1.3460   -0.3300 c3        1 MCU      0.124700
     16 H1          1.4960    2.8620    1.5700 h1        1 MCU      0.046700
     17 H2          1.5240    3.9320    0.0740 h1        1 MCU      0.046700
     18 H3         -0.0710    3.5650    0.9210 h1        1 MCU      0.046700
     19 H4          0.1610    0.9140    1.3840 h1        1 MCU      0.091700
     20 H5         -1.5060    1.5250   -1.1840 h1        1 MCU      0.067700
     21 H6         -2.8630    2.3160    0.5200 ho        1 MCU      0.423000
     22 H7         -2.2930   -0.3270    1.2040 h1        1 MCU      0.065700
     23 H8         -3.9730   -0.7220   -0.3940 ho        1 MCU      0.424000
     24 H9         -1.5850   -1.1620   -1.7430 h2        1 MCU      0.092700
     25 H10        -1.7500   -2.7810    0.5630 ho        1 MCU      0.432000
     26 H11         0.7160   -0.1000   -1.5260 h1        1 MCU      0.092700
     27 H12         4.7100   -1.6490   -1.2670 h1        1 MCU      0.054033
     28 H13         4.6580   -0.4530    0.1410 h1        1 MCU      0.054033
     29 H14         4.1310   -2.1870    0.4030 h1        1 MCU      0.054033
@<TRIPOS>BOND
     1    1    2 1   
     2    1   16 1   
     3    1   17 1   
     4    1   18 1   
     5    2    3 1   
     6    3    4 1   
     7    3   11 1   
     8    3   19 1   
     9    4    5 1   
    10    4    6 1   
    11    4   20 1   
    12    5   21 1   
    13    6    7 1   
    14    6    8 1   
    15    6   22 1   
    16    7   23 1   
    17    8    9 1   
    18    8   10 1   
    19    8   24 1   
    20    9   25 1   
    21   10   11 1   
    22   11   12 1   
    23   11   26 1   
    24   12   13 2   
    25   12   14 1   
    26   14   15 1   
    27   15   27 1   
    28   15   28 1   
    29   15   29 1   
@<TRIPOS>SUBSTRUCTURE
     1 MCU         1 TEMP              0 ****  ****    0 ROOT
