@<TRIPOS>MOLECULE
MCV
   41    40     1     0     0
SMALL
bcc


@<TRIPOS>ATOM
      1 N1          0.0190   -0.5530   -0.1840 n2        1 MCV     -0.283000
      2 C2          1.2100   -1.2220   -0.0010 c2        1 MCV      0.170000
      3 N3          1.9330   -1.2870    1.2010 n2        1 MCV     -0.203000
      4 C4          1.3980   -0.5960    2.2000 c2        1 MCV     -0.271000
      5 C5          0.1920    0.1550    2.1310 c2        1 MCV     -0.313000
      6 C6         -0.4790    0.1700    0.8760 c2        1 MCV      0.207000
      7 CAA        -8.7320   -3.1320    6.1320 c3        1 MCV     -0.137000
      8 CAB        -4.7750    0.2750    1.2700 c1        1 MCV     -0.037000
      9 NAC         1.7750   -1.8460   -1.1200 nh        1 MCV     -0.325000
     10 NAD        -1.6010    0.9650    0.6780 nh        1 MCV     -0.310000
     11 CAE        -8.4590   -1.9340    5.3080 c2        1 MCV     -0.459000
     12 CAF        -7.2800   -1.5590    4.8690 c1        1 MCV      0.137000
     13 CAG         0.9670    0.4510    4.2930 c1        1 MCV     -0.731000
     14 CAH        -3.7870   -1.5530    5.5610 c2        1 MCV     -0.336000
     15 CAI        -1.9310   -0.8260    3.9880 c3        1 MCV     -0.135000
     16 SAO         2.0550   -0.4230    3.8580 ss        1 MCV      0.973000
     17 CAP        -2.9500   -1.9640    6.4950 c1        1 MCV      0.282000
     18 CAR        -3.3830   -0.9810    4.2970 c2        1 MCV      0.019000
     19 CAT        -0.1290    0.8770    3.4260 c3        1 MCV      0.020000
     20 CAU        -4.3440   -0.6170    3.4200 c2        1 MCV     -0.203000
     21 HAA        -9.1880   -2.8270    7.1070 hc        1 MCV      0.087667
     22 HAAA       -9.4490   -3.8040    5.5970 hc        1 MCV      0.087667
     23 HAAB       -7.7980   -3.7080    6.3430 hc        1 MCV      0.087667
     24 HAB        -7.9370    0.3500    3.6890 ha        1 MCV      0.007500
     25 HABA       -5.8630    0.1010    1.4300 ha        1 MCV      0.025000
     26 HABB       -7.4700    0.1620    3.2330 ha        1 MCV      0.007500
     27 HNAC        2.4550   -2.5460   -0.9380 hn        1 MCV      0.219500
     28 HNAA        1.1700   -2.0090   -1.8910 hn        1 MCV      0.219500
     29 HNAD       -2.1430    1.1310    1.4990 hn        1 MCV      0.218000
     30 HNAB       -2.1500    0.7820   -0.1350 hn        1 MCV      0.218000
     31 HAE        -9.3560   -1.3300    5.0650 ha        1 MCV      0.187000
     32 HAF        -5.4290   -0.7240    3.5750 h4        1 MCV      0.174000
     33 HAG        -0.0370    1.9920    3.2460 hc        1 MCV      0.142000
     34 HAH        -4.8730   -1.6450    5.7520 ha        1 MCV      0.194000
     35 HAI        -1.7400   -1.2380    2.9580 hc        1 MCV      0.097000
     36 HAIA       -1.3090   -1.4220    4.7080 hc        1 MCV      0.097000
     37 HAJ        -1.4760    0.9820    5.0960 hc        1 MCV      0.095000
     38 HAJA       -2.2630    1.2520    3.4920 hc        1 MCV      0.095000
     39 CAJ        -1.5010    0.6280    4.0300 c3        1 MCV     -0.119000
     40 OAM        -2.2370   -2.3540    7.3620 o         1 MCV     -0.138000
     41 OAN        -3.9410   -0.0460    2.1870 os        1 MCV     -0.063000
@<TRIPOS>BOND
     1    1    2 1   
     2    1    6 1   
     3    2    3 1   
     4    2    9 1   
     5    3    4 1   
     6    4    5 1   
     7    4   16 1   
     8    5    6 1   
     9    5   19 1   
    10    6   10 1   
    11    7   11 1   
    12    7   21 1   
    13    7   22 1   
    14    7   23 1   
    15    8   25 1   
    16    8   41 1   
    17    9   27 1   
    18    9   28 1   
    19   10   29 1   
    20   10   30 1   
    21   11   12 1   
    22   11   31 1   
    23   13   16 1   
    24   13   19 1   
    25   14   17 1   
    26   14   18 1   
    27   14   34 1   
    28   15   18 1   
    29   15   35 1   
    30   15   36 1   
    31   15   39 1   
    32   17   40 1   
    33   18   20 1   
    34   19   33 1   
    35   19   39 1   
    36   20   32 1   
    37   20   41 1   
    38   24   26 1   
    39   37   39 1   
    40   38   39 1   
@<TRIPOS>SUBSTRUCTURE
     1 MCV         1 TEMP              0 ****  ****    0 ROOT
