@<TRIPOS>MOLECULE
MCV
   41    43     1     0     0
SMALL
bcc


@<TRIPOS>ATOM
      1 N1          3.5460   -1.7950   -0.3110 nb        1 MCV     -0.834000
      2 C2          4.6960   -1.0800    0.0080 ca        1 MCV      0.905900
      3 N3          4.7670    0.2850    0.2140 nb        1 MCV     -0.765000
      4 C4          3.5870    0.9350    0.1320 ca        1 MCV      0.487600
      5 C5          2.3300    0.3170   -0.1690 ca        1 MCV     -0.394400
      6 C6          2.3740   -1.1040   -0.4080 ca        1 MCV      0.756200
      7 CAA        -6.8560    1.3020   -0.3770 c3        1 MCV      0.113700
      8 CAB        -1.8880   -3.5720    0.2630 c3        1 MCV      0.114700
      9 NAC         5.8680   -1.8260    0.1970 nh        1 MCV     -0.923500
     10 NAD         1.2450   -1.7960   -0.8090 nh        1 MCV     -0.940500
     11 CAE        -4.9190   -0.7220   -0.2380 ca        1 MCV     -0.173000
     12 CAF        -3.9110   -1.6830   -0.1600 ca        1 MCV     -0.160000
     13 CAG         1.7410    2.5460    0.0890 cc        1 MCV     -0.213400
     14 CAH        -3.2910    1.0080    0.3100 ca        1 MCV     -0.126000
     15 CAI        -0.8940    0.4700    0.7390 c3        1 MCV     -0.033100
     16 SAO         3.3930    2.6050    0.3660 ss        1 MCV     -0.021900
     17 CAP        -4.6060    0.6190   -0.0050 ca        1 MCV      0.101100
     18 CAR        -2.2800    0.0540    0.3920 ca        1 MCV     -0.069300
     19 CAT         1.2660    1.2850   -0.1880 cd        1 MCV     -0.023400
     20 CAU        -2.6040   -1.3010    0.1500 ca        1 MCV      0.086100
     21 HAA        -7.3970    2.2820   -0.3630 h1        1 MCV      0.044367
     22 HAAA       -6.9080    0.8380   -1.3920 h1        1 MCV      0.044367
     23 HAAB       -7.2760    0.6090    0.3920 h1        1 MCV      0.044367
     24 HAB        -0.9090   -4.0800    0.4560 h1        1 MCV      0.045367
     25 HABA       -2.6100   -3.7780    1.0890 h1        1 MCV      0.045367
     26 HABB       -2.3110   -3.8980   -0.7190 h1        1 MCV      0.045367
     27 HNAC        5.8840   -2.7300   -0.2150 hn        1 MCV      0.422300
     28 HNAA        6.7210   -1.3170    0.1580 hn        1 MCV      0.422300
     29 HNAD        1.2850   -2.7890   -0.8180 hn        1 MCV      0.431800
     30 HNAB        0.3640   -1.4010   -0.5680 hn        1 MCV      0.431800
     31 HAE        -5.9430   -1.0350   -0.4830 ha        1 MCV      0.140000
     32 HAF        -4.1620   -2.7370   -0.3450 ha        1 MCV      0.139000
     33 HAG         1.1300    3.4470    0.1290 h4        1 MCV      0.170000
     34 HAH        -3.0720    2.0700    0.4920 ha        1 MCV      0.154000
     35 HAI        -0.3290   -0.4000    1.1660 hc        1 MCV      0.061200
     36 HAIA       -0.9300    1.2580    1.5390 hc        1 MCV      0.061200
     37 HAJ        -0.2760    0.3510   -1.3570 hc        1 MCV      0.057200
     38 HAJA       -0.6570    2.0020   -0.7640 hc        1 MCV      0.057200
     39 CAJ        -0.1630    1.0330   -0.4730 c3        1 MCV     -0.026200
     40 OAM        -5.5180    1.6590   -0.0550 os        1 MCV     -0.325900
     41 OAN        -1.5430   -2.1920    0.2190 os        1 MCV     -0.349900
@<TRIPOS>BOND
     1    1    2 ar  
     2    1    6 ar  
     3    2    3 ar  
     4    2    9 1   
     5    3    4 ar  
     6    4    5 ar  
     7    4   16 1   
     8    5    6 ar  
     9    5   19 1   
    10    6   10 1   
    11    7   21 1   
    12    7   22 1   
    13    7   23 1   
    14    7   40 1   
    15    8   24 1   
    16    8   25 1   
    17    8   26 1   
    18    8   41 1   
    19    9   27 1   
    20    9   28 1   
    21   10   29 1   
    22   10   30 1   
    23   11   12 ar  
    24   11   17 ar  
    25   11   31 1   
    26   12   20 ar  
    27   12   32 1   
    28   13   16 1   
    29   13   19 2   
    30   13   33 1   
    31   14   17 ar  
    32   14   18 ar  
    33   14   34 1   
    34   15   18 1   
    35   15   35 1   
    36   15   36 1   
    37   15   39 1   
    38   17   40 1   
    39   18   20 ar  
    40   19   39 1   
    41   20   41 1   
    42   37   39 1   
    43   38   39 1   
@<TRIPOS>SUBSTRUCTURE
     1 MCV         1 TEMP              0 ****  ****    0 ROOT
