@<TRIPOS>MOLECULE
MCV
   43    42     1     0     0
SMALL
bcc


@<TRIPOS>ATOM
      1 N1          1.7640   -0.3380   -0.2110 n2        1 MCV     -0.220000
      2 C2          2.3680    0.7000    0.4240 c2        1 MCV      0.024000
      3 N3          2.2120    1.1320    1.7230 n2        1 MCV     -0.128000
      4 C4          1.3150    0.4110    2.4120 c2        1 MCV     -0.295000
      5 C5          0.5740   -0.6740    1.8840 c2        1 MCV     -0.226000
      6 C6          0.8450   -1.0690    0.5330 c2        1 MCV      0.242000
      7 CAA        -9.7890   -0.6300    7.1170 c3        1 MCV     -0.158000
      8 CAB        -6.5960   -0.9230    3.2330 c2        1 MCV      0.024000
      9 NAC         3.3570    1.4660   -0.3980 n4        1 MCV     -0.011000
     10 NAD         0.2310   -2.1380   -0.0470 nh        1 MCV     -0.330000
     11 CAE        -9.1880    0.1960    6.0410 c2        1 MCV     -0.303000
     12 CAF        -8.2630   -0.1400    5.2010 c1        1 MCV      0.046000
     13 CAG        -0.0540   -0.5000    4.0980 c1        1 MCV     -0.831000
     14 CAH        -2.6360   -1.0490    5.7760 c2        1 MCV     -0.397000
     15 CAI        -2.6930   -2.0860    3.4710 c3        1 MCV     -0.149000
     16 SAO         0.8700    0.5980    4.1570 ss        1 MCV      1.179000
     17 CAP        -1.4110   -1.4980    6.0680 c1        1 MCV      0.408000
     18 CAR        -3.3380   -1.2900    4.5590 c2        1 MCV      0.134000
     19 CAT        -0.3540   -1.3060    2.9160 c3        1 MCV      0.019000
     20 CAU        -4.6170   -0.8300    4.4600 c2        1 MCV     -0.236000
     21 HAA        -9.3350   -1.6500    7.1590 hc        1 MCV      0.119333
     22 HAAA      -10.8890   -0.7320    6.9330 hc        1 MCV      0.119333
     23 HAAB       -9.6350   -0.1240    8.1040 hc        1 MCV      0.119333
     24 HAB        -7.9380   -1.5670    0.4360 ha        1 MCV      0.001500
     25 HABA       -7.2900   -0.5370    4.1750 h4        1 MCV      0.252000
     26 HABB       -8.3870   -1.7210   -0.0470 ha        1 MCV      0.001500
     27 HNAC        3.3900    1.0920   -1.3570 hn        1 MCV      0.280000
     28 HNAA        3.0790    2.4550   -0.4220 hn        1 MCV      0.280000
     29 HNAD       -0.3440   -2.7210    0.5130 hn        1 MCV      0.263000
     30 HNAB        0.4530   -2.4230   -0.9740 hn        1 MCV      0.263000
     31 HAE        -9.6160    1.2290    5.9790 ha        1 MCV      0.241000
     32 HAF        -5.1780   -0.2680    5.2140 h4        1 MCV      0.183000
     33 HAG        -0.0430   -2.3800    3.0750 hc        1 MCV      0.154000
     34 HAH        -3.1300   -0.4530    6.5660 ha        1 MCV      0.198000
     35 HAI        -3.4940   -2.5860    2.8590 hc        1 MCV      0.112500
     36 HAIA       -2.1800   -0.1860    2.5350 hc        1 MCV      0.099000
     37 HAJ        -1.9550   -1.6420    1.4940 hc        1 MCV      0.099000
     38 HAJA       -2.0810   -2.9080    3.9350 hc        1 MCV      0.112500
     39 CAJ        -1.8290   -1.2510    2.5380 c3        1 MCV     -0.121000
     40 OAN        -5.3160   -1.1060    3.2590 os        1 MCV     -0.019000
     41 HAC3        4.2850    1.3830    0.0360 hn        1 MCV      0.280000
     42 HAD3       -7.0240   -1.1670    2.2330 h4        1 MCV      0.252000
     43 OAM        -0.3940   -1.9310    6.4790 o         1 MCV     -0.079000
@<TRIPOS>BOND
     1    1    2 1   
     2    1    6 1   
     3    2    3 1   
     4    2    9 1   
     5    3    4 1   
     6    4    5 1   
     7    4   16 1   
     8    5    6 1   
     9    5   19 1   
    10    6   10 1   
    11    7   11 1   
    12    7   21 1   
    13    7   22 1   
    14    7   23 1   
    15    8   25 1   
    16    8   40 1   
    17    8   42 1   
    18    9   27 1   
    19    9   28 1   
    20    9   41 1   
    21   10   29 1   
    22   10   30 1   
    23   11   12 1   
    24   11   31 1   
    25   13   16 1   
    26   13   19 1   
    27   14   17 1   
    28   14   18 1   
    29   14   34 1   
    30   15   18 1   
    31   15   35 1   
    32   15   38 1   
    33   15   39 1   
    34   17   43 1   
    35   18   20 1   
    36   19   33 1   
    37   19   39 1   
    38   20   32 1   
    39   20   40 1   
    40   24   26 1   
    41   36   39 1   
    42   37   39 1   
@<TRIPOS>SUBSTRUCTURE
     1 MCV         1 TEMP              0 ****  ****    0 ROOT
