@<TRIPOS>MOLECULE
MCV
   41    41     1     0     0
SMALL
bcc


@<TRIPOS>ATOM
      1 N1         -0.1930   -0.5200    0.0360 n2        1 MCV     -0.284000
      2 C2          0.8980   -1.3150    0.3180 c2        1 MCV      0.171000
      3 N3          1.5060   -1.4510    1.5760 n2        1 MCV     -0.203000
      4 C4          0.9690   -0.6970    2.5280 c2        1 MCV     -0.271000
      5 C5         -0.1350    0.1830    2.3590 c2        1 MCV     -0.314000
      6 C6         -0.6930    0.2620    1.0530 c2        1 MCV      0.207000
      7 CAA        -6.8230   -3.0620    7.2630 c3        1 MCV     -0.093000
      8 CAB        -4.9800    0.8580    1.0810 c1        1 MCV     -0.030000
      9 NAC         1.4820   -2.0050   -0.7500 nv        1 MCV     -0.326000
     10 NAD        -1.7020    1.1740    0.7630 nv        1 MCV     -0.311000
     11 CAE        -6.3570   -2.4010    4.6500 c2        1 MCV     -0.478000
     12 CAF        -7.4670   -3.1030    4.7620 c1        1 MCV      0.209000
     13 CAG         0.4830    0.4070    4.5790 c1        1 MCV     -0.730000
     14 CAH        -4.4680   -1.0020    5.4920 c2        1 MCV     -0.200000
     15 CAI        -2.5100   -0.5340    4.0110 c3        1 MCV     -0.132000
     16 SAO         1.5000   -0.5860    4.2360 ss        1 MCV      0.974000
     17 CAP        -5.5390   -1.8080    5.6890 c2        1 MCV      0.125000
     18 CAR        -3.9910   -0.5160    4.2130 c2        1 MCV     -0.006000
     19 CAT        -0.4810    0.9470    3.6230 c3        1 MCV      0.021000
     20 CAU        -4.8310   -0.0460    3.2690 c2        1 MCV     -0.200000
     21 HAA        -6.5340   -4.0450    6.8140 h1        1 MCV      0.099000
     22 HAAA       -6.8520   -3.1390    8.3810 h1        1 MCV      0.099000
     23 HAAB       -7.8250   -2.7200    6.8860 h1        1 MCV      0.099000
     24 HAB        -6.0900    0.8580    1.1570 ha        1 MCV      0.028000
     25 HABA       -5.9750   -2.1440    1.1590 ha        1 MCV      0.001000
     26 HABB       -5.8270   -1.5290    1.4030 ha        1 MCV      0.001000
     27 HNAC        2.0670   -2.7720   -0.5160 hn        1 MCV      0.221000
     28 HNAA        0.9330   -2.1020   -1.5730 hn        1 MCV      0.221000
     29 HNAD       -2.2890    1.4020    1.5360 hn        1 MCV      0.217500
     30 HNAB       -2.1950    1.0500   -0.0940 hn        1 MCV      0.217500
     31 HAE        -5.9670   -2.2470    3.6140 ha        1 MCV      0.213000
     32 HAF        -5.9230    0.0270    3.3470 h4        1 MCV      0.149000
     33 HAG        -0.2480    2.0420    3.4540 hc        1 MCV      0.142000
     34 HAH        -3.8780   -0.6760    6.3680 ha        1 MCV      0.165000
     35 HAI        -2.2940   -0.9600    2.9920 hc        1 MCV      0.102500
     36 HAIA       -2.0260   -1.2030    4.7690 hc        1 MCV      0.102500
     37 HAJ        -1.9430    1.2010    5.1780 hc        1 MCV      0.094000
     38 HAJA       -2.5530    1.5720    3.5180 hc        1 MCV      0.094000
     39 CAJ        -1.9180    0.8590    4.1090 c3        1 MCV     -0.119000
     40 OAM        -5.8300   -2.0750    7.0220 os        1 MCV     -0.212000
     41 OAN        -4.2700    0.4350    2.0570 os        1 MCV     -0.062000
@<TRIPOS>BOND
     1    1    2 1   
     2    1    6 1   
     3    2    3 1   
     4    2    9 1   
     5    3    4 1   
     6    4    5 1   
     7    4   16 1   
     8    5    6 1   
     9    5   19 1   
    10    6   10 1   
    11    7   21 1   
    12    7   22 1   
    13    7   23 1   
    14    7   40 1   
    15    8   24 1   
    16    8   41 1   
    17    9   27 1   
    18    9   28 1   
    19   10   29 1   
    20   10   30 1   
    21   11   12 1   
    22   11   17 1   
    23   11   31 1   
    24   13   16 1   
    25   13   19 1   
    26   14   17 1   
    27   14   18 1   
    28   14   34 1   
    29   15   18 1   
    30   15   35 1   
    31   15   36 1   
    32   15   39 1   
    33   17   40 1   
    34   18   20 1   
    35   19   33 1   
    36   19   39 1   
    37   20   32 1   
    38   20   41 1   
    39   25   26 1   
    40   37   39 1   
    41   38   39 1   
@<TRIPOS>SUBSTRUCTURE
     1 MCV         1 TEMP              0 ****  ****    0 ROOT
