@<TRIPOS>MOLECULE
MCW
   16    16     1     0     0
SMALL
bcc


@<TRIPOS>ATOM
      1 C7          2.4990    1.6850   -0.0020 c3        1 MCW      0.103700
      2 O3          2.0540    0.3290   -0.0010 os        1 MCW     -0.292900
      3 C6          0.7000    0.1300    0.0000 cc        1 MCW      0.077900
      4 C5         -0.2410    1.0990   -0.0000 cd        1 MCW     -0.325200
      5 C3         -1.6710    0.7780    0.0010 c         1 MCW      0.561500
      6 O1         -2.5460    1.6540    0.0000 o         1 MCW     -0.506100
      7 C1         -2.0210   -0.6610    0.0020 cc        1 MCW     -0.171200
      8 C2         -1.0900   -1.6210    0.0030 cd        1 MCW     -0.195200
      9 C4          0.3570   -1.3270    0.0020 c         1 MCW      0.555500
     10 O2          1.2140   -2.2120    0.0030 o         1 MCW     -0.460100
     11 H7          3.6140    1.5880   -0.0030 h1        1 MCW      0.054700
     12 H7A         2.1430    2.2110   -0.9210 h1        1 MCW      0.054700
     13 H7B         2.1440    2.2130    0.9160 h1        1 MCW      0.054700
     14 H5          0.0100    2.1710   -0.0020 ha        1 MCW      0.163000
     15 H1         -3.1000   -0.8910    0.0030 ha        1 MCW      0.161000
     16 H2         -1.3490   -2.6940    0.0040 ha        1 MCW      0.163000
@<TRIPOS>BOND
     1    1    2 1   
     2    1   11 1   
     3    1   12 1   
     4    1   13 1   
     5    2    3 1   
     6    3    4 2   
     7    3    9 1   
     8    4    5 1   
     9    4   14 1   
    10    5    6 2   
    11    5    7 1   
    12    7    8 2   
    13    7   15 1   
    14    8    9 1   
    15    8   16 1   
    16    9   10 2   
@<TRIPOS>SUBSTRUCTURE
     1 MCW         1 TEMP              0 ****  ****    0 ROOT
