@<TRIPOS>MOLECULE
MCY
   32    33     1     0     0
SMALL
bcc


@<TRIPOS>ATOM
      1 N1         -0.6150   -0.3350    0.5980 n         1 MCY     -0.395000
      2 C2         -0.2600    1.0600    0.7370 c         1 MCY      0.841900
      3 N3          0.2340    1.5460    1.9530 nc        1 MCY     -0.727100
      4 C4          0.4180    0.6990    2.9790 cd        1 MCY      0.760500
      5 C5          0.1460   -0.7410    2.8540 cd        1 MCY     -0.362800
      6 C6         -0.3460   -1.1810    1.6490 cc        1 MCY      0.064600
      7 O2         -0.4170    1.8140   -0.2460 o         1 MCY     -0.637500
      8 N4          0.8390    1.1950    4.1930 nh        1 MCY     -0.915800
      9 C1'        -1.0890   -0.9230   -0.6540 c3        1 MCY      0.309500
     10 C2'        -2.0370   -0.0470   -1.4940 c3        1 MCY     -0.132400
     11 C3'        -1.2090    0.3960   -2.7080 c3        1 MCY      0.123100
     12 C4'         0.0730   -0.4560   -2.6680 c3        1 MCY      0.100100
     13 O4'         0.0170   -1.2850   -1.4960 os        1 MCY     -0.436600
     14 O3'        -1.8720    0.1050   -3.9260 oh        1 MCY     -0.594800
     15 C5'         1.3330    0.4070   -2.6070 c3        1 MCY      0.112400
     16 O5'         2.4960   -0.3950   -2.5630 oh        1 MCY     -0.597800
     17 C5A         0.3940   -1.6740    3.9680 c3        1 MCY     -0.033900
     18 H6         -0.5550   -2.2580    1.4890 h4        1 MCY      0.158000
     19 HN41        1.1220    2.1430    4.2660 hn        1 MCY      0.438800
     20 HN42        1.1710    0.5530    4.8690 hn        1 MCY      0.438800
     21 H1'        -1.5830   -1.9100   -0.3950 h2        1 MCY      0.075700
     22 H2'        -2.9040   -0.6710   -1.8260 hc        1 MCY      0.079200
     23 H2''       -2.4240    0.8350   -0.9300 hc        1 MCY      0.079200
     24 H3'        -0.9650    1.4920   -2.6400 h1        1 MCY      0.081700
     25 H4'         0.1220   -1.1690   -3.5360 h1        1 MCY      0.097700
     26 HO3'       -2.5950    0.7390   -4.0040 ho        1 MCY      0.406000
     27 H5'         1.4280    1.0100   -3.5470 h1        1 MCY      0.065700
     28 H5''        1.2920    1.0880   -1.7130 h1        1 MCY      0.065700
     29 HO5'        2.4030   -0.9850   -1.8050 ho        1 MCY      0.407000
     30 H5A1        1.4740   -1.6620    4.2630 hc        1 MCY      0.043033
     31 H5A2       -0.2210   -1.3960    4.8620 hc        1 MCY      0.043033
     32 H5A3        0.1290   -2.7220    3.6800 hc        1 MCY      0.043033
@<TRIPOS>BOND
     1    1    2 1   
     2    1    6 1   
     3    1    9 1   
     4    2    3 1   
     5    2    7 2   
     6    3    4 2   
     7    4    5 1   
     8    4    8 1   
     9    5    6 2   
    10    5   17 1   
    11    6   18 1   
    12    8   19 1   
    13    8   20 1   
    14    9   10 1   
    15    9   13 1   
    16    9   21 1   
    17   10   11 1   
    18   10   22 1   
    19   10   23 1   
    20   11   12 1   
    21   11   14 1   
    22   11   24 1   
    23   12   13 1   
    24   12   15 1   
    25   12   25 1   
    26   14   26 1   
    27   15   16 1   
    28   15   27 1   
    29   15   28 1   
    30   16   29 1   
    31   17   30 1   
    32   17   31 1   
    33   17   32 1   
@<TRIPOS>SUBSTRUCTURE
     1 MCY         1 TEMP              0 ****  ****    0 ROOT
