@<TRIPOS>MOLECULE
MCY
   32    32     1     0     0
SMALL
bcc


@<TRIPOS>ATOM
      1 N1         -0.0030    0.6750    0.5220 n         1 MCY     -0.286000
      2 C2         -0.6860    0.1780    1.7340 c2        1 MCY      0.360000
      3 N3          0.0570   -0.0120    2.9560 n2        1 MCY     -0.300000
      4 C4          1.4070    0.3840    3.0310 c1        1 MCY      0.233000
      5 C5          2.0940    0.8820    1.8280 c1        1 MCY     -0.275000
      6 C6          1.3570    1.0080    0.5710 c2        1 MCY      0.064000
      7 O2         -1.8220   -0.1560    1.6760 o         1 MCY     -0.360000
      8 N4          2.1220    0.2510    4.2560 n3        1 MCY     -0.355000
      9 C1'        -0.7340    0.8630   -0.6710 c3        1 MCY      0.157000
     10 C2'        -0.1300    0.2690   -1.6760 c3        1 MCY     -0.176000
     11 C3'        -1.3030   -0.2570   -2.6570 c3        1 MCY      0.017000
     12 C4'        -2.3070   -0.6700   -1.8540 c3        1 MCY     -0.038000
     13 O4'        -2.1620    0.1570   -0.5660 os        1 MCY     -0.279000
     14 O3'        -1.7590    0.8170   -3.5050 oh        1 MCY     -0.326000
     15 C5'        -2.1670   -2.1480   -1.5430 c3        1 MCY     -0.048000
     16 O5'        -3.0220   -2.9050   -2.4170 oh        1 MCY     -0.323000
     17 C5A         3.5180    1.4220    1.9350 c3        1 MCY     -0.155000
     18 H6          1.8060    1.3350   -0.2260 h4        1 MCY      0.156000
     19 HN41        1.6670    0.0360    5.0390 hn        1 MCY      0.233000
     20 HN42        3.0240    0.3430    4.2670 hn        1 MCY      0.233000
     21 H1'        -0.8420    1.8120   -0.8550 h2        1 MCY      0.114000
     22 H2'         0.4180   -0.5100   -1.3400 hc        1 MCY      0.124500
     23 H2''        0.4680    0.9300   -2.1660 hc        1 MCY      0.124500
     24 H3'        -0.9730   -1.0140   -3.2110 h1        1 MCY      0.126000
     25 H4'        -3.1640   -0.4940   -2.2720 h1        1 MCY      0.107000
     26 HO3'       -1.5280    0.6430   -4.3690 ho        1 MCY      0.209000
     27 H5'        -2.4280   -2.3120   -0.6020 h1        1 MCY      0.112500
     28 H5''       -1.2340   -2.4230   -1.6760 h1        1 MCY      0.112500
     29 HO5'       -3.1470   -3.7180   -2.0790 ho        1 MCY      0.193000
     30 H5A1        3.8220    1.7260    1.0480 hc        1 MCY      0.081667
     31 H5A2        3.5370    2.1750    2.5630 hc        1 MCY      0.081667
     32 H5A3        4.1130    0.7120    2.2600 hc        1 MCY      0.081667
@<TRIPOS>BOND
     1    1    2 1   
     2    1    6 1   
     3    1    9 1   
     4    2    3 1   
     5    2    7 1   
     6    3    4 1   
     7    4    8 1   
     8    5    6 1   
     9    5   17 1   
    10    6   18 1   
    11    8   19 1   
    12    8   20 1   
    13    9   10 1   
    14    9   13 1   
    15    9   21 1   
    16   10   11 1   
    17   10   22 1   
    18   10   23 1   
    19   11   12 1   
    20   11   14 1   
    21   11   24 1   
    22   12   13 1   
    23   12   15 1   
    24   12   25 1   
    25   14   26 1   
    26   15   16 1   
    27   15   27 1   
    28   15   28 1   
    29   16   29 1   
    30   17   30 1   
    31   17   31 1   
    32   17   32 1   
@<TRIPOS>SUBSTRUCTURE
     1 MCY         1 TEMP              0 ****  ****    0 ROOT
