@<TRIPOS>MOLECULE
MCZ
   72    74     1     0     0
SMALL
bcc


@<TRIPOS>ATOM
      1 C1          0.8100   -0.6470   -0.3030 c3        1 MCZ      0.186300
      2 O1          0.3150    0.6770   -0.1160 oh        1 MCZ     -0.588800
      3 C2          2.3190   -0.7150   -0.0930 c3        1 MCZ     -0.146400
      4 C3          2.6770   -0.4840    1.3700 c3        1 MCZ      0.146100
      5 O3          4.0770   -0.6290    1.5790 oh        1 MCZ     -0.599800
      6 C4          1.9990   -1.5220    2.2610 c3        1 MCZ     -0.036200
      7 C5          0.5210   -1.5160    2.0550 ce        1 MCZ     -0.073200
      8 C6         -0.3110   -1.5060    3.1180 cf        1 MCZ     -0.109000
      9 C7         -1.7530   -1.4640    3.0410 cf        1 MCZ     -0.149000
     10 C8         -2.6020   -1.8760    3.9980 c2        1 MCZ     -0.082400
     11 C9         -2.1970   -2.5430    5.2730 c3        1 MCZ     -0.044200
     12 C10         0.0730   -1.5410    0.6640 ce        1 MCZ     -0.070200
     13 C11        -2.9180   -2.0100    6.5010 c3        1 MCZ     -0.073400
     14 C12        -4.4140   -1.8240    6.3140 c3        1 MCZ     -0.067400
     15 C13        -4.7020   -1.0180    5.0580 c3        1 MCZ     -0.041000
     16 C14        -4.0800   -1.7980    3.8650 c3        1 MCZ     -0.035500
     17 C15        -4.7320   -1.1750    2.6380 c3        1 MCZ     -0.076400
     18 C16        -6.1450   -0.8110    3.1000 c3        1 MCZ     -0.070400
     19 C17        -6.1840   -0.9580    4.6330 c3        1 MCZ     -0.059700
     20 C18        -4.1130    0.3780    5.1710 c3        1 MCZ     -0.085100
     21 C19        -0.9220   -2.3250    0.2300 c2        1 MCZ     -0.192000
     22 C20        -7.0180    0.1510    5.2750 c3        1 MCZ      0.150100
     23 C21        -7.1760   -0.0230    6.7760 c3        1 MCZ     -0.118100
     24 O22        -8.3110    0.0630    4.6550 os        1 MCZ     -0.431600
     25 C23        -8.9810    1.3210    4.5850 c3        1 MCZ      0.133400
     26 C24       -10.3930    1.0270    4.1140 c3        1 MCZ     -0.069400
     27 C25       -11.2660    2.2850    4.0910 c3        1 MCZ      0.149800
     28 C26       -10.7310    3.3230    3.1110 c3        1 MCZ     -0.124100
     29 C27       -12.6940    1.9030    3.7120 c3        1 MCZ     -0.124100
     30 O28       -11.2420    2.8120    5.4190 oh        1 MCZ     -0.599800
     31 H1          0.5790   -0.9640   -1.3630 h1        1 MCZ      0.034700
     32 HO1         0.8380    1.2480   -0.6910 ho        1 MCZ      0.396000
     33 H2          2.8230    0.0550   -0.7320 hc        1 MCZ      0.052700
     34 H2A         2.6920   -1.7220   -0.4130 hc        1 MCZ      0.052700
     35 H3          2.3540    0.5520    1.6730 h1        1 MCZ      0.048700
     36 HO3         4.5090    0.0350    1.0290 ho        1 MCZ      0.398000
     37 H4          2.2610   -1.3060    3.3300 hc        1 MCZ      0.062200
     38 H4A         2.4070   -2.5390    2.0150 hc        1 MCZ      0.062200
     39 H6          0.1250   -1.4940    4.1330 ha        1 MCZ      0.124000
     40 H7         -2.1590   -1.0390    2.1020 ha        1 MCZ      0.137000
     41 H9         -2.4210   -3.6410    5.1650 hc        1 MCZ      0.046700
     42 H9A        -1.0920   -2.4490    5.4420 hc        1 MCZ      0.046700
     43 H11        -2.4620   -1.0280    6.7950 hc        1 MCZ      0.040200
     44 H11A       -2.7440   -2.7220    7.3520 hc        1 MCZ      0.040200
     45 H12        -4.8370   -1.3050    7.2130 hc        1 MCZ      0.042200
     46 H12A       -4.9140   -2.8250    6.2390 hc        1 MCZ      0.042200
     47 H14        -4.4570   -2.8640    3.9290 hc        1 MCZ      0.054700
     48 H15        -4.7530   -1.8910    1.7810 hc        1 MCZ      0.045200
     49 H15A       -4.1790   -0.2600    2.3090 hc        1 MCZ      0.045200
     50 H16        -6.3980    0.2370    2.8030 hc        1 MCZ      0.046200
     51 H16A       -6.9070   -1.4830    2.6370 hc        1 MCZ      0.046200
     52 H17        -6.6680   -1.9390    4.8920 hc        1 MCZ      0.060700
     53 H18        -4.4240    1.0020    4.2980 hc        1 MCZ      0.038033
     54 H18A       -4.4620    0.8710    6.1100 hc        1 MCZ      0.038033
     55 H18B       -2.9970    0.3330    5.1850 hc        1 MCZ      0.038033
     56 H19        -1.2510   -2.3320   -0.8170 ha        1 MCZ      0.120000
     57 H19A       -1.4610   -3.0080    0.9000 ha        1 MCZ      0.120000
     58 H20        -6.5600    1.1560    5.0530 h1        1 MCZ      0.041700
     59 H21        -6.2410    0.2880    7.2990 hc        1 MCZ      0.042700
     60 H21A       -8.0210    0.6060    7.1470 hc        1 MCZ      0.042700
     61 H21B       -7.3960   -1.0880    7.0260 hc        1 MCZ      0.042700
     62 H23        -8.9980    1.8170    5.5920 h1        1 MCZ      0.034200
     63 H23A       -8.4390    1.9830    3.8570 h1        1 MCZ      0.034200
     64 H24       -10.8560    0.2740    4.8040 hc        1 MCZ      0.060700
     65 H24A      -10.3680    0.5860    3.0850 hc        1 MCZ      0.060700
     66 H26       -11.4510    4.1710    3.0150 hc        1 MCZ      0.043367
     67 H26A       -9.7560    3.7270    3.4750 hc        1 MCZ      0.043367
     68 H26B      -10.5820    2.8610    2.1070 hc        1 MCZ      0.043367
     69 H27       -12.7070    1.4270    2.7040 hc        1 MCZ      0.043367
     70 H27A      -13.1070    1.1850    4.4600 hc        1 MCZ      0.043367
     71 H27B      -13.3440    2.8100    3.6920 hc        1 MCZ      0.043367
     72 HO28      -11.8190    3.5850    5.4200 ho        1 MCZ      0.398000
@<TRIPOS>BOND
     1    1    2 1   
     2    1    3 1   
     3    1   12 1   
     4    1   31 1   
     5    2   32 1   
     6    3    4 1   
     7    3   33 1   
     8    3   34 1   
     9    4    5 1   
    10    4    6 1   
    11    4   35 1   
    12    5   36 1   
    13    6    7 1   
    14    6   37 1   
    15    6   38 1   
    16    7    8 2   
    17    7   12 1   
    18    8    9 1   
    19    8   39 1   
    20    9   10 2   
    21    9   40 1   
    22   10   11 1   
    23   10   16 1   
    24   11   13 1   
    25   11   41 1   
    26   11   42 1   
    27   12   21 2   
    28   13   14 1   
    29   13   43 1   
    30   13   44 1   
    31   14   15 1   
    32   14   45 1   
    33   14   46 1   
    34   15   16 1   
    35   15   19 1   
    36   15   20 1   
    37   16   17 1   
    38   16   47 1   
    39   17   18 1   
    40   17   48 1   
    41   17   49 1   
    42   18   19 1   
    43   18   50 1   
    44   18   51 1   
    45   19   22 1   
    46   19   52 1   
    47   20   53 1   
    48   20   54 1   
    49   20   55 1   
    50   21   56 1   
    51   21   57 1   
    52   22   23 1   
    53   22   24 1   
    54   22   58 1   
    55   23   59 1   
    56   23   60 1   
    57   23   61 1   
    58   24   25 1   
    59   25   26 1   
    60   25   62 1   
    61   25   63 1   
    62   26   27 1   
    63   26   64 1   
    64   26   65 1   
    65   27   28 1   
    66   27   29 1   
    67   27   30 1   
    68   28   66 1   
    69   28   67 1   
    70   28   68 1   
    71   29   69 1   
    72   29   70 1   
    73   29   71 1   
    74   30   72 1   
@<TRIPOS>SUBSTRUCTURE
     1 MCZ         1 TEMP              0 ****  ****    0 ROOT
