@<TRIPOS>MOLECULE
MCZ
   72    74     1     0     0
SMALL
bcc


@<TRIPOS>ATOM
      1 C1          5.6380    2.3650   -0.8740 c3        1 MCZ      0.183300
      2 O1          4.9540    3.1140    0.1260 oh        1 MCZ     -0.596800
      3 C2          7.0400    2.0910   -0.3410 c3        1 MCZ     -0.069400
      4 C3          6.9960    1.0710    0.7890 c3        1 MCZ      0.145100
      5 O3          8.3450    0.8410    1.1790 oh        1 MCZ     -0.599800
      6 C4          6.3460   -0.2330    0.3290 c3        1 MCZ     -0.075200
      7 C5          4.9900    0.0070   -0.2440 ce        1 MCZ     -0.067200
      8 C6          3.9440   -0.7580    0.1320 cf        1 MCZ     -0.117000
      9 C7          2.5870   -0.5960   -0.3360 cf        1 MCZ     -0.151000
     10 C8          1.6250   -1.5330   -0.2990 c2        1 MCZ     -0.077400
     11 C9          1.8190   -2.9460    0.1480 c3        1 MCZ     -0.044200
     12 C10         4.9100    1.0910   -1.2230 ce        1 MCZ     -0.121200
     13 C11         0.7210   -3.4580    1.0660 c3        1 MCZ     -0.073400
     14 C12        -0.6850   -3.1130    0.6090 c3        1 MCZ     -0.067400
     15 C13        -0.8030   -1.6260    0.3100 c3        1 MCZ     -0.041000
     16 C14         0.2420   -1.3010   -0.7940 c3        1 MCZ     -0.036500
     17 C15        -0.1910    0.0590   -1.3220 c3        1 MCZ     -0.075400
     18 C16        -1.7180    0.0390   -1.2220 c3        1 MCZ     -0.070400
     19 C17        -2.1120   -1.1910   -0.3820 c3        1 MCZ     -0.059700
     20 C18        -0.5540   -0.8070    1.5640 c3        1 MCZ     -0.085100
     21 C19         4.2580    0.9740   -2.3860 c2        1 MCZ     -0.193000
     22 C20        -3.2850   -0.8750    0.5470 c3        1 MCZ      0.150100
     23 C21        -3.7780   -2.0920    1.3080 c3        1 MCZ     -0.118100
     24 O22        -4.3340   -0.4020   -0.3150 os        1 MCZ     -0.431600
     25 C23        -5.2090    0.5220    0.3280 c3        1 MCZ      0.131400
     26 C24        -6.3040    0.8440   -0.6740 c3        1 MCZ     -0.110400
     27 C25        -7.4970    1.5360   -0.0090 c3        1 MCZ      0.149800
     28 C26        -7.0910    2.8590    0.6280 c3        1 MCZ     -0.104100
     29 C27        -8.5870    1.7650   -1.0520 c3        1 MCZ     -0.104100
     30 O28        -8.0090    0.7350    1.0570 oh        1 MCZ     -0.598800
     31 H1          5.7190    3.0140   -1.7960 h1        1 MCZ      0.038700
     32 HO1         4.0140    3.0800   -0.0870 ho        1 MCZ      0.404000
     33 H2          7.6840    1.7080   -1.1730 hc        1 MCZ      0.067200
     34 H2A         7.4860    3.0450    0.0420 hc        1 MCZ      0.067200
     35 H3          6.4180    1.4990    1.6570 h1        1 MCZ      0.053700
     36 HO3         8.3170    0.2310    1.9250 ho        1 MCZ      0.399000
     37 H4          6.9970   -0.7080   -0.4540 hc        1 MCZ      0.054200
     38 H4A         6.2930   -0.9440    1.1960 hc        1 MCZ      0.054200
     39 H6          4.1120   -1.5570    0.8770 ha        1 MCZ      0.124000
     40 H7          2.3490    0.4030   -0.7490 ha        1 MCZ      0.128000
     41 H9          1.8540   -3.5900   -0.7740 hc        1 MCZ      0.048200
     42 H9A         2.8040   -3.0700    0.6710 hc        1 MCZ      0.048200
     43 H11         0.8140   -4.5740    1.1440 hc        1 MCZ      0.041200
     44 H11A        0.8830   -3.0420    2.0960 hc        1 MCZ      0.041200
     45 H12        -0.9390   -3.7000   -0.3120 hc        1 MCZ      0.043200
     46 H12A       -1.4160   -3.4060    1.4070 hc        1 MCZ      0.043200
     47 H14         0.0830   -2.0420   -1.6350 hc        1 MCZ      0.056700
     48 H15         0.2300    0.8870   -0.6980 hc        1 MCZ      0.043200
     49 H15A        0.1490    0.2150   -2.3740 hc        1 MCZ      0.043200
     50 H16        -2.0930    0.9760   -0.7410 hc        1 MCZ      0.047200
     51 H16A       -2.1880   -0.0290   -2.2330 hc        1 MCZ      0.047200
     52 H17        -2.4390   -2.0140   -1.0730 hc        1 MCZ      0.060700
     53 H18         0.5080   -0.9090    1.8950 hc        1 MCZ      0.038033
     54 H18A       -0.7530    0.2750    1.3680 hc        1 MCZ      0.038033
     55 H18B       -1.2190   -1.1520    2.3920 hc        1 MCZ      0.038033
     56 H19         4.2170    1.7900   -3.1210 ha        1 MCZ      0.121000
     57 H19A        3.7380    0.0510   -2.6770 ha        1 MCZ      0.121000
     58 H20        -2.9970   -0.0610    1.2710 h1        1 MCZ      0.042700
     59 H21        -3.0810   -2.3290    2.1460 hc        1 MCZ      0.042700
     60 H21A       -4.7920   -1.8940    1.7330 hc        1 MCZ      0.042700
     61 H21B       -3.8480   -2.9770    0.6320 hc        1 MCZ      0.042700
     62 H23        -5.6460    0.0660    1.2560 h1        1 MCZ      0.034200
     63 H23A       -4.6350    1.4460    0.6080 h1        1 MCZ      0.034200
     64 H24        -5.8970    1.5040   -1.4810 hc        1 MCZ      0.057700
     65 H24A       -6.6470   -0.1080   -1.1570 hc        1 MCZ      0.057700
     66 H26        -6.5960    3.5050   -0.1330 hc        1 MCZ      0.044700
     67 H26A       -7.9930    3.3810    1.0260 hc        1 MCZ      0.044700
     68 H26B       -6.3870    2.6750    1.4750 hc        1 MCZ      0.044700
     69 H27        -8.8720    0.8000   -1.5350 hc        1 MCZ      0.044700
     70 H27A       -9.4920    2.2000   -0.5640 hc        1 MCZ      0.044700
     71 H27B       -8.2230    2.4680   -1.8370 hc        1 MCZ      0.044700
     72 HO28       -8.2740   -0.1070    0.6710 ho        1 MCZ      0.400000
@<TRIPOS>BOND
     1    1    2 1   
     2    1    3 1   
     3    1   12 1   
     4    1   31 1   
     5    2   32 1   
     6    3    4 1   
     7    3   33 1   
     8    3   34 1   
     9    4    5 1   
    10    4    6 1   
    11    4   35 1   
    12    5   36 1   
    13    6    7 1   
    14    6   37 1   
    15    6   38 1   
    16    7    8 2   
    17    7   12 1   
    18    8    9 1   
    19    8   39 1   
    20    9   10 2   
    21    9   40 1   
    22   10   11 1   
    23   10   16 1   
    24   11   13 1   
    25   11   41 1   
    26   11   42 1   
    27   12   21 2   
    28   13   14 1   
    29   13   43 1   
    30   13   44 1   
    31   14   15 1   
    32   14   45 1   
    33   14   46 1   
    34   15   16 1   
    35   15   19 1   
    36   15   20 1   
    37   16   17 1   
    38   16   47 1   
    39   17   18 1   
    40   17   48 1   
    41   17   49 1   
    42   18   19 1   
    43   18   50 1   
    44   18   51 1   
    45   19   22 1   
    46   19   52 1   
    47   20   53 1   
    48   20   54 1   
    49   20   55 1   
    50   21   56 1   
    51   21   57 1   
    52   22   23 1   
    53   22   24 1   
    54   22   58 1   
    55   23   59 1   
    56   23   60 1   
    57   23   61 1   
    58   24   25 1   
    59   25   26 1   
    60   25   62 1   
    61   25   63 1   
    62   26   27 1   
    63   26   64 1   
    64   26   65 1   
    65   27   28 1   
    66   27   29 1   
    67   27   30 1   
    68   28   66 1   
    69   28   67 1   
    70   28   68 1   
    71   29   69 1   
    72   29   70 1   
    73   29   71 1   
    74   30   72 1   
@<TRIPOS>SUBSTRUCTURE
     1 MCZ         1 TEMP              0 ****  ****    0 ROOT
