@<TRIPOS>MOLECULE
MD0
   23    22     1     0     0
SMALL
bcc


@<TRIPOS>ATOM
      1 C           2.0760   -0.1170   -0.2830 c         1 MD0      0.885600
      2 N           0.5650   -1.8640    0.7070 n3        1 MD0     -0.893800
      3 OXT         2.4220   -0.9250   -1.1920 o         1 MD0     -0.842300
      4 CA          0.7580   -0.4310    0.5040 c3        1 MD0      0.022500
      5 CB         -0.4170    0.2430   -0.2360 c3        1 MD0     -0.039700
      6 NE         -4.2510    0.0160   -0.0600 n3        1 MD0     -0.906800
      7 CG         -1.7640   -0.2150    0.3020 c3        1 MD0     -0.105400
      8 CG2        -0.2740    1.7480   -0.1260 c3        1 MD0     -0.098100
      9 O           2.7300    0.9110    0.0470 o         1 MD0     -0.842300
     10 HN          0.4820   -2.2950   -0.1990 hn        1 MD0      0.330800
     11 HNA         1.4100   -2.2240    1.1140 hn        1 MD0      0.330800
     12 HA          0.8420    0.0390    1.5250 h1        1 MD0      0.042700
     13 HB         -0.3470   -0.0470   -1.3220 hc        1 MD0      0.049700
     14 HD         -2.7950    0.4670   -1.4850 h1        1 MD0      0.047200
     15 HDA        -2.9010    1.6010   -0.0700 h1        1 MD0      0.047200
     16 HNE        -4.3330   -0.9410   -0.3490 hn        1 MD0      0.330300
     17 HNEA       -4.4070    0.0470    0.9300 hn        1 MD0      0.330300
     18 HG         -1.8780   -1.3180    0.1320 hc        1 MD0      0.036700
     19 HGA        -1.7960   -0.0430    1.4100 hc        1 MD0      0.036700
     20 HG2         0.7930    2.0430   -0.3010 hc        1 MD0      0.034700
     21 HG2A       -0.9190    2.2580   -0.8810 hc        1 MD0      0.034700
     22 HG2B       -0.5730    2.0990    0.8910 hc        1 MD0      0.034700
     23 CD         -2.9290    0.5150   -0.3670 c3        1 MD0      0.135800
@<TRIPOS>BOND
     1    1    3 1   
     2    1    4 1   
     3    1    9 1   
     4    2    4 1   
     5    2   10 1   
     6    2   11 1   
     7    4    5 1   
     8    4   12 1   
     9    5    7 1   
    10    5    8 1   
    11    5   13 1   
    12    6   16 1   
    13    6   17 1   
    14    6   23 1   
    15    7   18 1   
    16    7   19 1   
    17    7   23 1   
    18    8   20 1   
    19    8   21 1   
    20    8   22 1   
    21   14   23 1   
    22   15   23 1   
@<TRIPOS>SUBSTRUCTURE
     1 MD0         1 TEMP              0 ****  ****    0 ROOT
