@<TRIPOS>MOLECULE
MD0
   23    21     1     0     0
SMALL
bcc


@<TRIPOS>ATOM
      1 C          -1.6580    1.6080   -1.5260 c1        1 MD0      0.772000
      2 N          -1.3970   -0.7830   -1.5240 nh        1 MD0     -0.480100
      3 OXT        -2.6340    1.7330   -0.7360 o         1 MD0     -0.810500
      4 CA         -0.6960    0.4650   -1.3520 c2        1 MD0      0.134200
      5 CB         -0.1030    0.5190    0.0290 c3        1 MD0     -0.115000
      6 CD          0.6110   -1.2510    1.6250 c3        1 MD0      0.135800
      7 NE          1.5330   -2.3250    1.8290 n3        1 MD0     -0.906800
      8 CG          0.8290   -0.6480    0.2250 c3        1 MD0     -0.105400
      9 CG2         0.6850    1.8350    0.2040 c3        1 MD0     -0.098100
     10 O          -1.5620    2.3650   -2.5320 o         1 MD0     -0.810500
     11 HN         -1.0870   -1.2110   -2.2900 hn        1 MD0      0.175700
     12 HNA        -2.2790   -0.6240   -1.6060 hn        1 MD0      0.175700
     13 HA          0.0220    0.5350   -2.0230 h4        1 MD0     -0.047200
     14 HB         -0.8520    0.4750    0.7200 hc        1 MD0      0.049700
     15 HD          0.7570   -0.5630    2.3040 h1        1 MD0      0.047200
     16 HDA        -0.3100   -1.5920    1.6960 h1        1 MD0      0.047200
     17 HNE         2.1040   -2.1160    2.5320 hn        1 MD0      0.330300
     18 HNEA        1.0740   -3.0830    2.0260 hn        1 MD0      0.330300
     19 HG          0.6470   -1.3370   -0.4640 hc        1 MD0      0.036700
     20 HGA         1.7440   -0.3450    0.1450 hc        1 MD0      0.036700
     21 HG2         0.0580    2.5840    0.2930 hc        1 MD0      0.034700
     22 HG2A        1.2440    1.7760    1.0170 hc        1 MD0      0.034700
     23 HG2B        1.2690    1.9820   -0.5900 hc        1 MD0      0.034700
@<TRIPOS>BOND
     1    1    3 2   
     2    1   10 2   
     3    2    4 2   
     4    2   11 1   
     5    2   12 1   
     6    4    5 1   
     7    4   13 1   
     8    5    8 1   
     9    5    9 1   
    10    5   14 1   
    11    6    7 1   
    12    6    8 1   
    13    6   15 1   
    14    6   16 1   
    15    7   17 1   
    16    7   18 1   
    17    8   19 1   
    18    8   20 1   
    19    9   21 1   
    20    9   22 1   
    21    9   23 1   
@<TRIPOS>SUBSTRUCTURE
     1 MD0         1 TEMP              0 ****  ****    0 ROOT
