@<TRIPOS>MOLECULE
MD2
   36    34     1     0     0
SMALL
bcc


@<TRIPOS>ATOM
      1 C1        -53.0210   37.7950  188.9250 c2        1 MD2     -0.127000
      2 C6        -49.0260   35.8530  187.7250 c3        1 MD2     -0.134000
      3 C7        -47.9810   35.5760  186.6540 c3        1 MD2     -0.194000
      4 C11       158.1010 -111.4810 -580.0390 c2        1 MD2      0.138000
      5 C12       158.8060 -112.4900 -579.4360 c2        1 MD2     -0.213000
      6 C2        -51.7480   37.9270  189.1290 c1        1 MD2     -0.094000
      7 C3        -50.4750   38.1220  189.3480 c2        1 MD2     -0.226000
      8 C4        -49.5680   37.0510  189.8430 c3        1 MD2     -0.072000
      9 N5        -48.5060   36.6970  188.8420 ny        1 MD2     -0.040000
     10 C8        -46.8450   34.7110  187.1490 c3        1 MD2     -0.224000
     11 C9        -45.8500   34.3890  186.0230 c3        1 MD2     -0.067000
     12 N10       -46.2730   33.4780  185.0050 n8        1 MD2     -0.346000
     13 C13       159.3460 -113.5320 -580.1220 c1        1 MD2      0.168000
     14 C14       159.8760 -114.5360 -580.7180 c2        1 MD2     -0.162000
     15 HC11      -53.4430   37.5490  187.9370 ha        1 MD2      0.172500
     16 HC1A      -53.7610   37.9280  189.7340 ha        1 MD2      0.172500
     17 HC61      -49.3900   34.8830  188.1700 hx        1 MD2      0.145500
     18 HC62      -49.9060   36.3980  187.2760 hx        1 MD2      0.145500
     19 HC71      -48.5190   35.0550  185.8150 hc        1 MD2      0.124000
     20 HC72      -47.5790   36.5370  186.2340 hc        1 MD2      0.124000
     21 H111      157.6790 -110.6500 -579.4410 ha        1 MD2      0.176000
     22 H112      157.9190 -111.4410 -581.1280 ha        1 MD2      0.176000
     23 HC12      158.9560 -112.4750 -578.3320 ha        1 MD2      0.210000
     24 HC3       -50.0310   39.1280  189.2410 ha        1 MD2      0.166000
     25 HC41      -49.0360   37.4130  190.7730 hx        1 MD2      0.147000
     26 HC42      -50.1340   36.1070  190.0920 hx        1 MD2      0.147000
     27 HN5       -48.1140   37.5610  188.4480 hn        1 MD2      0.245500
     28 HC81      -46.2750   35.2400  187.9570 hc        1 MD2      0.082500
     29 HC82      -47.2480   33.7600  187.5860 hc        1 MD2      0.082500
     30 HC91      -44.9230   33.9600  186.5040 h1        1 MD2      0.106500
     31 HC92      -45.5590   35.3570  185.5230 h1        1 MD2      0.106500
     32 HN10      -46.4200   32.5530  185.3520 hn        1 MD2      0.156500
     33 H141      160.9180 -114.5350 -581.1150 ha        1 MD2      0.254000
     34 H142      159.3430 -115.4980 -580.8920 ha        1 MD2      0.254000
     35 H52       -47.7490   36.1900  189.3160 hn        1 MD2      0.245500
     36 H102      -47.0810   33.7970  184.5120 hn        1 MD2      0.156500
@<TRIPOS>BOND
     1    1    6 1   
     2    1   15 1   
     3    1   16 1   
     4    2    3 1   
     5    2    9 1   
     6    2   17 1   
     7    2   18 1   
     8    3   10 1   
     9    3   19 1   
    10    3   20 1   
    11    4    5 1   
    12    4   21 1   
    13    4   22 1   
    14    5   13 1   
    15    5   23 1   
    16    6    7 1   
    17    7    8 1   
    18    7   24 1   
    19    8    9 1   
    20    8   25 1   
    21    8   26 1   
    22    9   27 1   
    23    9   35 1   
    24   10   11 1   
    25   10   28 1   
    26   10   29 1   
    27   11   12 1   
    28   11   30 1   
    29   11   31 1   
    30   12   32 1   
    31   12   36 1   
    32   13   14 1   
    33   14   33 1   
    34   14   34 1   
@<TRIPOS>SUBSTRUCTURE
     1 MD2         1 TEMP              0 ****  ****    0 ROOT
