@<TRIPOS>MOLECULE
MD2
   34    33     1     0     0
SMALL
bcc


@<TRIPOS>ATOM
      1 C1          1.2950    0.1300    7.4990 c2        1 MD2     -0.239600
      2 C6         -0.4160    0.4280    1.8930 c3        1 MD2      0.163800
      3 C7         -0.3280   -0.4420    0.6390 c3        1 MD2     -0.083400
      4 C11        -0.1470   -0.4780   -4.2610 c3        1 MD2      0.206500
      5 C12        -0.3260    0.3220   -5.5150 c2        1 MD2     -0.197300
      6 C2          0.4680   -0.1010    6.5260 c1        1 MD2     -0.026800
      7 C3         -0.3750   -0.3440    5.5640 c2        1 MD2     -0.197300
      8 C4         -0.4370    0.4710    4.3080 c3        1 MD2      0.206500
      9 N5         -0.5360   -0.3470    3.1120 n3        1 MD2     -0.822200
     10 C8         -0.2680    0.4340   -0.5930 c3        1 MD2     -0.083400
     11 C9         -0.1800   -0.4350   -1.8460 c3        1 MD2      0.163800
     12 N10        -0.0620    0.3400   -3.0660 n3        1 MD2     -0.822200
     13 C13         0.3700    0.1110   -6.5950 c1        1 MD2     -0.026800
     14 C14         1.0520   -0.0900   -7.6810 c2        1 MD2     -0.239600
     15 HC11        1.0610    0.8280    8.3160 ha        1 MD2      0.131500
     16 HC1A        2.2780   -0.3600    7.5640 ha        1 MD2      0.131500
     17 HC61       -1.3320    1.0820    1.8220 h1        1 MD2      0.029950
     18 HC62        0.4810    1.1160    1.9110 h1        1 MD2      0.029950
     19 HC71        0.5850   -1.0910    0.6850 hc        1 MD2      0.048200
     20 HC72       -1.2190   -1.1200    0.5820 hc        1 MD2      0.048200
     21 H111        0.8040   -1.0810   -4.3160 h1        1 MD2      0.038700
     22 H112       -1.0070   -1.2160   -4.2130 h1        1 MD2      0.038700
     23 HC12       -1.1050    1.1050   -5.4940 ha        1 MD2      0.144000
     24 HC3        -1.1130   -1.1610    5.6490 ha        1 MD2      0.144000
     25 HC41       -1.3670    1.1100    4.3530 h1        1 MD2      0.038700
     26 HC42        0.4480    1.1760    4.2690 h1        1 MD2      0.038700
     27 HN5         0.1430   -1.0850    3.1310 hn        1 MD2      0.357800
     28 HC81       -1.1820    1.0840   -0.6390 hc        1 MD2      0.048200
     29 HC82        0.6230    1.1130   -0.5350 hc        1 MD2      0.048200
     30 HC91        0.7370   -1.0870   -1.7760 h1        1 MD2      0.029950
     31 HC92       -1.0760   -1.1250   -1.8630 h1        1 MD2      0.029950
     32 HN10       -0.7430    1.0760   -3.0850 hn        1 MD2      0.357800
     33 H141        1.9850    0.4500   -7.8950 ha        1 MD2      0.131500
     34 H142        0.7350   -0.8110   -8.4490 ha        1 MD2      0.131500
@<TRIPOS>BOND
     1    1    6 2   
     2    1   15 1   
     3    1   16 1   
     4    2    3 1   
     5    2    9 1   
     6    2   17 1   
     7    2   18 1   
     8    3   10 1   
     9    3   19 1   
    10    3   20 1   
    11    4    5 1   
    12    4   12 1   
    13    4   21 1   
    14    4   22 1   
    15    5   13 2   
    16    5   23 1   
    17    6    7 2   
    18    7    8 1   
    19    7   24 1   
    20    8    9 1   
    21    8   25 1   
    22    8   26 1   
    23    9   27 1   
    24   10   11 1   
    25   10   28 1   
    26   10   29 1   
    27   11   12 1   
    28   11   30 1   
    29   11   31 1   
    30   12   32 1   
    31   13   14 2   
    32   14   33 1   
    33   14   34 1   
@<TRIPOS>SUBSTRUCTURE
     1 MD2         1 TEMP              0 ****  ****    0 ROOT
