@<TRIPOS>MOLECULE
MD3
   36    37     1     0     0
SMALL
bcc


@<TRIPOS>ATOM
      1 C16        -5.8520   -0.4520    0.8400 ca        1 MD3     -0.116000
      2 N           3.5950    0.2920   -0.1180 n         1 MD3     -0.537900
      3 O05         6.3800   -0.3310    1.1280 o         1 MD3     -0.825800
      4 SG         -0.0360   -1.1610    1.0820 ss        1 MD3     -0.364200
      5 C01         5.9760   -0.4790   -0.0580 c         1 MD3      0.876600
      6 OXT         0.8600    1.8740   -1.2320 o         1 MD3     -0.851800
      7 C02         4.4620   -0.7770   -0.2470 c         1 MD3      0.543100
      8 O           1.4810    2.2790    0.8660 o         1 MD3     -0.851800
      9 CA          2.1580    0.1520   -0.1110 c3        1 MD3     -0.006300
     10 O03         4.0410   -1.9260   -0.5140 o         1 MD3     -0.688100
     11 C           1.4610    1.5460   -0.1680 c         1 MD3      0.899600
     12 O04         6.6980   -0.4130   -1.0860 o         1 MD3     -0.825800
     13 CB          1.6540   -0.6070    1.1270 c3        1 MD3      0.000700
     14 C06        -0.9820    0.2680    1.5510 c3        1 MD3      0.006000
     15 C07        -2.2020    0.3640    0.7220 ca        1 MD3     -0.014300
     16 C08        -2.1160    0.9660   -0.5680 ca        1 MD3     -0.084000
     17 C09        -3.2360    1.0850   -1.3510 ca        1 MD3     -0.149000
     18 C10        -4.5000    0.6170   -0.8980 ca        1 MD3     -0.041000
     19 C11        -3.4190   -0.0960    1.1810 ca        1 MD3     -0.156000
     20 C12        -4.5900    0.0170    0.3860 ca        1 MD3     -0.037000
     21 C13        -5.6740    0.7300   -1.6900 ca        1 MD3     -0.113000
     22 C14        -6.8820    0.2690   -1.2250 ca        1 MD3     -0.160000
     23 C15        -6.9720   -0.3290    0.0540 ca        1 MD3     -0.158000
     24 H16        -5.9110   -0.9180    1.8350 ha        1 MD3      0.117000
     25 H2          3.9470    1.1260    0.2900 hn        1 MD3      0.309500
     26 HA          1.8640   -0.4360   -1.0280 h1        1 MD3      0.067700
     27 HB2         1.8070    0.0300    2.0310 h1        1 MD3      0.078200
     28 HB3         2.2260   -1.5650    1.2340 h1        1 MD3      0.078200
     29 H06        -1.2460    0.1710    2.6320 h1        1 MD3      0.096200
     30 H06A       -0.3460    1.1930    1.4260 h1        1 MD3      0.096200
     31 H08        -1.1190    1.3290   -0.9160 ha        1 MD3      0.230000
     32 H09        -3.1700    1.5470   -2.3470 ha        1 MD3      0.128000
     33 H11        -3.5010   -0.5640    2.1730 ha        1 MD3      0.121000
     34 H13        -5.5930    1.1950   -2.6830 ha        1 MD3      0.120000
     35 H14        -7.7890    0.3570   -1.8390 ha        1 MD3      0.107000
     36 H15        -7.9470   -0.6930    0.4050 ha        1 MD3      0.107000
@<TRIPOS>BOND
     1    1   20 ar  
     2    1   23 ar  
     3    1   24 1   
     4    2    7 1   
     5    2    9 1   
     6    2   25 1   
     7    3    5 1   
     8    4   13 1   
     9    4   14 1   
    10    5    7 1   
    11    5   12 1   
    12    6   11 1   
    13    7   10 2   
    14    8   11 1   
    15    9   11 1   
    16    9   13 1   
    17    9   26 1   
    18   13   27 1   
    19   13   28 1   
    20   14   15 1   
    21   14   29 1   
    22   14   30 1   
    23   15   16 ar  
    24   15   19 ar  
    25   16   17 ar  
    26   16   31 1   
    27   17   18 ar  
    28   17   32 1   
    29   18   20 ar  
    30   18   21 ar  
    31   19   20 ar  
    32   19   33 1   
    33   21   22 ar  
    34   21   34 1   
    35   22   23 ar  
    36   22   35 1   
    37   23   36 1   
@<TRIPOS>SUBSTRUCTURE
     1 MD3         1 TEMP              0 ****  ****    0 ROOT
