@<TRIPOS>MOLECULE
MD4
   43    46     1     0     0
SMALL
bcc


@<TRIPOS>ATOM
      1 C21        -0.0320   -0.0480    0.0340 c3        1 MD4      0.093100
      2 N16         1.4560   -0.0850    0.0820 n4        1 MD4     -0.620800
      3 C20         1.9000   -1.3820   -0.4770 c3        1 MD4      0.093100
      4 C15         1.9600    0.1890    1.5050 c3        1 MD4      0.147500
      5 C14         1.6680    1.6940    1.7240 c3        1 MD4     -0.106400
      6 C13         1.7290    2.3170    0.3270 c3        1 MD4     -0.106400
      7 C17         3.4650   -0.0620    1.5930 c3        1 MD4     -0.124400
      8 C19         4.2530    0.8400    0.6170 c3        1 MD4      0.070000
      9 C18         3.5670    0.9870   -0.7600 c3        1 MD4     -0.124400
     10 C12         2.0520    1.1390   -0.6240 c3        1 MD4      0.147500
     11 N10         5.6330    0.4120    0.4860 na        1 MD4      0.012400
     12 N9          6.7090    1.1610    0.8660 nc        1 MD4     -0.134800
     13 N8          7.7750    0.5310    0.6320 nd        1 MD4     -0.317000
     14 C11         6.0800   -0.8140   -0.0400 cc        1 MD4     -0.231600
     15 C7          7.4820   -0.7420    0.0520 cd        1 MD4      0.356800
     16 C5          8.4730   -1.7170   -0.3390 ca        1 MD4     -0.090500
     17 C6          8.0750   -2.9430   -0.8980 ca        1 MD4     -0.226300
     18 C1          9.0660   -3.8680   -1.2680 ca        1 MD4      0.400200
     19 C4          9.8450   -1.4740   -0.1750 ca        1 MD4     -0.226300
     20 C3         10.7550   -2.4690   -0.5790 ca        1 MD4      0.400200
     21 N2         10.3860   -3.6470   -1.1160 nb        1 MD4     -0.642000
     22 H212       -0.3680   -0.1510   -1.0320 hx        1 MD4      0.099867
     23 H213       -0.4420   -0.8980    0.6420 hx        1 MD4      0.099867
     24 H211       -0.4140    0.9210    0.4490 hx        1 MD4      0.099867
     25 H201        1.5370   -1.4660   -1.5370 hx        1 MD4      0.099867
     26 H202        1.4630   -2.2130    0.1400 hx        1 MD4      0.099867
     27 H203        3.0180   -1.4730   -0.4690 hx        1 MD4      0.099867
     28 H15         1.4010   -0.4690    2.2240 hx        1 MD4      0.115700
     29 H141        2.4300    2.1390    2.4120 hc        1 MD4      0.094200
     30 H142        0.6640    1.8400    2.1950 hc        1 MD4      0.094200
     31 H132        2.5240    3.1010    0.2550 hc        1 MD4      0.094200
     32 H131        0.7580    2.7970    0.0490 hc        1 MD4      0.094200
     33 H172        3.6970   -1.1480    1.4340 hc        1 MD4      0.094700
     34 H171        3.7860    0.1780    2.6450 hc        1 MD4      0.094700
     35 H19         4.2710    1.8790    1.0810 h1        1 MD4      0.104700
     36 H182        3.8230    0.1360   -1.4440 hc        1 MD4      0.094700
     37 H181        3.9560    1.9190   -1.2580 hc        1 MD4      0.094700
     38 H12         1.5690    1.2510   -1.6320 hx        1 MD4      0.115700
     39 H11         5.4140   -1.5870   -0.4130 h4        1 MD4      0.181000
     40 H6          7.0160   -3.1820   -1.0470 ha        1 MD4      0.147500
     41 H1          8.7910   -4.8430   -1.7100 h4        1 MD4      0.033600
     42 H4         10.2150   -0.5330    0.2560 ha        1 MD4      0.147500
     43 H3         11.8440   -2.3120   -0.4660 h4        1 MD4      0.033600
@<TRIPOS>BOND
     1    1    2 1   
     2    1   22 1   
     3    1   23 1   
     4    1   24 1   
     5    2    3 1   
     6    2    4 1   
     7    2   10 1   
     8    3   25 1   
     9    3   26 1   
    10    3   27 1   
    11    4    5 1   
    12    4    7 1   
    13    4   28 1   
    14    5    6 1   
    15    5   29 1   
    16    5   30 1   
    17    6   10 1   
    18    6   31 1   
    19    6   32 1   
    20    7    8 1   
    21    7   33 1   
    22    7   34 1   
    23    8    9 1   
    24    8   11 1   
    25    8   35 1   
    26    9   10 1   
    27    9   36 1   
    28    9   37 1   
    29   10   38 1   
    30   11   12 1   
    31   11   14 1   
    32   12   13 2   
    33   13   15 1   
    34   14   15 2   
    35   14   39 1   
    36   15   16 1   
    37   16   17 ar  
    38   16   19 ar  
    39   17   18 ar  
    40   17   40 1   
    41   18   21 ar  
    42   18   41 1   
    43   19   20 ar  
    44   19   42 1   
    45   20   21 ar  
    46   20   43 1   
@<TRIPOS>SUBSTRUCTURE
     1 MD4         1 TEMP              0 ****  ****    0 ROOT
