@<TRIPOS>MOLECULE
MD4
   43    46     1     0     0
SMALL
bcc


@<TRIPOS>ATOM
      1 C21        -0.0320   -0.0460    0.0280 c3        1 MD4      0.093100
      2 N16         1.4570   -0.0840    0.0790 n4        1 MD4     -0.620800
      3 C20         1.9010   -1.3800   -0.4820 c3        1 MD4      0.093100
      4 C15         1.9580    0.1880    1.5020 c3        1 MD4      0.147500
      5 C14         1.6660    1.6920    1.7240 c3        1 MD4     -0.106400
      6 C13         1.7290    2.3180    0.3280 c3        1 MD4     -0.106400
      7 C17         3.4630   -0.0650    1.5920 c3        1 MD4     -0.124400
      8 C19         4.2530    0.8390    0.6190 c3        1 MD4      0.070000
      9 C18         3.5690    0.9890   -0.7590 c3        1 MD4     -0.124400
     10 C12         2.0540    1.1410   -0.6250 c3        1 MD4      0.147500
     11 N10         5.6330    0.4120    0.4890 na        1 MD4      0.012400
     12 N9          6.7090    1.1600    0.8700 nc        1 MD4     -0.134800
     13 N8          7.7750    0.5300    0.6360 nd        1 MD4     -0.317000
     14 C11         6.0800   -0.8150   -0.0380 cc        1 MD4     -0.231600
     15 C7          7.4820   -0.7430    0.0550 cd        1 MD4      0.356800
     16 C5          8.4740   -1.7180   -0.3360 ca        1 MD4     -0.090500
     17 C6          8.0750   -2.9450   -0.8930 ca        1 MD4     -0.226300
     18 C1          9.0660   -3.8700   -1.2630 ca        1 MD4      0.400200
     19 C4          9.8450   -1.4730   -0.1740 ca        1 MD4     -0.226300
     20 C3         10.7550   -2.4680   -0.5780 ca        1 MD4      0.400200
     21 N2         10.3860   -3.6470   -1.1130 nb        1 MD4     -0.642000
     22 H212       -0.4140    0.9220    0.4450 hx        1 MD4      0.099867
     23 H213       -0.3670   -0.1480   -1.0380 hx        1 MD4      0.099867
     24 H211       -0.4420   -0.8980    0.6340 hx        1 MD4      0.099867
     25 H201        1.4630   -2.2120    0.1320 hx        1 MD4      0.099867
     26 H202        1.5380   -1.4620   -1.5430 hx        1 MD4      0.099867
     27 H203        3.0180   -1.4710   -0.4730 hx        1 MD4      0.099867
     28 H15         1.3980   -0.4720    2.2190 hx        1 MD4      0.115700
     29 H141        2.4270    2.1360    2.4130 hc        1 MD4      0.094200
     30 H142        0.6620    1.8380    2.1940 hc        1 MD4      0.094200
     31 H132        2.5250    3.1020    0.2580 hc        1 MD4      0.094200
     32 H131        0.7590    2.7990    0.0500 hc        1 MD4      0.094200
     33 H172        3.7830    0.1740    2.6450 hc        1 MD4      0.094700
     34 H171        3.6950   -1.1500    1.4310 hc        1 MD4      0.094700
     35 H19         4.2710    1.8770    1.0850 h1        1 MD4      0.104700
     36 H182        3.9590    1.9220   -1.2550 hc        1 MD4      0.094700
     37 H181        3.8250    0.1390   -1.4440 hc        1 MD4      0.094700
     38 H12         1.5720    1.2550   -1.6330 hx        1 MD4      0.115700
     39 H11         5.4140   -1.5870   -0.4130 h4        1 MD4      0.181000
     40 H6          7.0160   -3.1850   -1.0400 ha        1 MD4      0.147500
     41 H1          8.7910   -4.8450   -1.7040 h4        1 MD4      0.033600
     42 H4         10.2150   -0.5310    0.2560 ha        1 MD4      0.147500
     43 H3         11.8450   -2.3110   -0.4660 h4        1 MD4      0.033600
@<TRIPOS>BOND
     1    1    2 1   
     2    1   22 1   
     3    1   23 1   
     4    1   24 1   
     5    2    3 1   
     6    2    4 1   
     7    2   10 1   
     8    3   25 1   
     9    3   26 1   
    10    3   27 1   
    11    4    5 1   
    12    4    7 1   
    13    4   28 1   
    14    5    6 1   
    15    5   29 1   
    16    5   30 1   
    17    6   10 1   
    18    6   31 1   
    19    6   32 1   
    20    7    8 1   
    21    7   33 1   
    22    7   34 1   
    23    8    9 1   
    24    8   11 1   
    25    8   35 1   
    26    9   10 1   
    27    9   36 1   
    28    9   37 1   
    29   10   38 1   
    30   11   12 1   
    31   11   14 1   
    32   12   13 2   
    33   13   15 1   
    34   14   15 2   
    35   14   39 1   
    36   15   16 1   
    37   16   17 ar  
    38   16   19 ar  
    39   17   18 ar  
    40   17   40 1   
    41   18   21 ar  
    42   18   41 1   
    43   19   20 ar  
    44   19   42 1   
    45   20   21 ar  
    46   20   43 1   
@<TRIPOS>SUBSTRUCTURE
     1 MD4         1 TEMP              0 ****  ****    0 ROOT
