@<TRIPOS>MOLECULE
MD5
   32    32     1     0     0
SMALL
bcc


@<TRIPOS>ATOM
      1 C           3.7880    2.1270   -0.3450 c         1 MD5      0.907600
      2 N           2.4660    0.2470    0.6910 n         1 MD5     -0.547900
      3 OXT         4.0400    2.7100   -1.4370 o         1 MD5     -0.843300
      4 CA          2.4430    1.3100   -0.2810 c3        1 MD5     -0.034300
      5 CB          1.3690    2.3640    0.0090 c3        1 MD5      0.033700
      6 CAA         1.9210   -1.9790    1.6830 c         1 MD5      0.873600
      7 CAB         1.9880   -1.0240    0.4590 c         1 MD5      0.533100
      8 OAH         1.5060   -1.3710   -0.6450 o         1 MD5     -0.687100
      9 OAI         2.9590   -2.5750    2.0570 o         1 MD5     -0.826800
     10 OAJ         0.7780   -2.0870    2.2140 o         1 MD5     -0.826800
     11 SAL        -0.3440    1.9740   -0.2830 ss        1 MD5     -0.393200
     12 CAM        -0.8660    0.9650    1.0840 c3        1 MD5      0.036000
     13 CAN        -1.9160    0.0300    0.6210 ca        1 MD5     -0.053300
     14 CAO        -1.5890   -1.3150    0.3780 ca        1 MD5     -0.018000
     15 CAP        -2.5730   -2.2050   -0.0560 ca        1 MD5     -0.153000
     16 CAQ        -3.8850   -1.7860   -0.2440 ca        1 MD5     -0.089000
     17 CAR        -4.2120   -0.4420    0.0140 ca        1 MD5     -0.206200
     18 CAS        -3.2300    0.4700    0.4420 ca        1 MD5     -0.072000
     19 NAT        -5.6050    0.0120   -0.1630 no        1 MD5      0.316200
     20 OAU        -6.4390   -0.7640   -0.5650 o         1 MD5     -0.251000
     21 OAV        -5.9070    1.1490    0.1000 o         1 MD5     -0.251000
     22 O           4.5140    2.1950    0.6850 o         1 MD5     -0.843300
     23 H2          3.1070    0.3770    1.4420 hn        1 MD5      0.324500
     24 HA          2.2530    0.8720   -1.3030 h1        1 MD5      0.079700
     25 HB2         1.4790    2.7440    1.0520 h1        1 MD5      0.068200
     26 HB3         1.5380    3.2090   -0.7100 h1        1 MD5      0.068200
     27 HAM        -0.0020    0.3880    1.5120 h1        1 MD5      0.088700
     28 HAMA       -1.2660    1.6350    1.8850 h1        1 MD5      0.088700
     29 HAO        -0.5400   -1.6650    0.5490 ha        1 MD5      0.240000
     30 HAP        -2.3020   -3.2540   -0.2490 ha        1 MD5      0.142000
     31 HAQ        -4.6590   -2.4900   -0.5850 ha        1 MD5      0.141000
     32 HAS        -3.4930    1.5240    0.6300 ha        1 MD5      0.157000
@<TRIPOS>BOND
     1    1    3 1   
     2    1    4 1   
     3    1   22 1   
     4    2    4 1   
     5    2    7 1   
     6    2   23 1   
     7    4    5 1   
     8    4   24 1   
     9    5   11 1   
    10    5   25 1   
    11    5   26 1   
    12    6    7 1   
    13    6    9 1   
    14    6   10 1   
    15    7    8 2   
    16   11   12 1   
    17   12   13 1   
    18   12   27 1   
    19   12   28 1   
    20   13   14 ar  
    21   13   18 ar  
    22   14   15 ar  
    23   14   29 1   
    24   15   16 ar  
    25   15   30 1   
    26   16   17 ar  
    27   16   31 1   
    28   17   18 ar  
    29   17   19 1   
    30   18   32 1   
    31   19   20 1   
    32   19   21 1   
@<TRIPOS>SUBSTRUCTURE
     1 MD5         1 TEMP              0 ****  ****    0 ROOT
