@<TRIPOS>MOLECULE
MD6
   21    21     1     0     0
SMALL
bcc


@<TRIPOS>ATOM
      1 C           3.5940    0.1830   -0.3950 c         1 MD6      0.912600
      2 N           1.1530   -0.0360    0.1250 n         1 MD6     -0.477900
      3 O           3.3330    1.3430   -0.8220 o         1 MD6     -0.830800
      4 CA          2.4400   -0.6780    0.2060 c3        1 MD6     -0.055000
      5 N2         -1.3430    1.4200    0.4930 nb        1 MD6     -0.612000
      6 OXT         4.7290   -0.3610   -0.4050 o         1 MD6     -0.830800
      7 C3         -0.0030   -0.6590    0.4410 c         1 MD6      0.550600
      8 O3         -0.0540   -1.8520    0.8520 o         1 MD6     -0.697100
      9 C4         -1.3100    0.0870    0.2660 ca        1 MD6      0.295800
     10 C5         -2.5100    2.0660    0.3430 ca        1 MD6      0.344200
     11 C6         -3.7080    1.4330   -0.0430 ca        1 MD6     -0.212300
     12 C7         -3.6920    0.0640   -0.2730 ca        1 MD6     -0.154000
     13 C8         -2.4760   -0.6350   -0.1100 ca        1 MD6      0.073800
     14 H2          1.1710    0.9140   -0.1920 hn        1 MD6      0.354500
     15 HA2         2.4020   -1.6610   -0.3390 h1        1 MD6      0.042200
     16 HA3         2.6830   -0.8930    1.2830 h1        1 MD6      0.042200
     17 HO4        -1.6840   -2.3920   -0.1080 ho        1 MD6      0.473000
     18 H5         -2.4800    3.1510    0.5410 h4        1 MD6      0.018100
     19 H6         -4.6310    2.0150   -0.1570 ha        1 MD6      0.132000
     20 H7         -4.5940   -0.4850   -0.5730 ha        1 MD6      0.145000
     21 O4         -2.5340   -1.9770   -0.3500 oh        1 MD6     -0.515100
@<TRIPOS>BOND
     1    1    3 1   
     2    1    4 1   
     3    1    6 1   
     4    2    4 1   
     5    2    7 1   
     6    2   14 1   
     7    4   15 1   
     8    4   16 1   
     9    5    9 ar  
    10    5   10 ar  
    11    7    8 2   
    12    7    9 1   
    13    9   13 ar  
    14   10   11 ar  
    15   10   18 1   
    16   11   12 ar  
    17   11   19 1   
    18   12   13 ar  
    19   12   20 1   
    20   13   21 1   
    21   17   21 1   
@<TRIPOS>SUBSTRUCTURE
     1 MD6         1 TEMP              0 ****  ****    0 ROOT
