@<TRIPOS>MOLECULE
MD7
   39    41     1     0     0
SMALL
bcc


@<TRIPOS>ATOM
      1 CAN        -0.1900    0.2830   -0.1670 cx        1 MD7     -0.096900
      2 CAO         1.2800    0.4620    0.0270 cx        1 MD7     -0.096900
      3 CAW         0.4020    0.1520    1.2200 cx        1 MD7     -0.148500
      4 CAS         0.4800   -1.1770    1.8600 c2        1 MD7      0.303900
      5 OAC         0.7050   -2.1580    0.9580 oh        1 MD7     -0.493100
      6 CAR         0.3340   -1.3550    3.2170 ce        1 MD7     -0.250900
      7 CAD         0.1060   -0.2300    4.0470 cg        1 MD7      0.210500
      8 NAA        -0.0810    0.6870    4.7400 n1        1 MD7     -0.382800
      9 CAQ         0.4130   -2.6920    3.8570 c         1 MD7      0.712300
     10 OAB         0.6690   -3.7100    3.1700 o         1 MD7     -0.650100
     11 NAP         0.2020   -2.7680    5.2220 ns        1 MD7     -0.451100
     12 CAT         0.2080   -3.9280    6.0180 ca        1 MD7      0.067600
     13 CAK        -0.2890   -3.8290    7.3420 ca        1 MD7     -0.163500
     14 CAM        -0.2880   -4.9360    8.1790 ca        1 MD7     -0.095500
     15 CAJ         0.7010   -5.1730    5.5780 ca        1 MD7     -0.163500
     16 CAL         0.6870   -6.2730    6.4300 ca        1 MD7     -0.095500
     17 CAV         0.1960   -6.1740    7.7370 cp        1 MD7     -0.060000
     18 CAU         0.1890   -7.3360    8.6230 cp        1 MD7     -0.032000
     19 CAH        -0.1480   -8.6040    8.1280 ca        1 MD7     -0.120500
     20 CAF        -0.1560   -9.7110    8.9740 ca        1 MD7     -0.130000
     21 CAE         0.1740   -9.5660   10.3210 ca        1 MD7     -0.129000
     22 CAG         0.5110   -8.3090   10.8210 ca        1 MD7     -0.130000
     23 CAI         0.5180   -7.1990    9.9790 ca        1 MD7     -0.120500
     24 HAN        -0.8260    1.1610   -0.3770 hc        1 MD7      0.086200
     25 HANA       -0.5530   -0.6320   -0.6710 hc        1 MD7      0.086200
     26 HAO         1.9660   -0.3250   -0.3380 hc        1 MD7      0.086200
     27 HAOA        1.7240    1.4720   -0.0400 hc        1 MD7      0.086200
     28 HAW         0.2060    0.9700    1.9430 hc        1 MD7      0.111700
     29 HOAC        0.7600   -3.0400    1.3760 ho        1 MD7      0.485000
     30 HNAP       -0.0440   -1.9310    5.7050 hn        1 MD7      0.327500
     31 HAK        -0.6810   -2.8730    7.7220 ha        1 MD7      0.152500
     32 HAM        -0.6840   -4.8390    9.2020 ha        1 MD7      0.138000
     33 HAJ         1.0990   -5.2940    4.5570 ha        1 MD7      0.152500
     34 HAL         1.0800   -7.2360    6.0670 ha        1 MD7      0.138000
     35 HAH        -0.4150   -8.7220    7.0670 ha        1 MD7      0.134500
     36 HAF        -0.4240  -10.7010    8.5770 ha        1 MD7      0.131500
     37 HAE         0.1680  -10.4410   10.9880 ha        1 MD7      0.131000
     38 HAG         0.7740   -8.1910   11.8830 ha        1 MD7      0.131500
     39 HAI         0.7920   -6.2090   10.3760 ha        1 MD7      0.134500
@<TRIPOS>BOND
     1    1    2 1   
     2    1    3 1   
     3    1   24 1   
     4    1   25 1   
     5    2    3 1   
     6    2   26 1   
     7    2   27 1   
     8    3    4 1   
     9    3   28 1   
    10    4    5 1   
    11    4    6 2   
    12    5   29 1   
    13    6    7 1   
    14    6    9 1   
    15    7    8 3   
    16    9   10 2   
    17    9   11 1   
    18   11   12 1   
    19   11   30 1   
    20   12   13 ar  
    21   12   15 ar  
    22   13   14 ar  
    23   13   31 1   
    24   14   17 ar  
    25   14   32 1   
    26   15   16 ar  
    27   15   33 1   
    28   16   17 ar  
    29   16   34 1   
    30   17   18 1   
    31   18   19 ar  
    32   18   23 ar  
    33   19   20 ar  
    34   19   35 1   
    35   20   21 ar  
    36   20   36 1   
    37   21   22 ar  
    38   21   37 1   
    39   22   23 ar  
    40   22   38 1   
    41   23   39 1   
@<TRIPOS>SUBSTRUCTURE
     1 MD7         1 TEMP              0 ****  ****    0 ROOT
