@<TRIPOS>MOLECULE
MD7
   39    41     1     0     0
SMALL
bcc


@<TRIPOS>ATOM
      1 CAN        -6.9300   -0.7780    0.8660 cx        1 MD7     -0.096900
      2 CAO        -6.9470   -0.9900   -0.6120 cx        1 MD7     -0.096900
      3 CAW        -5.8760   -0.1160    0.0040 cx        1 MD7     -0.148500
      4 CAS        -4.4810   -0.5970    0.0550 c2        1 MD7      0.303900
      5 OAC        -4.4150   -1.9320    0.2570 oh        1 MD7     -0.493100
      6 CAR        -3.4020    0.2460   -0.0880 ce        1 MD7     -0.250900
      7 CAD        -3.6210    1.6290   -0.3000 cg        1 MD7      0.210500
      8 NAA        -3.7880    2.7680   -0.4760 n1        1 MD7     -0.382800
      9 CAQ        -2.0010   -0.2400   -0.0360 c         1 MD7      0.712300
     10 OAB        -1.7580   -1.4650    0.0920 o         1 MD7     -0.650100
     11 NAP        -0.9880    0.6970   -0.1360 n         1 MD7     -0.451100
     12 CAT         0.3980    0.4560   -0.0880 ca        1 MD7      0.067600
     13 CAK         1.2620    1.5700    0.0600 ca        1 MD7     -0.163500
     14 CAM         2.6380    1.3960    0.0940 ca        1 MD7     -0.095500
     15 CAJ         0.9710   -0.8270   -0.1990 ca        1 MD7     -0.163500
     16 CAL         2.3530   -0.9820   -0.1560 ca        1 MD7     -0.095500
     17 CAV         3.2050    0.1180   -0.0110 cp        1 MD7     -0.060000
     18 CAU         4.6550   -0.0580    0.0310 cp        1 MD7     -0.033000
     19 CAH         5.2190   -1.1380    0.7260 ca        1 MD7     -0.120500
     20 CAF         6.6010   -1.3040    0.7650 ca        1 MD7     -0.130000
     21 CAE         7.4360   -0.3980    0.1120 ca        1 MD7     -0.129000
     22 CAG         6.8830    0.6780   -0.5820 ca        1 MD7     -0.130000
     23 CAI         5.5010    0.8490   -0.6230 ca        1 MD7     -0.120500
     24 HAN        -7.6930   -0.1320    1.3360 hc        1 MD7      0.086200
     25 HANA       -6.6220   -1.6140    1.5210 hc        1 MD7      0.086200
     26 HAO        -6.6530   -1.9790   -1.0120 hc        1 MD7      0.086200
     27 HAOA       -7.7240   -0.5010   -1.2270 hc        1 MD7      0.086200
     28 HAW        -5.9520    0.9800   -0.1530 hc        1 MD7      0.111700
     29 HOAC       -3.4930   -2.2560    0.2900 ho        1 MD7      0.485000
     30 HNAP       -1.2430    1.6590   -0.1880 hn        1 MD7      0.327500
     31 HAK         0.8510    2.5880    0.1500 ha        1 MD7      0.152500
     32 HAM         3.2910    2.2740    0.2150 ha        1 MD7      0.138000
     33 HAJ         0.3370   -1.7200   -0.3180 ha        1 MD7      0.152500
     34 HAL         2.7800   -1.9930   -0.2480 ha        1 MD7      0.138000
     35 HAH         4.5640   -1.8520    1.2480 ha        1 MD7      0.134500
     36 HAF         7.0350   -2.1530    1.3150 ha        1 MD7      0.131500
     37 HAE         8.5270   -0.5310    0.1430 ha        1 MD7      0.131000
     38 HAG         7.5380    1.3930   -1.1010 ha        1 MD7      0.131500
     39 HAI         5.0690    1.6960   -1.1770 ha        1 MD7      0.134500
@<TRIPOS>BOND
     1    1    2 1   
     2    1    3 1   
     3    1   24 1   
     4    1   25 1   
     5    2    3 1   
     6    2   26 1   
     7    2   27 1   
     8    3    4 1   
     9    3   28 1   
    10    4    5 1   
    11    4    6 2   
    12    5   29 1   
    13    6    7 1   
    14    6    9 1   
    15    7    8 3   
    16    9   10 2   
    17    9   11 1   
    18   11   12 1   
    19   11   30 1   
    20   12   13 ar  
    21   12   15 ar  
    22   13   14 ar  
    23   13   31 1   
    24   14   17 ar  
    25   14   32 1   
    26   15   16 ar  
    27   15   33 1   
    28   16   17 ar  
    29   16   34 1   
    30   17   18 1   
    31   18   19 ar  
    32   18   23 ar  
    33   19   20 ar  
    34   19   35 1   
    35   20   21 ar  
    36   20   36 1   
    37   21   22 ar  
    38   21   37 1   
    39   22   23 ar  
    40   22   38 1   
    41   23   39 1   
@<TRIPOS>SUBSTRUCTURE
     1 MD7         1 TEMP              0 ****  ****    0 ROOT
