@<TRIPOS>MOLECULE
MD7
   40    42     1     0     0
SMALL
bcc


@<TRIPOS>ATOM
      1 CAN         0.7160   -0.0670   -0.2330 cx        1 MD7     -0.091400
      2 CAO         1.8680    0.5200    0.5090 cx        1 MD7     -0.091400
      3 CAW         0.6640    0.0140    1.2820 cx        1 MD7     -0.210500
      4 CAS         0.7600   -1.2010    2.0940 c2        1 MD7      0.347900
      5 OAC         1.5360   -2.2370    1.7070 oh        1 MD7     -0.440100
      6 CAR         0.0740   -1.3660    3.2910 ce        1 MD7     -0.238900
      7 CAD        -0.7670   -0.3460    3.7900 cg        1 MD7      0.159500
      8 NAA        -1.4620    0.4890    4.2090 n1        1 MD7     -0.303800
      9 CAQ         0.2130   -2.5990    4.0480 c         1 MD7      0.574300
     10 OAB         0.8700   -3.5920    3.7770 o         1 MD7     -0.401100
     11 NAP        -0.5900   -2.6250    5.3500 n4        1 MD7     -0.533200
     12 CAT        -0.3910   -3.8190    6.1690 ca        1 MD7     -0.063400
     13 CAK         0.6040   -3.8250    7.1640 ca        1 MD7     -0.089000
     14 CAM         0.7730   -4.9570    7.9520 ca        1 MD7     -0.110000
     15 CAJ        -1.1990   -4.9520    5.9650 ca        1 MD7     -0.089000
     16 CAL        -1.0140   -6.0750    6.7630 ca        1 MD7     -0.110000
     17 CAV        -0.0290   -6.0950    7.7640 cp        1 MD7      0.050000
     18 CAU         0.1580   -7.2790    8.5960 cp        1 MD7     -0.091000
     19 CAH         0.0530   -8.5610    8.0360 ca        1 MD7     -0.102000
     20 CAF         0.2350   -9.6900    8.8320 ca        1 MD7     -0.125000
     21 CAE         0.5170   -9.5520   10.1920 ca        1 MD7     -0.096000
     22 CAG         0.6190   -8.2790   10.7550 ca        1 MD7     -0.125000
     23 CAI         0.4450   -7.1460    9.9630 ca        1 MD7     -0.102000
     24 HAN         0.0370    0.5970   -0.8030 hc        1 MD7      0.101200
     25 HANA        0.8200   -1.0540   -0.7200 hc        1 MD7      0.101200
     26 HAO         2.8230   -0.0350    0.5690 hc        1 MD7      0.101200
     27 HAOA        2.0350    1.6140    0.4830 hc        1 MD7      0.101200
     28 HAW        -0.0110    0.7790    1.7250 hc        1 MD7      0.135700
     29 HOAC        1.9780   -2.0330    0.8600 ho        1 MD7      0.468000
     30 HNAP       -0.3290   -1.7980    5.9000 hn        1 MD7      0.460800
     31 HAK         1.2540   -2.9500    7.3290 ha        1 MD7      0.150500
     32 HAM         1.5560   -4.9630    8.7290 ha        1 MD7      0.169000
     33 HAJ        -1.9770   -4.9660    5.1840 ha        1 MD7      0.150500
     34 HAL        -1.6540   -6.9590    6.6090 ha        1 MD7      0.169000
     35 HAH        -0.1610   -8.6780    6.9630 ha        1 MD7      0.135500
     36 HAF         0.1570  -10.6930    8.3850 ha        1 MD7      0.148000
     37 HAE         0.6570  -10.4450   10.8190 ha        1 MD7      0.149000
     38 HAG         0.8380   -8.1680   11.8280 ha        1 MD7      0.148000
     39 HAI         0.5200   -6.1460   10.4160 ha        1 MD7      0.135500
     40 HAP2       -1.5860   -2.5510    5.1070 hn        1 MD7      0.460800
@<TRIPOS>BOND
     1    1    2 1   
     2    1    3 1   
     3    1   24 1   
     4    1   25 1   
     5    2    3 1   
     6    2   26 1   
     7    2   27 1   
     8    3    4 1   
     9    3   28 1   
    10    4    5 1   
    11    4    6 2   
    12    5   29 1   
    13    6    7 1   
    14    6    9 1   
    15    7    8 3   
    16    9   10 2   
    17    9   11 1   
    18   11   12 1   
    19   11   30 1   
    20   11   40 1   
    21   12   13 ar  
    22   12   15 ar  
    23   13   14 ar  
    24   13   31 1   
    25   14   17 ar  
    26   14   32 1   
    27   15   16 ar  
    28   15   33 1   
    29   16   17 ar  
    30   16   34 1   
    31   17   18 1   
    32   18   19 ar  
    33   18   23 ar  
    34   19   20 ar  
    35   19   35 1   
    36   20   21 ar  
    37   20   36 1   
    38   21   22 ar  
    39   21   37 1   
    40   22   23 ar  
    41   22   38 1   
    42   23   39 1   
@<TRIPOS>SUBSTRUCTURE
     1 MD7         1 TEMP              0 ****  ****    0 ROOT
