@<TRIPOS>MOLECULE
MD7
   39    41     1     0     0
SMALL
bcc


@<TRIPOS>ATOM
      1 CAN        -0.5200    0.3190    0.1470 cx        1 MD7     -0.115900
      2 CAO         0.9550    0.2720   -0.0910 cx        1 MD7     -0.115900
      3 CAW         0.4190    0.1170    1.3130 cx        1 MD7     -0.155500
      4 CAS         0.4940   -1.1810    2.0060 c2        1 MD7      0.234900
      5 OAC         0.2610   -2.3370    1.3130 oh        1 MD7     -0.462100
      6 CAR         0.7590   -1.3030    3.3400 ce        1 MD7     -0.165900
      7 CAD         0.9360   -0.1740    4.1730 cg        1 MD7      0.204500
      8 NAA         1.0870    0.7410    4.8770 n1        1 MD7     -0.368800
      9 CAQ         0.9190   -2.6480    3.9780 c         1 MD7      0.706300
     10 OAB         1.6280   -3.5260    3.4600 o         1 MD7     -0.566100
     11 NAP         0.2230   -2.8170    5.1680 n         1 MD7     -0.465100
     12 CAT         0.2090   -3.9530    5.9920 ca        1 MD7      0.076600
     13 CAK        -0.5130   -3.8870    7.2110 ca        1 MD7     -0.171500
     14 CAM        -0.5650   -4.9830    8.0600 ca        1 MD7     -0.092000
     15 CAJ         0.8670   -5.1580    5.6680 ca        1 MD7     -0.171500
     16 CAL         0.8010   -6.2460    6.5310 ca        1 MD7     -0.092000
     17 CAV         0.0890   -6.1800    7.7350 cp        1 MD7     -0.068000
     18 CAU         0.0270   -7.3300    8.6320 cp        1 MD7     -0.029000
     19 CAH        -0.1120   -8.6270    8.1160 ca        1 MD7     -0.121500
     20 CAF        -0.1710   -9.7230    8.9740 ca        1 MD7     -0.130000
     21 CAE        -0.0910   -9.5400   10.3540 ca        1 MD7     -0.130000
     22 CAG         0.0490   -8.2540   10.8750 ca        1 MD7     -0.130000
     23 CAI         0.1070   -7.1540   10.0210 ca        1 MD7     -0.121500
     24 HAN        -1.0530    1.2850    0.0710 hc        1 MD7      0.085200
     25 HANA       -1.1540   -0.5220   -0.1900 hc        1 MD7      0.085200
     26 HAO         1.3990   -0.6030   -0.6020 hc        1 MD7      0.085200
     27 HAOA        1.4960    1.2030   -0.3390 hc        1 MD7      0.085200
     28 HAW         0.5610    0.9730    2.0070 hc        1 MD7      0.118700
     29 HOAC        0.2160   -2.1340    0.3650 ho        1 MD7      0.432000
     30 HNAP       -0.3040   -2.0390    5.5000 hn        1 MD7      0.321500
     31 HAK        -1.0400   -2.9650    7.4990 ha        1 MD7      0.152500
     32 HAM        -1.1350   -4.9120    8.9990 ha        1 MD7      0.136500
     33 HAJ         1.4430   -5.2510    4.7320 ha        1 MD7      0.152500
     34 HAL         1.3280   -7.1750    6.2610 ha        1 MD7      0.136500
     35 HAH        -0.1810   -8.7760    7.0280 ha        1 MD7      0.134500
     36 HAF        -0.2830  -10.7360    8.5600 ha        1 MD7      0.131000
     37 HAE        -0.1370  -10.4060   11.0300 ha        1 MD7      0.130000
     38 HAG         0.1150   -8.1050   11.9630 ha        1 MD7      0.131000
     39 HAI         0.2240   -6.1420   10.4360 ha        1 MD7      0.134500
@<TRIPOS>BOND
     1    1    2 1   
     2    1    3 1   
     3    1   24 1   
     4    1   25 1   
     5    2    3 1   
     6    2   26 1   
     7    2   27 1   
     8    3    4 1   
     9    3   28 1   
    10    4    5 1   
    11    4    6 2   
    12    5   29 1   
    13    6    7 1   
    14    6    9 1   
    15    7    8 3   
    16    9   10 2   
    17    9   11 1   
    18   11   12 1   
    19   11   30 1   
    20   12   13 ar  
    21   12   15 ar  
    22   13   14 ar  
    23   13   31 1   
    24   14   17 ar  
    25   14   32 1   
    26   15   16 ar  
    27   15   33 1   
    28   16   17 ar  
    29   16   34 1   
    30   17   18 1   
    31   18   19 ar  
    32   18   23 ar  
    33   19   20 ar  
    34   19   35 1   
    35   20   21 ar  
    36   20   36 1   
    37   21   22 ar  
    38   21   37 1   
    39   22   23 ar  
    40   22   38 1   
    41   23   39 1   
@<TRIPOS>SUBSTRUCTURE
     1 MD7         1 TEMP              0 ****  ****    0 ROOT
