@<TRIPOS>MOLECULE
MDA
   25    25     1     0     0
SMALL
bcc


@<TRIPOS>ATOM
      1 C1         -0.9530   -0.4160   -1.5220 c3        1 MDA      0.345900
      2 C2          0.5540   -0.4160   -1.5220 c3        1 MDA     -0.165400
      3 C3          1.1160   -0.4160   -0.1560 c3        1 MDA      0.115800
      4 C4          0.5390    0.6720    0.6940 c3        1 MDA      0.123100
      5 C5         -0.9750    0.6690    0.6830 c3        1 MDA      0.159100
      6 C6         -1.4700    1.8920    1.4050 c3        1 MDA     -0.090100
      7 C3'         0.8140   -1.7990    0.5170 c3        1 MDA     -0.121100
      8 O1         -1.4000   -0.2450   -2.8180 oh        1 MDA     -0.589800
      9 O5         -1.5240    0.6650   -0.6670 os        1 MDA     -0.454600
     10 O3          2.5200   -0.2410   -0.2360 oh        1 MDA     -0.607800
     11 O4          0.9920    0.4970    2.0420 oh        1 MDA     -0.595800
     12 H1         -1.2680   -1.2790   -1.1910 h2        1 MDA      0.073700
     13 H21         0.8700   -1.2100   -1.9930 hc        1 MDA      0.066700
     14 H22         0.8700    0.3780   -1.9930 hc        1 MDA      0.066700
     15 H4          0.8560    1.5330    0.3620 h1        1 MDA      0.061700
     16 H5         -1.2920   -0.1250    1.1540 h1        1 MDA      0.052700
     17 H61        -1.2030    1.8470    2.3430 hc        1 MDA      0.052700
     18 H62        -1.0840    2.6900    0.9950 hc        1 MDA      0.052700
     19 H63        -2.4430    1.9340    1.3460 hc        1 MDA      0.052700
     20 H3'1        1.3860   -1.9120    1.3000 hc        1 MDA      0.049367
     21 H3'2        0.9910   -2.5170   -0.1210 hc        1 MDA      0.049367
     22 H3'3       -0.1220   -1.8300    0.7910 hc        1 MDA      0.049367
     23 HO1        -2.1790   -0.6590   -2.9200 ho        1 MDA      0.422000
     24 HO3         2.8680   -0.8740   -0.7510 ho        1 MDA      0.408000
     25 HO4         1.5370    1.1630    2.2590 ho        1 MDA      0.421000
@<TRIPOS>BOND
     1    1    2 1   
     2    1    8 1   
     3    1    9 1   
     4    1   12 1   
     5    2    3 1   
     6    2   13 1   
     7    2   14 1   
     8    3    4 1   
     9    3    7 1   
    10    3   10 1   
    11    4    5 1   
    12    4   11 1   
    13    4   15 1   
    14    5    6 1   
    15    5    9 1   
    16    5   16 1   
    17    6   17 1   
    18    6   18 1   
    19    6   19 1   
    20    7   20 1   
    21    7   21 1   
    22    7   22 1   
    23    8   23 1   
    24   10   24 1   
    25   11   25 1   
@<TRIPOS>SUBSTRUCTURE
     1 MDA         1 TEMP              0 ****  ****    0 ROOT
