@<TRIPOS>MOLECULE
MDA
   25    25     1     0     0
SMALL
bcc


@<TRIPOS>ATOM
      1 C1         -0.2810   -0.4200    1.6730 c3        1 MDA      0.345900
      2 C2         -1.3050    0.3240    0.8170 c3        1 MDA     -0.163400
      3 C3         -1.0530    0.0460   -0.6680 c3        1 MDA      0.158800
      4 C4          0.4190    0.4030   -0.9850 c3        1 MDA      0.121100
      5 C5          1.3620   -0.3800   -0.0530 c3        1 MDA      0.121100
      6 C6          2.8150    0.0040   -0.2520 c3        1 MDA     -0.102100
      7 C3'        -1.9950    0.8640   -1.5360 c3        1 MDA     -0.122100
      8 O1         -0.3280   -0.0460    3.0230 oh        1 MDA     -0.589800
      9 O5          1.0530   -0.0730    1.3090 os        1 MDA     -0.456600
     10 O3         -1.1960   -1.3500   -0.9160 oh        1 MDA     -0.589800
     11 O4          0.6430    0.0970   -2.3490 oh        1 MDA     -0.580800
     12 H1         -0.4360   -1.5340    1.6330 h2        1 MDA      0.087700
     13 H21        -2.3310   -0.0190    1.1010 hc        1 MDA      0.062700
     14 H22        -1.2350    1.4240    1.0090 hc        1 MDA      0.062700
     15 H4          0.5580    1.5090   -0.8210 h1        1 MDA      0.044700
     16 H5          1.2110   -1.4830   -0.2280 h1        1 MDA      0.072700
     17 H61         3.4290   -0.3900    0.5940 hc        1 MDA      0.049033
     18 H62         3.1920   -0.4340   -1.2060 hc        1 MDA      0.049033
     19 H63         2.9300    1.1140   -0.2840 hc        1 MDA      0.049033
     20 H3'1       -3.0570    0.6150   -1.2980 hc        1 MDA      0.051367
     21 H3'2       -1.8330    1.9530   -1.3590 hc        1 MDA      0.051367
     22 H3'3       -1.7970    0.6380   -2.6120 hc        1 MDA      0.051367
     23 HO1         0.0820    0.8260    3.1060 ho        1 MDA      0.418000
     24 HO3        -2.1340   -1.5170   -1.0700 ho        1 MDA      0.405000
     25 HO4         1.5910    0.1940   -2.5040 ho        1 MDA      0.403000
@<TRIPOS>BOND
     1    1    2 1   
     2    1    8 1   
     3    1    9 1   
     4    1   12 1   
     5    2    3 1   
     6    2   13 1   
     7    2   14 1   
     8    3    4 1   
     9    3    7 1   
    10    3   10 1   
    11    4    5 1   
    12    4   11 1   
    13    4   15 1   
    14    5    6 1   
    15    5    9 1   
    16    5   16 1   
    17    6   17 1   
    18    6   18 1   
    19    6   19 1   
    20    7   20 1   
    21    7   21 1   
    22    7   22 1   
    23    8   23 1   
    24   10   24 1   
    25   11   25 1   
@<TRIPOS>SUBSTRUCTURE
     1 MDA         1 TEMP              0 ****  ****    0 ROOT
