@<TRIPOS>MOLECULE
MDB
   65    63     1     0     0
SMALL
bcc


@<TRIPOS>ATOM
      1 C          -1.2440    0.0810    1.0500 c1        1 MDB      0.285000
      2 N           0.7950    1.2280    0.5210 n         1 MDB     -0.366000
      3 O          -1.8880    0.9650    1.5880 o         1 MDB     -0.363000
      4 CA          0.2950    0.0850    1.1410 c2        1 MDB      0.026000
      5 CB          0.7220    0.0750    2.6110 c3        1 MDB     -0.043000
      6 CAA         0.7520    1.5040    3.1450 c3        1 MDB     -0.217333
      7 CAC        -0.2750   -0.7460    3.4230 c3        1 MDB     -0.217333
      8 CAD         2.0880   -0.5320    2.7280 c3        1 MDB     -0.217333
      9 CAG         1.9690    1.1530   -0.2640 c2        1 MDB      0.399000
     10 OAH         2.2680    0.1020   -0.8160 o         1 MDB     -0.436000
     11 NAI         2.7690    2.3750   -0.5180 n         1 MDB     -0.285000
     12 CAJ         3.8840    2.3240   -1.4020 c2        1 MDB      0.032000
     13 CAK         3.8810    1.4340   -2.4800 c2        1 MDB     -0.101000
     14 CAL         4.9380    1.4320   -3.3820 c1        1 MDB     -0.143000
     15 CAM         6.0070    2.3240   -3.2080 c1        1 MDB     -0.146500
     16 CAN         6.0070    3.2070   -2.1350 c1        1 MDB     -0.146500
     17 CAP         4.9430    3.2060   -1.2300 c1        1 MDB      0.042000
     18 OAP         4.9750    4.0580   -0.0950 os        1 MDB     -0.233000
     19 CAQ         5.7260    5.2730   -0.2960 c3        1 MDB     -0.070000
     20 NAS        -1.9330   -0.9870    0.3090 n3        1 MDB     -0.322000
     21 CAT        -1.2690   -1.6200   -0.8620 c3        1 MDB     -0.048000
     22 CAU        -1.1390   -3.0960   -0.6340 c2        1 MDB      0.207000
     23 OAV        -1.2160   -3.5430    0.4820 o         1 MDB     -0.322000
     24 NAW        -0.9640   -3.9760   -1.7470 n         1 MDB     -0.200000
     25 OAX        -0.9860   -5.3140   -1.5590 oh        1 MDB     -0.240000
     26 CAY        -3.3510   -1.3770    0.6800 c3        1 MDB     -0.013000
     27 CAZ        -4.1630   -1.4220   -0.5050 c3        1 MDB     -0.131000
     28 CBA        -4.7870   -2.8450   -0.6790 c3        1 MDB     -0.155500
     29 CBB        -6.1070   -2.6940   -0.3790 c3        1 MDB     -0.157500
     30 CBC        -6.4760   -1.1520   -0.7160 c3        1 MDB     -0.157500
     31 CBD        -5.4000   -0.4240   -0.3680 c3        1 MDB     -0.155500
     32 HN          0.3480    2.0030    0.5840 hn        1 MDB      0.238000
     33 HA          0.6520   -0.7170    0.6900 h4        1 MDB      0.131000
     34 HAA         1.4470    2.0500    2.6270 hc        1 MDB      0.084889
     35 HAAA       -0.1410    1.9160    3.0330 hc        1 MDB      0.084889
     36 HAAB        0.9960    1.4900    4.1230 hc        1 MDB      0.084889
     37 HAC        -0.2120   -1.7220    3.1550 hc        1 MDB      0.084889
     38 HACA       -0.0680   -0.6550    4.3920 hc        1 MDB      0.084889
     39 HACB       -1.1800   -0.4190    3.2510 hc        1 MDB      0.084889
     40 HAD         2.7630    0.1130    2.4030 hc        1 MDB      0.084889
     41 HADA        2.2690   -0.7490    3.6580 hc        1 MDB      0.084889
     42 HADB        2.1290   -1.3490    2.1870 hc        1 MDB      0.084889
     43 HNAI        2.5230    3.1840   -0.1250 hn        1 MDB      0.234000
     44 HAK         3.1560    0.8320   -2.5950 ha        1 MDB      0.166000
     45 HAL         4.9350    0.8000   -4.1470 ha        1 MDB      0.139000
     46 HAM         6.7710    2.3250   -3.8550 ha        1 MDB      0.137500
     47 HAN         6.7420    3.8200   -2.0150 ha        1 MDB      0.137500
     48 HAQ         5.5280    5.6400   -1.1980 h1        1 MDB      0.086333
     49 HAQA        6.6920    5.0790   -0.2260 h1        1 MDB      0.086333
     50 HAQB        5.4710    5.9370    0.3930 h1        1 MDB      0.086333
     51 HAT        -0.3690   -1.2270   -0.9820 h1        1 MDB      0.128000
     52 HATA       -1.8110   -1.4590   -1.6780 h1        1 MDB      0.128000
     53 HNAW       -0.9010   -3.6360   -2.5870 hn        1 MDB      0.242000
     54 HOAX       -1.2330   -5.7080   -2.3000 ho        1 MDB      0.228000
     55 HAY        -3.7280   -0.7040    1.3170 h1        1 MDB      0.104000
     56 HAYA       -3.3450   -2.2620    1.1040 h1        1 MDB      0.104000
     57 HAZ        -3.6180   -1.1860   -1.3020 hc        1 MDB      0.109000
     58 HBA        -4.3620   -3.4850   -0.0550 hc        1 MDB      0.081500
     59 HBAA       -4.6820   -3.1500   -1.6090 hc        1 MDB      0.081500
     60 HBB        -6.6530   -3.3010   -0.9310 hc        1 MDB      0.080500
     61 HBBA       -6.2590   -2.8780    0.5780 hc        1 MDB      0.080500
     62 HBC        -7.2450   -0.8740   -0.2040 hc        1 MDB      0.080500
     63 HBCA       -6.6570   -1.0510   -1.6790 hc        1 MDB      0.080500
     64 HBD        -5.4860   -0.1060    0.5730 hc        1 MDB      0.081500
     65 HBDA       -5.2930    0.3490   -0.9860 hc        1 MDB      0.081500
@<TRIPOS>BOND
     1    1    3 1   
     2    1   20 1   
     3    2    4 1   
     4    2    9 1   
     5    2   32 1   
     6    4    5 1   
     7    4   33 1   
     8    5    6 1   
     9    5    7 1   
    10    5    8 1   
    11    6   34 1   
    12    6   35 1   
    13    6   36 1   
    14    7   37 1   
    15    7   38 1   
    16    7   39 1   
    17    8   40 1   
    18    8   41 1   
    19    8   42 1   
    20    9   10 1   
    21    9   11 1   
    22   11   12 1   
    23   11   43 1   
    24   12   13 1   
    25   12   17 1   
    26   13   14 1   
    27   13   44 1   
    28   14   45 1   
    29   15   16 1   
    30   15   46 1   
    31   16   47 1   
    32   17   18 1   
    33   18   19 1   
    34   19   48 1   
    35   19   49 1   
    36   19   50 1   
    37   20   21 1   
    38   20   26 1   
    39   21   22 1   
    40   21   51 1   
    41   21   52 1   
    42   22   23 1   
    43   22   24 1   
    44   24   25 1   
    45   24   53 1   
    46   25   54 1   
    47   26   27 1   
    48   26   55 1   
    49   26   56 1   
    50   27   28 1   
    51   27   31 1   
    52   27   57 1   
    53   28   29 1   
    54   28   58 1   
    55   28   59 1   
    56   29   30 1   
    57   29   60 1   
    58   29   61 1   
    59   30   31 1   
    60   30   62 1   
    61   30   63 1   
    62   31   64 1   
    63   31   65 1   
@<TRIPOS>SUBSTRUCTURE
     1 MDB         1 TEMP              0 ****  ****    0 ROOT
