@<TRIPOS>MOLECULE
MDB
   69    70     1     0     0
SMALL
bcc


@<TRIPOS>ATOM
      1 C           0.6450   -0.2280    0.0490 c         1 MDB      0.524100
      2 N           2.1010    1.4010   -1.1790 n4        1 MDB     -0.655800
      3 O           0.3290    0.6410    0.8520 o         1 MDB     -0.404100
      4 CA          1.8130   -0.0780   -0.9520 c3        1 MDB      0.067500
      5 CB          3.1040   -0.8260   -0.4580 c3        1 MDB     -0.055000
      6 CAA         2.8170   -2.3190   -0.3930 c3        1 MDB     -0.134767
      7 CAC         4.2160   -0.6030   -1.4780 c3        1 MDB     -0.134767
      8 CAD         3.5350   -0.3220    0.9070 c3        1 MDB     -0.134767
      9 CAG         2.1200    1.8060   -2.6340 c         1 MDB      0.482100
     10 OAH         1.7560    1.0210   -3.4930 o         1 MDB     -0.318100
     11 NAI         2.6230    3.1840   -2.9770 n4        1 MDB     -0.447200
     12 CAJ         4.0490    3.3520   -2.7570 ca        1 MDB     -0.184400
     13 CAK         4.9490    3.2670   -3.8490 ca        1 MDB     -0.048000
     14 CAL         6.2780    3.6170   -3.6620 ca        1 MDB     -0.102000
     15 CAM         6.7390    4.0400   -2.4050 ca        1 MDB      0.032000
     16 CAN         5.8700    4.0910   -1.3110 ca        1 MDB     -0.159000
     17 CAP         4.5300    3.7350   -1.4710 ca        1 MDB      0.148100
     18 OAP         3.6010    3.7010   -0.4520 os        1 MDB     -0.456900
     19 CAQ         3.8920    4.5300    0.6980 c3        1 MDB      0.117700
     20 NAS        -0.1490   -1.5070    0.0520 n4        1 MDB     -0.587200
     21 CAT        -0.3870   -2.0330    1.4410 c3        1 MDB      0.052800
     22 CAU        -1.5340   -1.3910    2.2040 c         1 MDB      0.549100
     23 OAV        -2.1930   -0.4180    1.8950 o         1 MDB     -0.340100
     24 NAW        -1.9050   -2.0480    3.5380 n4        1 MDB     -0.437300
     25 OAX        -1.0150   -3.0360    3.7800 oh        1 MDB     -0.390300
     26 CAY        -1.4560   -1.3750   -0.7260 c3        1 MDB      0.103800
     27 CAZ        -1.2980   -1.4930   -2.2400 c3        1 MDB     -0.102700
     28 CBA        -2.6440   -1.9360   -2.8490 c3        1 MDB     -0.076400
     29 CBB        -3.3150   -0.6980   -3.4260 c3        1 MDB     -0.089900
     30 CBC        -2.3030    0.4390   -3.3890 c3        1 MDB     -0.089900
     31 CBD        -0.9870   -0.1450   -2.8900 c3        1 MDB     -0.076400
     32 HN          3.0350    1.6270   -0.7560 hn        1 MDB      0.510800
     33 HA          1.5010   -0.5370   -1.9490 hx        1 MDB      0.171700
     34 HAA         3.7940   -2.8790   -0.3400 hc        1 MDB      0.079700
     35 HAAA        2.2560   -2.5900    0.5340 hc        1 MDB      0.079700
     36 HAAB        2.2920   -2.6860   -1.3090 hc        1 MDB      0.079700
     37 HAC         3.8680   -0.8380   -2.5140 hc        1 MDB      0.079700
     38 HACA        5.0740   -1.2920   -1.2470 hc        1 MDB      0.079700
     39 HACB        4.6270    0.4340   -1.4390 hc        1 MDB      0.079700
     40 HAD         4.3500   -0.9860    1.3060 hc        1 MDB      0.079700
     41 HADA        3.9560    0.7120    0.8680 hc        1 MDB      0.079700
     42 HADB        2.6870   -0.3420    1.6330 hc        1 MDB      0.079700
     43 HNAI        2.4140    3.3320   -3.9920 hn        1 MDB      0.521300
     44 HAK         4.6070    2.9560   -4.8540 ha        1 MDB      0.186000
     45 HAL         6.9800    3.5800   -4.5210 ha        1 MDB      0.221000
     46 HAM         7.8010    4.3390   -2.2790 ha        1 MDB      0.220000
     47 HAN         6.2460    4.4270   -0.3270 ha        1 MDB      0.205000
     48 HAQ         2.9190    4.5460    1.2520 h1        1 MDB      0.091033
     49 HAQA        4.6990    4.0480    1.3010 h1        1 MDB      0.091033
     50 HAQB        4.1850    5.5580    0.3730 h1        1 MDB      0.091033
     51 HAT         0.5580   -1.9050    2.0580 hx        1 MDB      0.176700
     52 HATA       -0.5920   -3.1520    1.3500 hx        1 MDB      0.176700
     53 HNAW       -1.8810   -1.3220    4.2930 hn        1 MDB      0.515300
     54 HOAX       -1.2470   -3.4970    4.6320 ho        1 MDB      0.535000
     55 HAY        -2.1150   -2.2170   -0.3580 hx        1 MDB      0.129200
     56 HAYA       -1.9290   -0.3860   -0.4520 hx        1 MDB      0.129200
     57 HAZ        -0.5160   -2.2570   -2.4980 hc        1 MDB      0.071700
     58 HBA        -3.3030   -2.4430   -2.1020 hc        1 MDB      0.050450
     59 HBAA       -2.4370   -2.6820   -3.6630 hc        1 MDB      0.050450
     60 HBB        -4.2320   -0.4290   -2.8420 hc        1 MDB      0.085450
     61 HBBA       -3.6520   -0.8970   -4.4780 hc        1 MDB      0.085450
     62 HBC        -2.6550    1.2540   -2.7080 hc        1 MDB      0.085450
     63 HBCA       -2.1760    0.8870   -4.4080 hc        1 MDB      0.085450
     64 HBD        -0.4820    0.5460   -2.1630 hc        1 MDB      0.050450
     65 HBDA       -0.2870   -0.3010   -3.7540 hc        1 MDB      0.050450
     66 H2          1.4050    1.9870   -0.6840 hn        1 MDB      0.510800
     67 HAI2        2.1150    3.8930   -2.4140 hn        1 MDB      0.521300
     68 HAS1        0.4160   -2.2340   -0.4330 hn        1 MDB      0.493800
     69 HAW2       -2.8810   -2.4230    3.4730 hn        1 MDB      0.515300
@<TRIPOS>BOND
     1    1    3 2   
     2    1    4 1   
     3    1   20 1   
     4    2    4 1   
     5    2    9 1   
     6    2   32 1   
     7    2   66 1   
     8    4    5 1   
     9    4   33 1   
    10    5    6 1   
    11    5    7 1   
    12    5    8 1   
    13    6   34 1   
    14    6   35 1   
    15    6   36 1   
    16    7   37 1   
    17    7   38 1   
    18    7   39 1   
    19    8   40 1   
    20    8   41 1   
    21    8   42 1   
    22    9   10 2   
    23    9   11 1   
    24   11   12 1   
    25   11   43 1   
    26   11   67 1   
    27   12   13 ar  
    28   12   17 ar  
    29   13   14 ar  
    30   13   44 1   
    31   14   15 ar  
    32   14   45 1   
    33   15   16 ar  
    34   15   46 1   
    35   16   17 ar  
    36   16   47 1   
    37   17   18 1   
    38   18   19 1   
    39   19   48 1   
    40   19   49 1   
    41   19   50 1   
    42   20   21 1   
    43   20   26 1   
    44   20   68 1   
    45   21   22 1   
    46   21   51 1   
    47   21   52 1   
    48   22   23 2   
    49   22   24 1   
    50   24   25 1   
    51   24   53 1   
    52   24   69 1   
    53   25   54 1   
    54   26   27 1   
    55   26   55 1   
    56   26   56 1   
    57   27   28 1   
    58   27   31 1   
    59   27   57 1   
    60   28   29 1   
    61   28   58 1   
    62   28   59 1   
    63   29   30 1   
    64   29   60 1   
    65   29   61 1   
    66   30   31 1   
    67   30   62 1   
    68   30   63 1   
    69   31   64 1   
    70   31   65 1   
@<TRIPOS>SUBSTRUCTURE
     1 MDB         1 TEMP              0 ****  ****    0 ROOT
