@<TRIPOS>MOLECULE
MDB
   65    66     1     0     0
SMALL
bcc


@<TRIPOS>ATOM
      1 C          -1.6140   -0.2440   -1.0420 c         1 MDB      0.645100
      2 N           0.7860    0.2690   -1.2080 n         1 MDB     -0.559900
      3 O          -1.8220   -1.0790   -1.9450 o         1 MDB     -0.604100
      4 CA         -0.5290    0.8540   -1.2230 c3        1 MDB      0.053700
      5 CB         -0.8290    1.6720   -2.5160 c3        1 MDB     -0.043000
      6 CAA        -2.3130    2.0150   -2.5230 c3        1 MDB     -0.099767
      7 CAC        -0.0230    2.9630   -2.4650 c3        1 MDB     -0.099767
      8 CAD        -0.4740    0.9100   -3.7810 c3        1 MDB     -0.099767
      9 CAG         1.5660    0.3130   -0.0450 c         1 MDB      0.773100
     10 OAH         1.1820    0.9880    0.9460 o         1 MDB     -0.675100
     11 NAI         2.7550   -0.4470   -0.0170 n         1 MDB     -0.431100
     12 CAJ         3.7910   -0.1580    0.9000 ca        1 MDB      0.024600
     13 CAK         3.5290    0.1170    2.2540 ca        1 MDB     -0.100000
     14 CAL         4.5730    0.3250    3.1540 ca        1 MDB     -0.143000
     15 CAM         5.8970    0.2590    2.7320 ca        1 MDB     -0.110000
     16 CAN         6.1910   -0.0110    1.3960 ca        1 MDB     -0.183000
     17 CAP         5.1560   -0.2110    0.4810 ca        1 MDB      0.087100
     18 OAP         5.3650   -0.4650   -0.8660 os        1 MDB     -0.349900
     19 CAQ         6.7120   -0.6880   -1.2640 c3        1 MDB      0.119700
     20 NAS        -2.3520   -0.2890    0.1330 n         1 MDB     -0.462800
     21 CAT        -1.9150    0.3570    1.3380 c3        1 MDB      0.019000
     22 CAU        -2.2080    1.8630    1.4070 c         1 MDB      0.562100
     23 OAV        -3.2560    2.3680    0.9750 o         1 MDB     -0.563100
     24 NAW        -1.2760    2.6370    2.1630 n         1 MDB     -0.358400
     25 OAX        -1.3620    3.9550    1.9690 oh        1 MDB     -0.435100
     26 CAY        -3.5940   -1.0330    0.1840 c3        1 MDB      0.096000
     27 CAZ        -3.5330   -2.3610    0.9460 c3        1 MDB     -0.083700
     28 CBA        -4.9360   -2.9580    1.0670 c3        1 MDB     -0.079400
     29 CBB        -4.7850   -4.4660    0.9330 c3        1 MDB     -0.078400
     30 CBC        -3.4360   -4.7280    0.2760 c3        1 MDB     -0.078400
     31 CBD        -2.6710   -3.4110    0.2470 c3        1 MDB     -0.079400
     32 HN          0.9850   -0.3820   -1.9330 hn        1 MDB      0.325500
     33 HA         -0.5870    1.5990   -0.3710 h1        1 MDB      0.091700
     34 HAA        -2.6270    2.4370   -1.5360 hc        1 MDB      0.045589
     35 HAAA       -2.5210    2.7730   -3.3170 hc        1 MDB      0.045589
     36 HAAB       -2.9240    1.1040   -2.7370 hc        1 MDB      0.045589
     37 HAC         1.0700    2.7490   -2.4020 hc        1 MDB      0.045589
     38 HACA       -0.2130    3.5600   -3.3900 hc        1 MDB      0.045589
     39 HACB       -0.3200    3.5780   -1.5810 hc        1 MDB      0.045589
     40 HAD        -0.9040   -0.1210   -3.7550 hc        1 MDB      0.045589
     41 HADA       -0.8910    1.4460   -4.6680 hc        1 MDB      0.045589
     42 HADB        0.6330    0.8410   -3.9090 hc        1 MDB      0.045589
     43 HNAI        3.0860   -0.8050   -0.8910 hn        1 MDB      0.320500
     44 HAK         2.4860    0.1840    2.6060 ha        1 MDB      0.166000
     45 HAL         4.3400    0.5430    4.2070 ha        1 MDB      0.139000
     46 HAM         6.7160    0.4220    3.4470 ha        1 MDB      0.136000
     47 HAN         7.2400   -0.0570    1.0720 ha        1 MDB      0.139000
     48 HAQ         7.1620   -1.5340   -0.6910 h1        1 MDB      0.047033
     49 HAQA        6.6200   -0.9490   -2.3500 h1        1 MDB      0.047033
     50 HAQB        7.3170    0.2430   -1.1340 h1        1 MDB      0.047033
     51 HAT        -2.4530   -0.1030    2.2190 h1        1 MDB      0.088700
     52 HATA       -0.8080    0.1750    1.4730 h1        1 MDB      0.088700
     53 HNAW       -0.3080    2.3610    2.0010 hn        1 MDB      0.329500
     54 HOAX       -2.1780    4.2400    2.4260 ho        1 MDB      0.429000
     55 HAY        -4.3670   -0.3740    0.6760 h1        1 MDB      0.067200
     56 HAYA       -3.9250   -1.2390   -0.8750 h1        1 MDB      0.067200
     57 HAZ        -3.1270   -2.1820    1.9780 hc        1 MDB      0.043700
     58 HBA        -5.4020   -2.6830    2.0450 hc        1 MDB      0.048450
     59 HBAA       -5.6010   -2.5650    0.2560 hc        1 MDB      0.048450
     60 HBB        -4.8240   -4.9490    1.9420 hc        1 MDB      0.040200
     61 HBBA       -5.6180   -4.8970    0.3250 hc        1 MDB      0.040200
     62 HBC        -2.8670   -5.5040    0.8450 hc        1 MDB      0.040200
     63 HBCA       -3.5770   -5.1160   -0.7640 hc        1 MDB      0.040200
     64 HBD        -2.4580   -3.1020   -0.8100 hc        1 MDB      0.048450
     65 HBDA       -1.6870   -3.5140    0.7680 hc        1 MDB      0.048450
@<TRIPOS>BOND
     1    1    3 2   
     2    1    4 1   
     3    1   20 1   
     4    2    4 1   
     5    2    9 1   
     6    2   32 1   
     7    4    5 1   
     8    4   33 1   
     9    5    6 1   
    10    5    7 1   
    11    5    8 1   
    12    6   34 1   
    13    6   35 1   
    14    6   36 1   
    15    7   37 1   
    16    7   38 1   
    17    7   39 1   
    18    8   40 1   
    19    8   41 1   
    20    8   42 1   
    21    9   10 2   
    22    9   11 1   
    23   11   12 1   
    24   11   43 1   
    25   12   13 ar  
    26   12   17 ar  
    27   13   14 ar  
    28   13   44 1   
    29   14   15 ar  
    30   14   45 1   
    31   15   16 ar  
    32   15   46 1   
    33   16   17 ar  
    34   16   47 1   
    35   17   18 1   
    36   18   19 1   
    37   19   48 1   
    38   19   49 1   
    39   19   50 1   
    40   20   21 1   
    41   20   26 1   
    42   21   22 1   
    43   21   51 1   
    44   21   52 1   
    45   22   23 2   
    46   22   24 1   
    47   24   25 1   
    48   24   53 1   
    49   25   54 1   
    50   26   27 1   
    51   26   55 1   
    52   26   56 1   
    53   27   28 1   
    54   27   31 1   
    55   27   57 1   
    56   28   29 1   
    57   28   58 1   
    58   28   59 1   
    59   29   30 1   
    60   29   60 1   
    61   29   61 1   
    62   30   31 1   
    63   30   62 1   
    64   30   63 1   
    65   31   64 1   
    66   31   65 1   
@<TRIPOS>SUBSTRUCTURE
     1 MDB         1 TEMP              0 ****  ****    0 ROOT
