@<TRIPOS>MOLECULE
MDB
   68    69     1     0     0
SMALL
bcc


@<TRIPOS>ATOM
      1 C           0.3840   -0.3430    0.5240 c         1 MDB      0.516100
      2 N           2.0200    1.5070    0.1850 n4        1 MDB     -0.693800
      3 O          -0.6550    0.1160    0.9610 o         1 MDB     -0.343100
      4 CA          1.7960    0.1850    0.8470 c3        1 MDB      0.076500
      5 CB          2.0120    0.2640    2.3990 c3        1 MDB     -0.053000
      6 CAA         1.6750   -1.0980    2.9850 c3        1 MDB     -0.126100
      7 CAC         3.4860    0.5560    2.6610 c3        1 MDB     -0.126100
      8 CAD         1.1560    1.3390    3.0430 c3        1 MDB     -0.126100
      9 CAG         2.4740    1.3470   -1.3190 c         1 MDB      0.634100
     10 OAH         2.2190    0.2080   -1.7460 o         1 MDB     -0.604100
     11 NAI         2.8630    2.4750   -1.9700 n         1 MDB     -0.288100
     12 CAJ         3.6150    2.4030   -3.1780 ca        1 MDB     -0.118400
     13 CAK         3.1910    1.5990   -4.2600 ca        1 MDB     -0.070000
     14 CAL         3.8780    1.6370   -5.4620 ca        1 MDB     -0.139000
     15 CAM         5.0050    2.4570   -5.6110 ca        1 MDB     -0.018000
     16 CAN         5.4550    3.2390   -4.5540 ca        1 MDB     -0.180000
     17 CAP         4.7790    3.2150   -3.3250 ca        1 MDB      0.174100
     18 OAP         5.1540    3.9360   -2.2190 os        1 MDB     -0.373900
     19 CAQ         6.2270    4.8750   -2.3900 c3        1 MDB      0.113700
     20 NAS         0.2830   -1.5150   -0.4420 n4        1 MDB     -0.600200
     21 CAT         0.3560   -2.8420    0.2360 c3        1 MDB      0.053800
     22 CAU        -0.9250   -3.2940    0.9130 c         1 MDB      0.544100
     23 OAV        -1.9330   -2.6610    1.1540 o         1 MDB     -0.330100
     24 NAW        -0.9540   -4.7580    1.3850 n4        1 MDB     -0.446300
     25 OAX         0.3030   -5.2470    1.3120 oh        1 MDB     -0.384300
     26 CAY        -0.9400   -1.4130   -1.3370 c3        1 MDB      0.105800
     27 CAZ        -0.8090   -0.3780   -2.4490 c3        1 MDB     -0.104700
     28 CBA        -1.8520   -0.6790   -3.5380 c3        1 MDB     -0.075400
     29 CBB        -2.2720    0.6700   -4.1070 c3        1 MDB     -0.081900
     30 CBC        -1.8310    1.7450   -3.1230 c3        1 MDB     -0.081900
     31 CBD        -1.0880    1.0510   -1.9860 c3        1 MDB     -0.075400
     32 HN          2.7670    1.9900    0.7090 hn        1 MDB      0.476300
     33 HA          2.5840   -0.5260    0.4400 hx        1 MDB      0.138700
     34 HAA         0.6130   -1.3750    2.7760 hc        1 MDB      0.072367
     35 HAAA        1.8050   -1.0600    4.0990 hc        1 MDB      0.072367
     36 HAAB        2.3630   -1.8850    2.5890 hc        1 MDB      0.072367
     37 HAC         3.7090    0.3720    3.7450 hc        1 MDB      0.072367
     38 HACA        4.1510   -0.1080    2.0580 hc        1 MDB      0.072367
     39 HACB        3.7430    1.6250    2.4590 hc        1 MDB      0.072367
     40 HAD         1.2930    1.2990    4.1570 hc        1 MDB      0.072367
     41 HADA        1.4580    2.3630    2.7160 hc        1 MDB      0.072367
     42 HADB        0.0700    1.1890    2.8310 hc        1 MDB      0.072367
     43 HNAI        3.0400    3.3180   -1.4440 hn        1 MDB      0.367500
     44 HAK         2.3090    0.9480   -4.1480 ha        1 MDB      0.141000
     45 HAL         3.5360    1.0210   -6.3100 ha        1 MDB      0.174000
     46 HAM         5.5420    2.4800   -6.5770 ha        1 MDB      0.184000
     47 HAN         6.3450    3.8770   -4.6830 ha        1 MDB      0.184000
     48 HAQ         6.2860    5.3700   -1.3870 h1        1 MDB      0.075700
     49 HAQA        7.1750    4.3320   -2.6240 h1        1 MDB      0.075700
     50 HAQB        5.9730    5.6140   -3.1870 h1        1 MDB      0.075700
     51 HAT         1.1730   -2.8190    1.0270 hx        1 MDB      0.167200
     52 HATA        0.6540   -3.6180   -0.5420 hx        1 MDB      0.167200
     53 HNAW       -1.6040   -5.2980    0.7720 hn        1 MDB      0.505800
     54 HOAX        0.3150   -6.1880    1.6320 ho        1 MDB      0.523000
     55 HAY        -1.8310   -1.1700   -0.6860 hx        1 MDB      0.117700
     56 HAYA       -1.0760   -2.4310   -1.8050 hx        1 MDB      0.117700
     57 HAZ         0.2160   -0.4270   -2.9150 hc        1 MDB      0.084700
     58 HBA        -1.4160   -1.3370   -4.3290 hc        1 MDB      0.045200
     59 HBAA       -2.7390   -1.2050   -3.1010 hc        1 MDB      0.045200
     60 HBB        -1.7950    0.8360   -5.1070 hc        1 MDB      0.080700
     61 HBBA       -3.3810    0.7000   -4.2630 hc        1 MDB      0.080700
     62 HBC        -2.7130    2.3070   -2.7240 hc        1 MDB      0.080700
     63 HBCA       -1.1660    2.4900   -3.6300 hc        1 MDB      0.080700
     64 HBD        -1.7160    1.0580   -1.0580 hc        1 MDB      0.045200
     65 HBDA       -0.1270    1.5760   -1.7510 hc        1 MDB      0.045200
     66 H2          1.1700    2.0810    0.2440 hn        1 MDB      0.476300
     67 HAS1        1.1170   -1.4540   -1.0690 hn        1 MDB      0.507800
     68 HAW2       -1.3190   -4.7900    2.3640 hn        1 MDB      0.505800
@<TRIPOS>BOND
     1    1    3 2   
     2    1    4 1   
     3    1   20 1   
     4    2    4 1   
     5    2    9 1   
     6    2   32 1   
     7    2   66 1   
     8    4    5 1   
     9    4   33 1   
    10    5    6 1   
    11    5    7 1   
    12    5    8 1   
    13    6   34 1   
    14    6   35 1   
    15    6   36 1   
    16    7   37 1   
    17    7   38 1   
    18    7   39 1   
    19    8   40 1   
    20    8   41 1   
    21    8   42 1   
    22    9   10 2   
    23    9   11 1   
    24   11   12 1   
    25   11   43 1   
    26   12   13 ar  
    27   12   17 ar  
    28   13   14 ar  
    29   13   44 1   
    30   14   15 ar  
    31   14   45 1   
    32   15   16 ar  
    33   15   46 1   
    34   16   17 ar  
    35   16   47 1   
    36   17   18 1   
    37   18   19 1   
    38   19   48 1   
    39   19   49 1   
    40   19   50 1   
    41   20   21 1   
    42   20   26 1   
    43   20   67 1   
    44   21   22 1   
    45   21   51 1   
    46   21   52 1   
    47   22   23 2   
    48   22   24 1   
    49   24   25 1   
    50   24   53 1   
    51   24   68 1   
    52   25   54 1   
    53   26   27 1   
    54   26   55 1   
    55   26   56 1   
    56   27   28 1   
    57   27   31 1   
    58   27   57 1   
    59   28   29 1   
    60   28   58 1   
    61   28   59 1   
    62   29   30 1   
    63   29   60 1   
    64   29   61 1   
    65   30   31 1   
    66   30   62 1   
    67   30   63 1   
    68   31   64 1   
    69   31   65 1   
@<TRIPOS>SUBSTRUCTURE
     1 MDB         1 TEMP              0 ****  ****    0 ROOT
