@<TRIPOS>MOLECULE
MDB
   68    69     1     0     0
SMALL
bcc


@<TRIPOS>ATOM
      1 C           0.3590   -0.3300    0.5120 c         1 MDB      0.516100
      2 N           2.0060    1.5130    0.1870 ny        1 MDB     -0.693800
      3 O          -0.6860    0.1360    0.9290 o         1 MDB     -0.343100
      4 CA          1.7670    0.1960    0.8530 c3        1 MDB      0.076500
      5 CB          1.9580    0.2860    2.4090 c3        1 MDB     -0.053000
      6 CAA         1.6080   -1.0710    2.9980 c3        1 MDB     -0.126100
      7 CAC         3.4290    0.5760    2.6920 c3        1 MDB     -0.126100
      8 CAD         1.0960    1.3680    3.0320 c3        1 MDB     -0.126100
      9 CAG         2.4830    1.3410   -1.3090 c         1 MDB      0.634100
     10 OAH         2.2310    0.2000   -1.7320 o         1 MDB     -0.604100
     11 NAI         2.8850    2.4630   -1.9620 ns        1 MDB     -0.288100
     12 CAJ         3.6560    2.3810   -3.1570 ca        1 MDB     -0.118400
     13 CAK         3.2470    1.5710   -4.2400 ca        1 MDB     -0.070000
     14 CAL         3.9540    1.5980   -5.4310 ca        1 MDB     -0.139000
     15 CAM         5.0850    2.4150   -5.5680 ca        1 MDB     -0.018000
     16 CAN         5.5200    3.2030   -4.5100 ca        1 MDB     -0.180000
     17 CAP         4.8240    3.1890   -3.2920 ca        1 MDB      0.174100
     18 OAP         5.1840    3.9170   -2.1850 os        1 MDB     -0.373900
     19 CAQ         6.2620    4.8520   -2.3450 c3        1 MDB      0.113700
     20 NAS         0.2700   -1.5080   -0.4480 nx        1 MDB     -0.600200
     21 CAT         0.3290   -2.8310    0.2410 c3        1 MDB      0.053800
     22 CAU        -0.9650   -3.2740    0.9010 c         1 MDB      0.544100
     23 OAV        -1.9750   -2.6360    1.1210 o         1 MDB     -0.330100
     24 NAW        -1.0050   -4.7340    1.3830 ny        1 MDB     -0.446300
     25 OAX         0.2520   -5.2280    1.3350 oh        1 MDB     -0.384300
     26 CAY        -0.9380   -1.4090   -1.3630 c3        1 MDB      0.105800
     27 CAZ        -0.7860   -0.3830   -2.4790 c3        1 MDB     -0.104700
     28 CBA        -1.8130   -0.6890   -3.5830 c3        1 MDB     -0.075400
     29 CBB        -2.2190    0.6570   -4.1680 c3        1 MDB     -0.081900
     30 CBC        -1.7910    1.7380   -3.1850 c3        1 MDB     -0.081900
     31 CBD        -1.0690    1.0510   -2.0310 c3        1 MDB     -0.075400
     32 HN          1.1560    2.0900    0.2280 hn        1 MDB      0.476300
     33 HA          2.5590   -0.5190    0.4650 hx        1 MDB      0.138700
     34 HAA         1.7200   -1.0260    4.1140 hc        1 MDB      0.072367
     35 HAAA        0.5480   -1.3460    2.7750 hc        1 MDB      0.072367
     36 HAAB        2.3000   -1.8620    2.6200 hc        1 MDB      0.072367
     37 HAC         3.6920    1.6420    2.4870 hc        1 MDB      0.072367
     38 HACA        4.1010   -0.0940    2.1040 hc        1 MDB      0.072367
     39 HACB        3.6340    0.3980    3.7810 hc        1 MDB      0.072367
     40 HAD         1.4060    2.3890    2.7020 hc        1 MDB      0.072367
     41 HADA        1.2150    1.3360    4.1470 hc        1 MDB      0.072367
     42 HADB        0.0130    1.2200    2.8030 hc        1 MDB      0.072367
     43 HNAI        3.0560    3.3100   -1.4390 hn        1 MDB      0.367500
     44 HAK         2.3620    0.9220   -4.1380 ha        1 MDB      0.141000
     45 HAL         3.6230    0.9770   -6.2800 ha        1 MDB      0.174000
     46 HAM         5.6370    2.4290   -6.5260 ha        1 MDB      0.184000
     47 HAN         6.4140    3.8380   -4.6290 ha        1 MDB      0.184000
     48 HAQ         7.2120    4.3050   -2.5600 h1        1 MDB      0.075700
     49 HAQA        6.0220    5.5860   -3.1510 h1        1 MDB      0.075700
     50 HAQB        6.3060    5.3540   -1.3440 h1        1 MDB      0.075700
     51 HAT         1.1330   -2.8040    1.0460 hx        1 MDB      0.167200
     52 HATA        0.6360   -3.6130   -0.5260 hx        1 MDB      0.167200
     53 HNAW       -1.6470   -5.2770    0.7630 hn        1 MDB      0.505800
     54 HOAX        0.2550   -6.1660    1.6620 ho        1 MDB      0.523000
     55 HAY        -1.0700   -2.4300   -1.8250 hx        1 MDB      0.117700
     56 HAYA       -1.8390   -1.1590   -0.7270 hx        1 MDB      0.117700
     57 HAZ         0.2460   -0.4380   -2.9280 hc        1 MDB      0.084700
     58 HBA        -2.7080   -1.2090   -3.1570 hc        1 MDB      0.045200
     59 HBAA       -1.3660   -1.3540   -4.3620 hc        1 MDB      0.045200
     60 HBB        -1.7260    0.8140   -5.1620 hc        1 MDB      0.080700
     61 HBBA       -3.3250    0.6890   -4.3420 hc        1 MDB      0.080700
     62 HBC        -1.1160    2.4770   -3.6860 hc        1 MDB      0.080700
     63 HBCA       -2.6780    2.3060   -2.8050 hc        1 MDB      0.080700
     64 HBD        -1.7110    1.0660   -1.1130 hc        1 MDB      0.045200
     65 HBDA       -0.1100    1.5750   -1.7850 hc        1 MDB      0.045200
     66 H2          2.7460    1.9970    0.7180 hn        1 MDB      0.476300
     67 HAS1        1.1140   -1.4540   -1.0610 hn        1 MDB      0.507800
     68 HAW2       -1.3870   -4.7580    2.3560 hn        1 MDB      0.505800
@<TRIPOS>BOND
     1    1    3 2   
     2    1    4 1   
     3    1   20 1   
     4    2    4 1   
     5    2    9 1   
     6    2   32 1   
     7    2   66 1   
     8    4    5 1   
     9    4   33 1   
    10    5    6 1   
    11    5    7 1   
    12    5    8 1   
    13    6   34 1   
    14    6   35 1   
    15    6   36 1   
    16    7   37 1   
    17    7   38 1   
    18    7   39 1   
    19    8   40 1   
    20    8   41 1   
    21    8   42 1   
    22    9   10 2   
    23    9   11 1   
    24   11   12 1   
    25   11   43 1   
    26   12   13 ar  
    27   12   17 ar  
    28   13   14 ar  
    29   13   44 1   
    30   14   15 ar  
    31   14   45 1   
    32   15   16 ar  
    33   15   46 1   
    34   16   17 ar  
    35   16   47 1   
    36   17   18 1   
    37   18   19 1   
    38   19   48 1   
    39   19   49 1   
    40   19   50 1   
    41   20   21 1   
    42   20   26 1   
    43   20   67 1   
    44   21   22 1   
    45   21   51 1   
    46   21   52 1   
    47   22   23 2   
    48   22   24 1   
    49   24   25 1   
    50   24   53 1   
    51   24   68 1   
    52   25   54 1   
    53   26   27 1   
    54   26   55 1   
    55   26   56 1   
    56   27   28 1   
    57   27   31 1   
    58   27   57 1   
    59   28   29 1   
    60   28   58 1   
    61   28   59 1   
    62   29   30 1   
    63   29   60 1   
    64   29   61 1   
    65   30   31 1   
    66   30   62 1   
    67   30   63 1   
    68   31   64 1   
    69   31   65 1   
@<TRIPOS>SUBSTRUCTURE
     1 MDB         1 TEMP              0 ****  ****    0 ROOT
