@<TRIPOS>MOLECULE
MDC
   50    52     1     0     0
SMALL
bcc


@<TRIPOS>ATOM
      1 C1          0.9500   -1.0870   -0.1150 c3        1 MDC     -0.153900
      2 C2          2.4160   -1.1980    0.2920 c3        1 MDC     -0.153900
      3 C3          2.4900   -0.6490    1.7040 c         1 MDC      0.713000
      4 O3          3.4690   -0.5640    2.4390 o         1 MDC     -0.568000
      5 N4          1.1770   -0.2010    2.1100 n         1 MDC     -0.469600
      6 C5          0.2360   -0.4810    1.0820 c         1 MDC      0.713000
      7 O5         -0.9780   -0.2710    1.1810 o         1 MDC     -0.568000
      8 C6          0.9660    0.2890    3.3870 c2        1 MDC      0.067600
      9 C7         -0.0320    1.0520    3.8900 c2        1 MDC     -0.186000
     10 N8         -1.1630    1.5820    3.1600 ny        1 MDC     -0.539600
     11 C9         -2.0640    2.4690    3.9940 c         1 MDC      0.600300
     12 O9         -2.1330    2.1970    5.1920 o         1 MDC     -0.480100
     13 O11        -3.2850    4.8880    1.3280 os        1 MDC     -0.291200
     14 C12        -2.5600    3.8670    1.9260 c         1 MDC      0.759800
     15 O12        -1.7640    3.3730    1.1170 o         1 MDC     -0.618500
     16 C13        -2.7860    3.5220    3.3140 cc        1 MDC     -0.423400
     17 C14        -3.7260    4.2420    4.0480 cd        1 MDC      0.164800
     18 C24        -4.4510    5.2730    3.4410 ca        1 MDC     -0.267800
     19 C28        -4.2190    5.5810    2.0690 ca        1 MDC      0.247100
     20 C15        -5.4290    6.0520    4.1190 ca        1 MDC      0.012000
     21 C16        -6.1150    7.0480    3.4830 ca        1 MDC     -0.233000
     22 C17        -5.8790    7.3610    2.0910 ca        1 MDC      0.311600
     23 N17        -6.5690    8.3540    1.4620 nh        1 MDC     -0.628000
     24 C18        -4.8970    6.5870    1.4000 ca        1 MDC     -0.276000
     25 C19        -7.4200    9.2800    2.1910 c3        1 MDC      0.196300
     26 C20        -8.8550    8.8160    2.3780 c3        1 MDC     -0.121100
     27 C21        -6.4860    8.5500    0.0240 c3        1 MDC      0.196300
     28 C22        -5.3490    9.4490   -0.4340 c3        1 MDC     -0.121100
     29 H11         0.8060   -0.4220   -1.0060 hc        1 MDC      0.113950
     30 H12         0.4970   -2.0850   -0.3470 hc        1 MDC      0.113950
     31 H21         3.0870   -0.5990   -0.3750 hc        1 MDC      0.113950
     32 H22         2.7760   -2.2590    0.2890 hc        1 MDC      0.113950
     33 H6          1.7990    0.0310    4.0900 h4        1 MDC      0.208000
     34 H7         -0.0270    1.3120    4.9690 hx        1 MDC      0.217000
     35 HN8        -0.8180    2.1060    2.3360 hn        1 MDC      0.481300
     36 H14        -3.8980    3.9960    5.1140 ha        1 MDC      0.175000
     37 H15        -5.6310    5.8310    5.1810 ha        1 MDC      0.155000
     38 H16        -6.8790    7.6110    4.0440 ha        1 MDC      0.162000
     39 H18        -4.6470    6.7810    0.3450 ha        1 MDC      0.178000
     40 H191       -6.9570    9.4920    3.1970 h1        1 MDC      0.068700
     41 H192       -7.4220   10.2540    1.6180 h1        1 MDC      0.068700
     42 H201       -8.9040    7.8680    2.9660 hc        1 MDC      0.055367
     43 H202       -9.3570    8.6480    1.3950 hc        1 MDC      0.055367
     44 H203       -9.4140    9.6090    2.9320 hc        1 MDC      0.055367
     45 H211       -6.3960    7.5440   -0.4800 h1        1 MDC      0.068700
     46 H212       -7.4670    8.9990   -0.3100 h1        1 MDC      0.068700
     47 H221       -5.4390   10.4700    0.0090 hc        1 MDC      0.055367
     48 H222       -5.3950    9.5390   -1.5470 hc        1 MDC      0.055367
     49 H223       -4.3550    9.0260   -0.1510 hc        1 MDC      0.055367
     50 H82        -1.7420    0.8020    2.7980 hn        1 MDC      0.481300
@<TRIPOS>BOND
     1    1    2 1   
     2    1    6 1   
     3    1   29 1   
     4    1   30 1   
     5    2    3 1   
     6    2   31 1   
     7    2   32 1   
     8    3    4 2   
     9    3    5 1   
    10    5    6 1   
    11    5    8 1   
    12    6    7 2   
    13    8    9 2   
    14    8   33 1   
    15    9   10 1   
    16    9   34 1   
    17   10   11 1   
    18   10   35 1   
    19   10   50 1   
    20   11   12 2   
    21   11   16 1   
    22   13   14 1   
    23   13   19 1   
    24   14   15 2   
    25   14   16 1   
    26   16   17 2   
    27   17   18 1   
    28   17   36 1   
    29   18   19 ar  
    30   18   20 ar  
    31   19   24 ar  
    32   20   21 ar  
    33   20   37 1   
    34   21   22 ar  
    35   21   38 1   
    36   22   23 1   
    37   22   24 ar  
    38   23   25 1   
    39   23   27 1   
    40   24   39 1   
    41   25   26 1   
    42   25   40 1   
    43   25   41 1   
    44   26   42 1   
    45   26   43 1   
    46   26   44 1   
    47   27   28 1   
    48   27   45 1   
    49   27   46 1   
    50   28   47 1   
    51   28   48 1   
    52   28   49 1   
@<TRIPOS>SUBSTRUCTURE
     1 MDC         1 TEMP              0 ****  ****    0 ROOT
