@<TRIPOS>MOLECULE
MDC
   49    51     1     0     0
SMALL
bcc


@<TRIPOS>ATOM
      1 C1         -2.4860   -1.1810   -5.3030 c3        1 MDC     -0.162400
      2 C2         -2.3920   -0.2640   -6.5190 c3        1 MDC     -0.162400
      3 C3         -0.9650    0.2710   -6.5080 c         1 MDC      0.701000
      4 O3         -0.4620    1.0220   -7.3470 o         1 MDC     -0.582500
      5 N4         -0.2800   -0.2400   -5.3740 n         1 MDC     -0.424600
      6 C5         -1.1090   -1.1230   -4.6460 c         1 MDC      0.701000
      7 O5         -0.7710   -1.7530   -3.6390 o         1 MDC     -0.582500
      8 C6          1.0680    0.0570   -5.1340 c2        1 MDC     -0.131400
      9 C7          1.6820    0.2750   -3.9450 c2        1 MDC     -0.013400
     10 N8          1.1030    0.2400   -2.6840 n         1 MDC     -0.460100
     11 C9          1.8520    0.4370   -1.5340 c         1 MDC      0.693300
     12 O9          3.0800    0.6680   -1.5940 o         1 MDC     -0.616100
     13 O11        -0.8720    0.3900    1.1690 os        1 MDC     -0.323200
     14 C12        -0.2770    0.4490   -0.0950 c         1 MDC      0.745800
     15 O12        -1.1490    0.5790   -0.9560 o         1 MDC     -0.584500
     16 C13         1.1700    0.3670   -0.2150 cc        1 MDC     -0.306400
     17 C14         1.9400    0.2470    0.9060 cd        1 MDC      0.090800
     18 C24         1.3290    0.1830    2.1950 ca        1 MDC     -0.237800
     19 C28        -0.0780    0.2550    2.2850 ca        1 MDC      0.216100
     20 C15         2.0550    0.0520    3.3930 ca        1 MDC     -0.014000
     21 C16         1.4180   -0.0080    4.6120 ca        1 MDC     -0.235000
     22 C17        -0.0100    0.0670    4.7080 ca        1 MDC      0.268600
     23 N17        -0.6440   -0.0050    5.9340 nh        1 MDC     -0.685000
     24 C18        -0.7500    0.2050    3.5090 ca        1 MDC     -0.257000
     25 C19         0.0790    0.1930    7.1700 c3        1 MDC      0.216800
     26 C20         0.6120   -1.0790    7.8130 c3        1 MDC     -0.121100
     27 C21        -2.0740   -0.1950    6.0330 c3        1 MDC      0.216800
     28 C22        -2.9020    1.0820    6.0370 c3        1 MDC     -0.121100
     29 H11        -3.2560   -0.8340   -4.5700 hc        1 MDC      0.090950
     30 H12        -2.7160   -2.2370   -5.5870 hc        1 MDC      0.090950
     31 H21        -3.1080    0.5920   -6.4570 hc        1 MDC      0.090950
     32 H22        -2.5760   -0.8110   -7.4760 hc        1 MDC      0.090950
     33 H6          1.6540    0.1710   -6.0680 h4        1 MDC      0.166000
     34 H7          2.7690    0.5030   -3.9440 h4        1 MDC      0.178000
     35 HN8         0.1410   -0.0210   -2.5960 hn        1 MDC      0.352500
     36 H14         3.0420    0.2010    0.8260 ha        1 MDC      0.172000
     37 H15         3.1550   -0.0090    3.3440 ha        1 MDC      0.142000
     38 H16         2.0240   -0.1340    5.5220 ha        1 MDC      0.143000
     39 H18        -1.8470    0.2880    3.5050 ha        1 MDC      0.163000
     40 H191       -0.6210    0.6980    7.8990 h1        1 MDC      0.053450
     41 H192        0.9370    0.9030    6.9900 h1        1 MDC      0.053450
     42 H201        1.1360   -0.8090    8.7610 hc        1 MDC      0.045867
     43 H202       -0.2180   -1.7860    8.0520 hc        1 MDC      0.045867
     44 H203        1.3350   -1.6010    7.1400 hc        1 MDC      0.045867
     45 H211       -2.4150   -0.8540    5.1840 h1        1 MDC      0.053450
     46 H212       -2.2730   -0.7570    6.9920 h1        1 MDC      0.053450
     47 H221       -3.9810    0.8090    6.1280 hc        1 MDC      0.045867
     48 H222       -2.6260    1.7370    6.8970 hc        1 MDC      0.045867
     49 H223       -2.7580    1.6600    5.0930 hc        1 MDC      0.045867
@<TRIPOS>BOND
     1    1    2 1   
     2    1    6 1   
     3    1   29 1   
     4    1   30 1   
     5    2    3 1   
     6    2   31 1   
     7    2   32 1   
     8    3    4 2   
     9    3    5 1   
    10    5    6 1   
    11    5    8 1   
    12    6    7 2   
    13    8    9 2   
    14    8   33 1   
    15    9   10 1   
    16    9   34 1   
    17   10   11 1   
    18   10   35 1   
    19   11   12 2   
    20   11   16 1   
    21   13   14 1   
    22   13   19 1   
    23   14   15 2   
    24   14   16 1   
    25   16   17 2   
    26   17   18 1   
    27   17   36 1   
    28   18   19 ar  
    29   18   20 ar  
    30   19   24 ar  
    31   20   21 ar  
    32   20   37 1   
    33   21   22 ar  
    34   21   38 1   
    35   22   23 1   
    36   22   24 ar  
    37   23   25 1   
    38   23   27 1   
    39   24   39 1   
    40   25   26 1   
    41   25   40 1   
    42   25   41 1   
    43   26   42 1   
    44   26   43 1   
    45   26   44 1   
    46   27   28 1   
    47   27   45 1   
    48   27   46 1   
    49   28   47 1   
    50   28   48 1   
    51   28   49 1   
@<TRIPOS>SUBSTRUCTURE
     1 MDC         1 TEMP              0 ****  ****    0 ROOT
