@<TRIPOS>MOLECULE
MDC
   51    53     1     0     0
SMALL
bcc


@<TRIPOS>ATOM
      1 C1          0.5300   -1.4100    0.2480 c3        1 MDC     -0.152400
      2 C2          1.7050   -2.1670    0.8580 c3        1 MDC     -0.152400
      3 C3          2.1150   -1.3730    2.0790 c         1 MDC      0.718000
      4 O3          3.0030   -1.6040    2.8900 o         1 MDC     -0.567500
      5 N4          1.2620   -0.1940    2.1950 n         1 MDC     -0.465600
      6 C5          0.3180   -0.1950    1.1350 c         1 MDC      0.718000
      7 O5         -0.5470    0.6790    0.9750 o         1 MDC     -0.567500
      8 C6          1.4090    0.6500    3.2710 c2        1 MDC      0.111600
      9 C7          0.8750    1.8520    3.5990 c2        1 MDC     -0.226000
     10 N8         -0.0510    2.6780    2.8610 n4        1 MDC     -0.518600
     11 C9         -1.4130    2.7620    3.4970 c         1 MDC      0.563300
     12 O9         -1.6840    1.9700    4.3920 o         1 MDC     -0.406100
     13 O11        -2.8020    5.7490    1.5590 os        1 MDC     -0.280200
     14 C12        -1.9030    4.7890    2.0180 c         1 MDC      0.739800
     15 O12        -0.7960    4.9430    1.5050 o         1 MDC     -0.550500
     16 C13        -2.3400    3.7880    2.9880 cc        1 MDC     -0.306400
     17 C14        -3.6260    3.7980    3.4500 cd        1 MDC      0.121800
     18 C24        -4.5460    4.7960    2.9750 ca        1 MDC     -0.157800
     19 C28        -4.0900    5.7430    2.0380 ca        1 MDC      0.189100
     20 C15        -5.8840    4.8700    3.4070 ca        1 MDC     -0.012000
     21 C16        -6.7280    5.8550    2.9190 ca        1 MDC     -0.153000
     22 C17        -6.2520    6.8010    1.9750 ca        1 MDC      0.047600
     23 N17        -7.1970    7.8240    1.4920 n4        1 MDC     -0.575800
     24 C18        -4.9320    6.7530    1.5260 ca        1 MDC     -0.121000
     25 C19        -7.3300    8.9320    2.5090 c3        1 MDC      0.115300
     26 C20        -8.5610    9.7850    2.2910 c3        1 MDC     -0.136100
     27 C21        -6.9080    8.3230    0.1000 c3        1 MDC      0.115300
     28 C22        -5.9950    9.5240   -0.0110 c3        1 MDC     -0.136100
     29 H11        -0.4070   -2.0240    0.2320 hc        1 MDC      0.122200
     30 H12         0.7410   -1.0710   -0.7990 hc        1 MDC      0.122200
     31 H21         1.4250   -3.2070    1.1690 hc        1 MDC      0.122200
     32 H22         2.5750   -2.2390    0.1530 hc        1 MDC      0.122200
     33 H6          2.1580    0.2560    4.0140 h4        1 MDC      0.221000
     34 H7          1.1460    2.2980    4.5790 hx        1 MDC      0.206000
     35 HN8        -0.1800    2.3410    1.8880 hn        1 MDC      0.487300
     36 H14        -3.9790    3.0500    4.1880 ha        1 MDC      0.201000
     37 H15        -6.2630    4.1360    4.1410 ha        1 MDC      0.188000
     38 H16        -7.7720    5.8870    3.2780 ha        1 MDC      0.177000
     39 H18        -4.5100    7.4590    0.7900 ha        1 MDC      0.197000
     40 H191       -7.3810    8.4430    3.5260 hx        1 MDC      0.107450
     41 H192       -6.3950    9.5600    2.4630 hx        1 MDC      0.107450
     42 H201       -9.5020    9.1860    2.3600 hc        1 MDC      0.083867
     43 H202       -8.5860   10.5630    3.0990 hc        1 MDC      0.083867
     44 H203       -8.5370   10.3110    1.3050 hc        1 MDC      0.083867
     45 H211       -7.9120    8.5950   -0.3450 hx        1 MDC      0.107450
     46 H212       -6.4840    7.4560   -0.4850 hx        1 MDC      0.107450
     47 H221       -6.4930   10.4540    0.3610 hc        1 MDC      0.083867
     48 H222       -5.0310    9.3950    0.5350 hc        1 MDC      0.083867
     49 H223       -5.7640    9.6720   -1.0990 hc        1 MDC      0.083867
     50 H82         0.3460    3.6330    2.8010 hn        1 MDC      0.487300
     51 H171       -8.1190    7.3580    1.4390 hn        1 MDC      0.457800
@<TRIPOS>BOND
     1    1    2 1   
     2    1    6 1   
     3    1   29 1   
     4    1   30 1   
     5    2    3 1   
     6    2   31 1   
     7    2   32 1   
     8    3    4 2   
     9    3    5 1   
    10    5    6 1   
    11    5    8 1   
    12    6    7 2   
    13    8    9 2   
    14    8   33 1   
    15    9   10 1   
    16    9   34 1   
    17   10   11 1   
    18   10   35 1   
    19   10   50 1   
    20   11   12 2   
    21   11   16 1   
    22   13   14 1   
    23   13   19 1   
    24   14   15 2   
    25   14   16 1   
    26   16   17 2   
    27   17   18 1   
    28   17   36 1   
    29   18   19 ar  
    30   18   20 ar  
    31   19   24 ar  
    32   20   21 ar  
    33   20   37 1   
    34   21   22 ar  
    35   21   38 1   
    36   22   23 1   
    37   22   24 ar  
    38   23   25 1   
    39   23   27 1   
    40   23   51 1   
    41   24   39 1   
    42   25   26 1   
    43   25   40 1   
    44   25   41 1   
    45   26   42 1   
    46   26   43 1   
    47   26   44 1   
    48   27   28 1   
    49   27   45 1   
    50   27   46 1   
    51   28   47 1   
    52   28   48 1   
    53   28   49 1   
@<TRIPOS>SUBSTRUCTURE
     1 MDC         1 TEMP              0 ****  ****    0 ROOT
