@<TRIPOS>MOLECULE
MDC
   49    46     1     0     0
SMALL
bcc


@<TRIPOS>ATOM
      1 C1         -1.1690    1.2660    3.8740 c3        1 MDC     -0.190500
      2 C2         -1.7000    1.9520    5.3870 c3        1 MDC     -0.190500
      3 C3         -2.8870    2.1240    5.2080 c2        1 MDC      0.308500
      4 O3         -3.5720    3.0330    5.6690 o         1 MDC     -0.307000
      5 N4         -3.3270    1.0850    4.2080 n         1 MDC     -0.288000
      6 C5         -2.0760    0.5080    3.5820 c2        1 MDC      0.308500
      7 O5         -2.0370   -0.3480    2.7460 o         1 MDC     -0.307000
      8 C6         -4.6640    0.8390    3.7930 c2        1 MDC     -0.131000
      9 C7         -5.0080    0.9820    2.4870 c1        1 MDC     -0.018000
     10 N8         -4.0280    1.3780    1.5310 n2        1 MDC     -0.302000
     11 C9         -3.9630    0.7170    0.2540 c2        1 MDC      0.367000
     12 O9         -4.9800    0.5950   -0.4270 o         1 MDC     -0.374000
     13 O11        -1.0410   -1.6910   -0.3970 o         1 MDC     -0.186000
     14 C12        -2.2620   -1.1750    0.0480 c1        1 MDC      0.358000
     15 O12        -3.0370   -1.8900    0.6710 o         1 MDC     -0.305000
     16 C13        -2.6170    0.1420   -0.2540 c2        1 MDC     -0.258000
     17 C14        -1.7580    0.9380   -0.9960 c2        1 MDC      0.071000
     18 C24        -0.5270    0.4180   -1.4440 c1        1 MDC     -0.204000
     19 C28        -0.1770   -0.8960   -1.1400 c1        1 MDC      0.156000
     20 C15         0.3630    1.2310   -2.1630 c1        1 MDC     -0.032000
     21 C16         1.6130    0.7180   -2.5780 c1        1 MDC     -0.198000
     22 C17         1.9600   -0.5800   -2.2780 c1        1 MDC      0.139000
     23 N17         3.1850   -1.1100   -2.7520 n2        1 MDC     -0.249000
     24 C18         1.0630   -1.4040   -1.5530 c2        1 MDC     -0.232000
     25 C19         3.1950   -2.3400   -3.5420 c3        1 MDC     -0.047500
     26 C20         3.8320   -2.0770   -4.8520 c3        1 MDC     -0.233000
     27 C21         4.4490   -0.4620   -2.3960 c3        1 MDC     -0.047500
     28 C22         5.1550   -1.2840   -1.2920 c3        1 MDC     -0.233000
     29 H11        -0.8690    1.9730    3.2610 hc        1 MDC      0.130500
     30 H12        -0.3470    0.7190    3.9550 hc        1 MDC      0.130500
     31 H21        -1.4990    1.4920    6.2280 hc        1 MDC      0.130500
     32 H22        -1.2270    2.8010    5.5180 hc        1 MDC      0.130500
     33 H6         -5.3300    0.5700    4.4430 h4        1 MDC      0.167000
     34 H7         -5.9290    0.8140    2.2020 ha        1 MDC      0.179000
     35 HN8        -3.5340    2.1190    1.6770 hn        1 MDC      0.267000
     36 H14        -2.0390    1.8040   -1.2780 ha        1 MDC      0.174000
     37 H15         0.1210    2.1400   -2.3750 ha        1 MDC      0.144000
     38 H16         2.2440    1.2950   -3.0770 ha        1 MDC      0.146000
     39 H18         1.3040   -2.3090   -1.3440 ha        1 MDC      0.163000
     40 H191        2.2860   -2.6460   -3.6790 h1        1 MDC      0.090000
     41 H192        3.6950   -3.0170   -3.0730 h1        1 MDC      0.090000
     42 H201        3.4810   -2.7110   -5.5220 hc        1 MDC      0.084000
     43 H202        3.6360   -1.1700   -5.1310 hc        1 MDC      0.084000
     44 H203        4.7990   -2.1910   -4.7710 hc        1 MDC      0.084000
     45 H211        4.2760    0.4340   -2.0700 h1        1 MDC      0.090000
     46 H212        5.0180   -0.4160   -3.1770 h1        1 MDC      0.090000
     47 H221        4.5270   -1.9150   -0.9060 hc        1 MDC      0.084000
     48 H222        5.9200   -1.7790   -1.6850 hc        1 MDC      0.084000
     49 H223        5.4830   -0.6780   -0.5900 hc        1 MDC      0.084000
@<TRIPOS>BOND
     1    1    2 1   
     2    1    6 1   
     3    1   29 1   
     4    1   30 1   
     5    2    3 1   
     6    2   31 1   
     7    2   32 1   
     8    3    4 1   
     9    3    5 1   
    10    5    6 1   
    11    5    8 1   
    12    6    7 1   
    13    8    9 1   
    14    8   33 1   
    15    9   34 1   
    16   10   11 1   
    17   10   35 1   
    18   11   12 1   
    19   11   16 1   
    20   13   19 1   
    21   14   15 1   
    22   14   16 1   
    23   16   17 1   
    24   17   18 1   
    25   17   36 1   
    26   18   20 1   
    27   19   24 1   
    28   20   37 1   
    29   21   22 1   
    30   21   38 1   
    31   22   24 1   
    32   23   25 1   
    33   23   27 1   
    34   24   39 1   
    35   25   26 1   
    36   25   40 1   
    37   25   41 1   
    38   26   42 1   
    39   26   43 1   
    40   26   44 1   
    41   27   28 1   
    42   27   45 1   
    43   27   46 1   
    44   28   47 1   
    45   28   48 1   
    46   28   49 1   
@<TRIPOS>SUBSTRUCTURE
     1 MDC         1 TEMP              0 ****  ****    0 ROOT
