@<TRIPOS>MOLECULE
MDD
    9     8     1     0     0
SMALL
bcc


@<TRIPOS>ATOM
      1 OA4         0.2870   -0.7540   -2.2350 o         1 MDD     -0.509100
      2 CA5        -0.1960   -0.2480   -1.2230 c         1 MDD      0.568900
      3 CA6         0.6230    0.0660   -0.0100 c3        1 MDD     -0.335400
      4 CA7        -0.1980    0.1610    1.2380 c         1 MDD      0.568900
      5 OA8         0.2840    0.0110    2.3600 o         1 MDD     -0.509100
      6 HA5        -1.2770    0.0150   -1.1620 h4        1 MDD     -0.001800
      7 HA61        1.4380   -0.6980    0.1170 hc        1 MDD      0.109700
      8 HA62        1.1320    1.0570   -0.1750 hc        1 MDD      0.109700
      9 HA7        -1.2780    0.3910    1.0930 h4        1 MDD     -0.001800
@<TRIPOS>BOND
     1    1    2 2   
     2    2    3 1   
     3    2    6 1   
     4    3    4 1   
     5    3    7 1   
     6    3    8 1   
     7    4    5 2   
     8    4    9 1   
@<TRIPOS>SUBSTRUCTURE
     1 MDD         1 TEMP              0 ****  ****    0 ROOT
