@<TRIPOS>MOLECULE
MDD
    9     8     1     0     0
SMALL
bcc


@<TRIPOS>ATOM
      1 OA4         0.4140    0.9050   -0.2750 o         1 MDD     -0.509100
      2 CA5         1.0760   -0.0700    0.0750 c         1 MDD      0.568900
      3 CA6         1.9210   -0.0690    1.3100 c3        1 MDD     -0.335400
      4 CA7         3.0130   -1.0930    1.2710 c         1 MDD      0.568900
      5 OA8         4.0290   -1.0030    1.9570 o         1 MDD     -0.509100
      6 HA5         1.0700   -1.0190   -0.5090 h4        1 MDD     -0.001800
      7 HA61        1.2580   -0.2930    2.1930 hc        1 MDD      0.109700
      8 HA62        2.3540    0.9540    1.4840 hc        1 MDD      0.109700
      9 HA7         2.8450   -1.9560    0.5870 h4        1 MDD     -0.001800
@<TRIPOS>BOND
     1    1    2 2   
     2    2    3 1   
     3    2    6 1   
     4    3    4 1   
     5    3    7 1   
     6    3    8 1   
     7    4    5 2   
     8    4    9 1   
@<TRIPOS>SUBSTRUCTURE
     1 MDD         1 TEMP              0 ****  ****    0 ROOT
