@<TRIPOS>MOLECULE
MDF
   25    25     1     0     0
SMALL
bcc


@<TRIPOS>ATOM
      1 N           1.3980   -1.1380   -2.1350 n3        1 MDF     -0.890800
      2 CA          1.2410   -0.0760   -1.1680 c3        1 MDF      0.184800
      3 CG         -0.1790    0.0240   -0.6580 ca        1 MDF     -0.019300
      4 CD1        -0.9730    1.0970   -1.0520 ca        1 MDF     -0.203000
      5 CD2        -0.6810   -0.9690    0.1890 ca        1 MDF     -0.203000
      6 CE1        -2.2960    1.1730   -0.5790 ca        1 MDF      0.161600
      7 CE2        -2.0010   -0.8730    0.6470 ca        1 MDF      0.161600
      8 CZ         -2.8270    0.1980    0.2710 ca        1 MDF     -0.238000
      9 OH1        -3.0280    2.2580   -0.9990 oh        1 MDF     -0.494100
     10 OH2        -2.5630   -1.8080    1.4840 oh        1 MDF     -0.494100
     11 C           2.1630   -0.2280    0.0460 c         1 MDF      0.584100
     12 O           2.4970   -1.2700    0.6160 o         1 MDF     -0.553000
     13 OXT         2.6730    0.9560    0.4870 os        1 MDF     -0.425900
     14 CH3         3.5280    0.9050    1.6310 c3        1 MDF      0.123700
     15 H           2.3600   -1.2480   -2.3880 hn        1 MDF      0.366800
     16 H2          1.0400   -2.0050   -1.7840 hn        1 MDF      0.366800
     17 HA          1.5220    0.8940   -1.6830 h1        1 MDF      0.101700
     18 HD1        -0.5930    1.8800   -1.7240 ha        1 MDF      0.155000
     19 HD2        -0.0380   -1.8070    0.5000 ha        1 MDF      0.155000
     20 HZ         -3.8590    0.2530    0.6410 ha        1 MDF      0.155000
     21 HH1        -3.9150    2.1880   -0.6160 ho        1 MDF      0.424500
     22 HH2        -1.8920   -2.4810    1.6740 ho        1 MDF      0.424500
     23 H31         2.9720    0.4810    2.5020 h1        1 MDF      0.052700
     24 H32         4.4250    0.2790    1.4080 h1        1 MDF      0.052700
     25 H33         3.8040    1.9740    1.8020 h1        1 MDF      0.052700
@<TRIPOS>BOND
     1    1    2 1   
     2    1   15 1   
     3    1   16 1   
     4    2    3 1   
     5    2   11 1   
     6    2   17 1   
     7    3    4 ar  
     8    3    5 ar  
     9    4    6 ar  
    10    4   18 1   
    11    5    7 ar  
    12    5   19 1   
    13    6    8 ar  
    14    6    9 1   
    15    7    8 ar  
    16    7   10 1   
    17    8   20 1   
    18    9   21 1   
    19   10   22 1   
    20   11   12 2   
    21   11   13 1   
    22   13   14 1   
    23   14   23 1   
    24   14   24 1   
    25   14   25 1   
@<TRIPOS>SUBSTRUCTURE
     1 MDF         1 TEMP              0 ****  ****    0 ROOT
