@<TRIPOS>MOLECULE
MDH
   16    14     1     0     0
SMALL
bcc


@<TRIPOS>ATOM
      1 N           0.3700    0.4580   -0.8540 n3        1 MDH     -0.276000
      2 CM          1.7940    0.4580   -0.8540 c3        1 MDH     -0.093000
      3 CA         -0.3390    0.4580    0.3740 c2        1 MDH     -0.019000
      4 C          -0.2560    1.6550    1.2960 c2        1 MDH      0.364000
      5 O          -0.8600    2.7190    1.0010 o         1 MDH     -0.563500
      6 OXT         0.4170    1.5870    2.3570 o         1 MDH     -0.563500
      7 CB         -1.0870   -0.6080    0.7200 c1        1 MDH     -0.320000
      8 CG         -1.1700   -1.8050   -0.2010 c2        1 MDH     -0.142000
      9 H          -0.0850    0.5000   -1.6430 hn        1 MDH      0.145000
     10 HM1         2.1190    1.3780   -0.8270 h1        1 MDH      0.067000
     11 HM2         2.1190    0.0220   -1.6650 h1        1 MDH      0.067000
     12 HM3         2.1190   -0.0260   -0.0720 h1        1 MDH      0.067000
     13 HB         -1.5750   -0.6080    1.5660 ha        1 MDH      0.135000
     14 HG1        -0.2780   -2.1790   -0.3300 ha        1 MDH      0.044000
     15 HG2        -1.7530   -2.4810    0.1950 ha        1 MDH      0.044000
     16 HG3        -1.5340   -1.5270   -1.0630 ha        1 MDH      0.044000
@<TRIPOS>BOND
     1    1    2 1   
     2    1    3 1   
     3    1    9 1   
     4    2   10 1   
     5    2   11 1   
     6    2   12 1   
     7    3    4 1   
     8    3    7 1   
     9    4    5 1   
    10    4    6 1   
    11    7   13 1   
    12    8   14 1   
    13    8   15 1   
    14    8   16 1   
@<TRIPOS>SUBSTRUCTURE
     1 MDH         1 TEMP              0 ****  ****    0 ROOT
