@<TRIPOS>MOLECULE
MDH
   16    15     1     0     0
SMALL
bcc


@<TRIPOS>ATOM
      1 N          -0.5940   -1.3500    0.3590 nh        1 MDH     -0.721000
      2 CM          0.4510   -2.2860    0.0530 c3        1 MDH      0.183100
      3 CA         -0.3620    0.0160    0.1320 ce        1 MDH      0.043800
      4 C           1.0870    0.5430    0.1010 c         1 MDH      0.913800
      5 O           1.8990   -0.0270   -0.6820 o         1 MDH     -0.828800
      6 OXT         1.3690    1.5270    0.8340 o         1 MDH     -0.828800
      7 CB         -1.3700    0.9100   -0.0280 c2        1 MDH     -0.324200
      8 CG         -2.8020    0.5790   -0.0970 c3        1 MDH     -0.019900
      9 H          -1.4800   -1.6500   -0.0020 hn        1 MDH      0.349800
     10 HM1         1.4090   -1.9460    0.5290 h1        1 MDH      0.027700
     11 HM2         0.1560   -3.2870    0.4680 h1        1 MDH      0.027700
     12 HM3         0.6410   -2.3950   -1.0500 h1        1 MDH      0.027700
     13 HB         -1.1020    1.9750   -0.0810 ha        1 MDH      0.135000
     14 HG1        -3.1720    0.1690    0.8770 hc        1 MDH      0.004700
     15 HG2        -3.4090    1.4870   -0.3390 hc        1 MDH      0.004700
     16 HG3        -3.0080   -0.1890   -0.8860 hc        1 MDH      0.004700
@<TRIPOS>BOND
     1    1    2 1   
     2    1    3 1   
     3    1    9 1   
     4    2   10 1   
     5    2   11 1   
     6    2   12 1   
     7    3    4 1   
     8    3    7 2   
     9    4    5 1   
    10    4    6 1   
    11    7    8 1   
    12    7   13 1   
    13    8   14 1   
    14    8   15 1   
    15    8   16 1   
@<TRIPOS>SUBSTRUCTURE
     1 MDH         1 TEMP              0 ****  ****    0 ROOT
