@<TRIPOS>MOLECULE
MDJ
   37    38     1     0     0
SMALL
bcc


@<TRIPOS>ATOM
      1 P          -3.9370   -0.0090    1.2780 p5        1 MDJ      1.329900
      2 N1          1.9310   -0.6820   -0.2420 n         1 MDJ     -0.343000
      3 C2          3.3040   -0.6350   -0.5840 c         1 MDJ      0.714700
      4 O2          3.7360   -1.3600   -1.5140 o         1 MDJ     -0.707500
      5 C3          4.1600    0.2600    0.1820 cc        1 MDJ     -0.408400
      6 C4          3.6450    1.0290    1.2250 cd        1 MDJ      0.265000
      7 N4          4.4600    1.8420    2.0050 nh        1 MDJ     -0.837600
      8 C5          2.2450    0.9360    1.5210 cd        1 MDJ     -0.334000
      9 C6          1.4480    0.0990    0.7720 cc        1 MDJ      0.089600
     10 C1'         0.9920   -1.5060   -1.0360 c3        1 MDJ      0.284500
     11 O1P        -3.4610   -1.4380    1.4480 o         1 MDJ     -0.929500
     12 C2'         0.3270   -2.6300   -0.2180 c3        1 MDJ     -0.131400
     13 C20         5.5990    0.2960   -0.1890 c3        1 MDJ      0.201600
     14 O21         6.0520    1.6110   -0.5050 oh        1 MDJ     -0.643800
     15 O2P        -3.1690    0.9850    2.1040 o         1 MDJ     -0.929500
     16 C3'        -1.0930   -2.1190    0.0720 c3        1 MDJ      0.150100
     17 O3'        -2.0050   -3.1730   -0.1240 oh        1 MDJ     -0.667800
     18 C4'        -1.3210   -0.9810   -0.9450 c3        1 MDJ      0.050100
     19 O4'        -0.0420   -0.6860   -1.5680 os        1 MDJ     -0.440600
     20 C5'        -1.9050    0.3150   -0.3340 c3        1 MDJ      0.225400
     21 O5'        -3.2710    0.2740   -0.3110 os        1 MDJ     -0.555200
     22 HN4         5.3180    2.1180    1.5810 hn        1 MDJ      0.401300
     23 HN4A        3.9850    2.5670    2.4920 hn        1 MDJ      0.401300
     24 H5          1.7930    1.5220    2.3310 ha        1 MDJ      0.157000
     25 H6          0.3490    0.0270    0.9610 h4        1 MDJ      0.221000
     26 H1'         1.5750   -1.8980   -1.9200 h2        1 MDJ      0.092700
     27 H2'         0.2850   -3.5570   -0.8410 hc        1 MDJ      0.052200
     28 H2'A        0.8720   -2.8660    0.7250 hc        1 MDJ      0.052200
     29 H20         6.2520   -0.0130    0.6740 h1        1 MDJ      0.049200
     30 H20A        5.7980   -0.3810   -1.0650 h1        1 MDJ      0.049200
     31 HO21        5.4450    1.9620   -1.1660 ho        1 MDJ      0.403000
     32 H3'        -1.1830   -1.7350    1.1270 h1        1 MDJ      0.101700
     33 HO3'       -2.8330   -2.8820    0.3280 ho        1 MDJ      0.499000
     34 H4'        -1.9860   -1.3320   -1.7780 h1        1 MDJ      0.071700
     35 H5'        -1.4940    0.4730    0.7060 h1        1 MDJ     -0.002800
     36 H5'A       -1.5580    1.1650   -0.9930 h1        1 MDJ     -0.002800
     37 O8         -5.4060    0.2090    1.0920 o         1 MDJ     -0.929500
@<TRIPOS>BOND
     1    1   11 1   
     2    1   15 1   
     3    1   21 1   
     4    1   37 1   
     5    2    3 1   
     6    2    9 1   
     7    2   10 1   
     8    3    4 2   
     9    3    5 1   
    10    5    6 2   
    11    5   13 1   
    12    6    7 1   
    13    6    8 1   
    14    7   22 1   
    15    7   23 1   
    16    8    9 2   
    17    8   24 1   
    18    9   25 1   
    19   10   12 1   
    20   10   19 1   
    21   10   26 1   
    22   12   16 1   
    23   12   27 1   
    24   12   28 1   
    25   13   14 1   
    26   13   29 1   
    27   13   30 1   
    28   14   31 1   
    29   16   17 1   
    30   16   18 1   
    31   16   32 1   
    32   17   33 1   
    33   18   19 1   
    34   18   20 1   
    35   18   34 1   
    36   20   21 1   
    37   20   35 1   
    38   20   36 1   
@<TRIPOS>SUBSTRUCTURE
     1 MDJ         1 TEMP              0 ****  ****    0 ROOT
