@<TRIPOS>MOLECULE
MDK
   36    37     1     0     0
SMALL
bcc


@<TRIPOS>ATOM
      1 P           3.6770    0.0660   -1.3870 p5        1 MDK      1.329900
      2 N1         -2.1950   -0.5200    0.3370 n         1 MDK     -0.343000
      3 C2         -3.5510   -0.4910    0.7360 c         1 MDK      0.709700
      4 O2         -3.9610   -1.3110    1.5930 o         1 MDK     -0.704500
      5 C3         -4.4210    0.5020    0.1100 cc        1 MDK     -0.329400
      6 C4         -3.9270    1.3710   -0.8560 cd        1 MDK      0.219000
      7 N4         -4.7530    2.2870   -1.5180 nh        1 MDK     -0.820600
      8 C5         -2.5410    1.2880   -1.2200 cd        1 MDK     -0.323000
      9 C6         -1.7330    0.3610   -0.6040 cc        1 MDK      0.078600
     10 C1'        -1.2430   -1.4460    0.9920 c3        1 MDK      0.285500
     11 O1P         2.9520    1.1680   -2.1080 o         1 MDK     -0.929833
     12 C2'        -0.6710   -2.5100    0.0340 c3        1 MDK     -0.130400
     13 C21        -5.8290    0.5360    0.5540 c3        1 MDK     -0.015900
     14 O2P         5.1580    0.1880   -1.2140 o         1 MDK     -0.929833
     15 C3'         0.7540   -2.0300   -0.2830 c3        1 MDK      0.152100
     16 O3'         1.6270   -3.1340   -0.2300 oh        1 MDK     -0.668800
     17 C4'         1.0810   -0.9990    0.8160 c3        1 MDK      0.051100
     18 O4'        -0.1490   -0.7140    1.5330 os        1 MDK     -0.440600
     19 C5'         1.6900    0.3220    0.2900 c3        1 MDK      0.225400
     20 O5'         3.0530    0.2440    0.2350 os        1 MDK     -0.556200
     21 HN4        -5.5500    2.5700   -0.9910 hn        1 MDK      0.381300
     22 HN4A       -4.2580    3.0530   -1.9190 hn        1 MDK      0.381300
     23 H5         -2.1120    1.9530   -1.9810 ha        1 MDK      0.154000
     24 H6         -0.6450    0.2910   -0.8420 h4        1 MDK      0.218000
     25 H1'        -1.7890   -1.9010    1.8690 h2        1 MDK      0.091700
     26 H2'        -0.6390   -3.4940    0.5630 hc        1 MDK      0.052200
     27 H2'A       -1.2730   -2.6310   -0.8950 hc        1 MDK      0.052200
     28 H21        -6.0870    1.5360    0.9880 hc        1 MDK      0.026033
     29 H21A       -6.5220    0.3420   -0.3040 hc        1 MDK      0.026033
     30 H21B       -6.0150   -0.2420    1.3370 hc        1 MDK      0.026033
     31 H3'         0.8090   -1.5560   -1.3030 h1        1 MDK      0.098700
     32 HO3'        2.4510   -2.8310   -0.6810 ho        1 MDK      0.500000
     33 H4'         1.7730   -1.4490    1.5780 h1        1 MDK      0.072700
     34 H5'         1.2630    0.5670   -0.7260 h1        1 MDK     -0.002800
     35 H5'A        1.3800    1.1310    1.0170 h1        1 MDK     -0.002800
     36 O7          3.1220   -1.3170   -1.6690 o         1 MDK     -0.929833
@<TRIPOS>BOND
     1    1   11 1   
     2    1   14 1   
     3    1   20 1   
     4    1   36 1   
     5    2    3 1   
     6    2    9 1   
     7    2   10 1   
     8    3    4 2   
     9    3    5 1   
    10    5    6 2   
    11    5   13 1   
    12    6    7 1   
    13    6    8 1   
    14    7   21 1   
    15    7   22 1   
    16    8    9 2   
    17    8   23 1   
    18    9   24 1   
    19   10   12 1   
    20   10   18 1   
    21   10   25 1   
    22   12   15 1   
    23   12   26 1   
    24   12   27 1   
    25   13   28 1   
    26   13   29 1   
    27   13   30 1   
    28   15   16 1   
    29   15   17 1   
    30   15   31 1   
    31   16   32 1   
    32   17   18 1   
    33   17   19 1   
    34   17   33 1   
    35   19   20 1   
    36   19   34 1   
    37   19   35 1   
@<TRIPOS>SUBSTRUCTURE
     1 MDK         1 TEMP              0 ****  ****    0 ROOT
