@<TRIPOS>MOLECULE
MDL
   69    72     1     0     0
SMALL
bcc


@<TRIPOS>ATOM
      1 N2         -3.5870    0.0950   -2.1980 n3        1 MDL     -0.803200
      2 C6         -3.6720    0.1080   -0.7520 c3        1 MDL      0.126500
      3 C7         -2.3180    0.4350   -0.0690 c         1 MDL      0.643100
      4 O9         -1.5080    1.2210   -0.6070 o         1 MDL     -0.649100
      5 C55        -4.6890    1.1460   -0.2330 c3        1 MDL     -0.029100
      6 C57        -6.0900    0.6900   -0.4380 ca        1 MDL     -0.083300
      7 C60        -6.7980    0.0990    0.6160 ca        1 MDL     -0.117500
      8 C64        -6.7190    0.8620   -1.6760 ca        1 MDL     -0.117500
      9 C61        -8.1160   -0.3140    0.4330 ca        1 MDL     -0.130500
     10 C63        -8.0380    0.4460   -1.8560 ca        1 MDL     -0.130500
     11 C62        -8.7390   -0.1410   -0.8030 ca        1 MDL     -0.127000
     12 C1         -2.8300   -1.0070   -2.7370 c3        1 MDL      0.140100
     13 N8         -2.0360   -0.1180    1.1620 n         1 MDL     -0.458800
     14 C18        -0.7640    0.0600    1.8410 c3        1 MDL      0.046700
     15 C21         0.4350   -0.5500    1.0800 c         1 MDL      0.646100
     16 O24         0.3040   -1.3830    0.1660 o         1 MDL     -0.590100
     17 C15        -0.8940   -0.6200    3.2230 c3        1 MDL     -0.084400
     18 C12        -2.2190   -1.3770    3.2070 c3        1 MDL     -0.089400
     19 C11        -2.8760   -1.0810    1.8490 c3        1 MDL      0.093000
     20 N23         1.6940   -0.1490    1.5130 n         1 MDL     -0.547900
     21 C25         2.8720   -0.4230    0.7290 c3        1 MDL      0.015700
     22 C26         3.5860    0.8400    0.1920 c3        1 MDL     -0.013200
     23 C27         2.6630    1.7980   -0.4220 cc        1 MDL     -0.189400
     24 C30         1.4690    1.5260   -1.0940 cd        1 MDL     -0.074100
     25 C31         2.8290    3.2380   -0.4260 ca        1 MDL     -0.082800
     26 C32         1.6770    3.7780   -1.1140 ca        1 MDL     -0.056200
     27 N33         0.8830    2.7080   -1.5470 na        1 MDL     -0.164400
     28 C34         1.5230    5.1620   -1.2860 ca        1 MDL     -0.136000
     29 C35         2.5110    5.9900   -0.7760 ca        1 MDL     -0.119000
     30 C36         3.6360    5.4720   -0.1110 ca        1 MDL     -0.152000
     31 C37         3.8040    4.1060    0.0660 ca        1 MDL     -0.094000
     32 C44         3.9050   -1.1940    1.5490 c         1 MDL      0.530100
     33 O46         4.1670   -1.0010    2.7280 o         1 MDL     -0.442100
     34 C47         4.6830   -2.2980    0.7690 c3        1 MDL      0.282600
     35 F48         4.9700   -1.9430   -0.5260 f         1 MDL     -0.196300
     36 F49         5.9230   -2.5390    1.3060 f         1 MDL     -0.196300
     37 C50         3.8200   -3.6660    0.7700 c3        1 MDL      0.593900
     38 F51         2.8230   -3.6530   -0.1630 f         1 MDL     -0.210633
     39 F52         4.5840   -4.7620    0.4910 f         1 MDL     -0.210633
     40 F53         3.2210   -3.9230    1.9690 f         1 MDL     -0.210633
     41 HN2        -3.2210    0.9720   -2.5270 hn        1 MDL      0.371800
     42 H6         -4.0130   -0.9210   -0.4300 h1        1 MDL      0.082700
     43 H551       -4.5010    1.3060    0.8630 hc        1 MDL      0.059200
     44 H552       -4.5260    2.1310   -0.7470 hc        1 MDL      0.059200
     45 H60        -6.3110   -0.0370    1.5930 ha        1 MDL      0.132500
     46 H64        -6.1640    1.3150   -2.5110 ha        1 MDL      0.132500
     47 H61        -8.6660   -0.7760    1.2660 ha        1 MDL      0.131500
     48 H63        -8.5250    0.5810   -2.8330 ha        1 MDL      0.131500
     49 H62        -9.7790   -0.4670   -0.9460 ha        1 MDL      0.132000
     50 H11        -2.8090   -0.9060   -3.8540 h1        1 MDL      0.041367
     51 H12        -1.7720   -1.0520   -2.3580 h1        1 MDL      0.041367
     52 H13        -3.3420   -1.9700   -2.4740 h1        1 MDL      0.041367
     53 H18        -0.5820    1.1710    1.9440 h1        1 MDL      0.086700
     54 H151       -0.8910    0.1610    4.0240 hc        1 MDL      0.066700
     55 H152       -0.0390   -1.3130    3.4130 hc        1 MDL      0.066700
     56 H121       -2.8810   -1.0400    4.0420 hc        1 MDL      0.060200
     57 H122       -2.0520   -2.4760    3.3210 hc        1 MDL      0.060200
     58 H111       -3.9060   -0.6470    1.9840 h1        1 MDL      0.051700
     59 H112       -2.9670   -2.0260    1.2440 h1        1 MDL      0.051700
     60 HN3         1.7580    0.6260    2.1320 hn        1 MDL      0.320500
     61 H25         2.5710   -1.0720   -0.1540 h1        1 MDL      0.116700
     62 H261        4.1380    1.3440    1.0320 hc        1 MDL      0.064700
     63 H262        4.3490    0.4950   -0.5600 hc        1 MDL      0.064700
     64 H30         0.9760    0.5650   -1.2800 h4        1 MDL      0.186000
     65 HN33       -0.0730    2.7780   -1.7930 hn        1 MDL      0.312700
     66 H34         0.6490    5.5730   -1.8090 ha        1 MDL      0.134000
     67 H35         2.4160    7.0800   -0.8940 ha        1 MDL      0.129000
     68 H36         4.3960    6.1690    0.2720 ha        1 MDL      0.129000
     69 H37         4.6890    3.7080    0.5820 ha        1 MDL      0.130000
@<TRIPOS>BOND
     1    1    2 1   
     2    1   12 1   
     3    1   41 1   
     4    2    3 1   
     5    2    5 1   
     6    2   42 1   
     7    3    4 2   
     8    3   13 1   
     9    5    6 1   
    10    5   43 1   
    11    5   44 1   
    12    6    7 ar  
    13    6    8 ar  
    14    7    9 ar  
    15    7   45 1   
    16    8   10 ar  
    17    8   46 1   
    18    9   11 ar  
    19    9   47 1   
    20   10   11 ar  
    21   10   48 1   
    22   11   49 1   
    23   12   50 1   
    24   12   51 1   
    25   12   52 1   
    26   13   14 1   
    27   13   19 1   
    28   14   15 1   
    29   14   17 1   
    30   14   53 1   
    31   15   16 2   
    32   15   20 1   
    33   17   18 1   
    34   17   54 1   
    35   17   55 1   
    36   18   19 1   
    37   18   56 1   
    38   18   57 1   
    39   19   58 1   
    40   19   59 1   
    41   20   21 1   
    42   20   60 1   
    43   21   22 1   
    44   21   32 1   
    45   21   61 1   
    46   22   23 1   
    47   22   62 1   
    48   22   63 1   
    49   23   24 2   
    50   23   25 1   
    51   24   27 1   
    52   24   64 1   
    53   25   26 ar  
    54   25   31 ar  
    55   26   27 1   
    56   26   28 ar  
    57   27   65 1   
    58   28   29 ar  
    59   28   66 1   
    60   29   30 ar  
    61   29   67 1   
    62   30   31 ar  
    63   30   68 1   
    64   31   69 1   
    65   32   33 2   
    66   32   34 1   
    67   34   35 1   
    68   34   36 1   
    69   34   37 1   
    70   37   38 1   
    71   37   39 1   
    72   37   40 1   
@<TRIPOS>SUBSTRUCTURE
     1 MDL         1 TEMP              0 ****  ****    0 ROOT
