@<TRIPOS>MOLECULE
MDM
   48    49     1     0     0
SMALL
bcc


@<TRIPOS>ATOM
      1 C1         -0.8720    0.5190   -1.3370 c3        1 MDM      0.306900
      2 C2         -1.6860   -0.1430   -2.4670 c3        1 MDM      0.095100
      3 C3         -0.7930   -0.9780   -3.3930 c3        1 MDM      0.116100
      4 C4          0.4530   -0.1730   -3.8000 c3        1 MDM      0.090100
      5 C5          1.1970    0.2820   -2.5390 c3        1 MDM      0.106100
      6 C6          2.4050    1.1530   -2.8910 c3        1 MDM      0.140400
      7 O2         -2.2950    0.8500   -3.2770 oh        1 MDM     -0.599800
      8 O3         -1.4880   -1.4150   -4.5420 oh        1 MDM     -0.595800
      9 O4          1.3450   -0.9740   -4.5550 oh        1 MDM     -0.594800
     10 O5          0.3430    1.1070   -1.7380 os        1 MDM     -0.439600
     11 O6          3.1710    1.4520   -1.7450 oh        1 MDM     -0.596800
     12 C1'         1.1700   -0.8470    2.8950 c3        1 MDM      0.333900
     13 C2'         0.8810   -1.0670    1.3980 c3        1 MDM      0.130100
     14 C3'        -0.1280   -0.0370    0.8680 c3        1 MDM      0.120100
     15 C4'        -1.3480    0.0510    1.8000 c3        1 MDM      0.095100
     16 C5'        -0.8660    0.3830    3.2200 c3        1 MDM      0.071100
     17 C6'        -2.0200    0.3950    4.2270 c3        1 MDM      0.136400
     18 O1'         1.9580    0.3250    2.9950 os        1 MDM     -0.447600
     19 O2'         0.4010   -2.3960    1.2920 oh        1 MDM     -0.592800
     20 O3'        -0.5300   -0.5090   -0.4190 os        1 MDM     -0.457600
     21 O4'        -2.1750    1.0860    1.2900 oh        1 MDM     -0.605800
     22 O5'         0.0260   -0.6290    3.6930 os        1 MDM     -0.439600
     23 O6'        -1.5640    0.7010    5.5260 oh        1 MDM     -0.592800
     24 H1         -1.4470    1.3560   -0.8440 h2        1 MDM      0.107700
     25 H2         -2.4760   -0.8010   -2.0080 h1        1 MDM      0.071700
     26 H3         -0.4870   -1.9220   -2.8610 h1        1 MDM      0.098700
     27 H4          0.1390    0.7200   -4.4110 h1        1 MDM      0.061700
     28 H5          1.5180   -0.6090   -1.9330 h1        1 MDM      0.071700
     29 H61         3.0870    0.5740   -3.5690 h1        1 MDM      0.064700
     30 H62         2.0630    2.0970   -3.3920 h1        1 MDM      0.064700
     31 HO2        -2.8980    1.3490   -2.7120 ho        1 MDM      0.417000
     32 HO3        -1.9030   -0.6410   -4.9450 ho        1 MDM      0.422000
     33 HO4         0.8040   -1.4650   -5.1900 ho        1 MDM      0.421000
     34 HO6         2.5930    1.9260   -1.1330 ho        1 MDM      0.408000
     35 H1'         1.6630   -1.7520    3.3510 h2        1 MDM      0.100700
     36 H2'         1.8410   -0.9640    0.8170 h1        1 MDM      0.074700
     37 H3'         0.3680    0.9690    0.7870 h1        1 MDM      0.091700
     38 H4'        -1.8980   -0.9300    1.7930 h1        1 MDM      0.068700
     39 H5'        -0.3320    1.3740    3.2240 h1        1 MDM      0.078700
     40 H6'1       -2.7410    1.2170    3.9720 h1        1 MDM      0.050700
     41 H6'2       -2.5440   -0.5980    4.2220 h1        1 MDM      0.050700
     42 H7'1        3.1180    1.4660    4.1790 h1        1 MDM      0.041700
     43 H7'2        1.8170    0.5160    5.0720 h1        1 MDM      0.041700
     44 H7'3        3.3090   -0.3450    4.4420 h1        1 MDM      0.041700
     45 HO2'        0.1240   -2.5190    0.3740 ho        1 MDM      0.425000
     46 HO4'       -2.9680    1.1090    1.8400 ho        1 MDM      0.409000
     47 HO6'       -0.8820    0.0530    5.7480 ho        1 MDM      0.417000
     48 C7'         2.5850    0.4860    4.2600 c3        1 MDM      0.120700
@<TRIPOS>BOND
     1    1    2 1   
     2    1   10 1   
     3    1   20 1   
     4    1   24 1   
     5    2    3 1   
     6    2    7 1   
     7    2   25 1   
     8    3    4 1   
     9    3    8 1   
    10    3   26 1   
    11    4    5 1   
    12    4    9 1   
    13    4   27 1   
    14    5    6 1   
    15    5   10 1   
    16    5   28 1   
    17    6   11 1   
    18    6   29 1   
    19    6   30 1   
    20    7   31 1   
    21    8   32 1   
    22    9   33 1   
    23   11   34 1   
    24   12   13 1   
    25   12   18 1   
    26   12   22 1   
    27   12   35 1   
    28   13   14 1   
    29   13   19 1   
    30   13   36 1   
    31   14   15 1   
    32   14   20 1   
    33   14   37 1   
    34   15   16 1   
    35   15   21 1   
    36   15   38 1   
    37   16   17 1   
    38   16   22 1   
    39   16   39 1   
    40   17   23 1   
    41   17   40 1   
    42   17   41 1   
    43   18   48 1   
    44   19   45 1   
    45   21   46 1   
    46   23   47 1   
    47   42   48 1   
    48   43   48 1   
    49   44   48 1   
@<TRIPOS>SUBSTRUCTURE
     1 MDM         1 TEMP              0 ****  ****    0 ROOT
