@<TRIPOS>MOLECULE
MDN
   11    10     1     0     0
SMALL
bcc


@<TRIPOS>ATOM
      1 O3         -0.1360   -1.3870    2.4690 o         1 MDN     -1.013667
      2 P1          0.0960   -0.0590    1.7280 p5        1 MDN      1.270700
      3 O1          1.4370    0.5320    2.1750 o         1 MDN     -1.013667
      4 O2         -1.0540    0.8970    2.0310 o         1 MDN     -1.013667
      5 C4          0.2350   -0.5590    0.0000 c3        1 MDN     -0.488800
      6 P5          0.0310   -0.0820   -1.7280 p5        1 MDN      1.270700
      7 O6          0.2320    1.4020   -2.0220 o         1 MDN     -1.013667
      8 O7          1.1100   -0.8980   -2.4610 o         1 MDN     -1.013667
      9 O8         -1.3510   -0.5520   -2.1940 o         1 MDN     -1.013667
     10 H41         1.3020   -0.8830   -0.0080 hc        1 MDN      0.014700
     11 H42        -0.3950   -1.4780    0.0100 hc        1 MDN      0.014700
@<TRIPOS>BOND
     1    1    2 1   
     2    2    3 1   
     3    2    4 1   
     4    2    5 1   
     5    5    6 1   
     6    5   10 1   
     7    5   11 1   
     8    6    7 1   
     9    6    8 1   
    10    6    9 1   
@<TRIPOS>SUBSTRUCTURE
     1 MDN         1 TEMP              0 ****  ****    0 ROOT
