@<TRIPOS>MOLECULE
MDN
   11    10     1     0     0
SMALL
bcc


@<TRIPOS>ATOM
      1 O3         -0.0040   -0.5520   -0.4120 o         1 MDN     -1.013667
      2 P1          1.3340   -0.0790    0.1810 p5        1 MDN      1.270700
      3 O1          1.3710   -0.3930    1.6730 o         1 MDN     -1.013667
      4 O2          1.4810    1.4280   -0.0630 o         1 MDN     -1.013667
      5 C4          2.5800   -0.9130   -0.8240 c3        1 MDN     -0.488800
      6 P5          4.1870   -1.7310   -0.8580 p5        1 MDN      1.270700
      7 O6          5.2580   -1.0530   -0.0060 o         1 MDN     -1.013667
      8 O7          4.0180   -3.2020   -0.4700 o         1 MDN     -1.013667
      9 O8          4.5910   -1.6480   -2.3410 o         1 MDN     -1.013667
     10 H41         1.9600   -1.7190   -1.2820 hc        1 MDN      0.014700
     11 H42         2.7430   -0.1320   -1.6030 hc        1 MDN      0.014700
@<TRIPOS>BOND
     1    1    2 1   
     2    2    3 1   
     3    2    4 1   
     4    2    5 1   
     5    5    6 1   
     6    5   10 1   
     7    5   11 1   
     8    6    7 1   
     9    6    8 1   
    10    6    9 1   
@<TRIPOS>SUBSTRUCTURE
     1 MDN         1 TEMP              0 ****  ****    0 ROOT
