@<TRIPOS>MOLECULE
MDN
   11    10     1     0     0
SMALL
bcc


@<TRIPOS>ATOM
      1 O3          0.1310    0.0030   -0.7560 o         1 MDN     -1.013667
      2 P1          1.4050    0.0810    0.1040 p5        1 MDN      1.270700
      3 O1          1.0790   -0.4060    1.5200 o         1 MDN     -1.013667
      4 O2          1.9170    1.5180    0.1220 o         1 MDN     -1.013667
      5 C4          2.5120   -1.1180   -0.6660 c3        1 MDN     -0.488800
      6 P5          4.2190   -1.5850   -1.0160 p5        1 MDN      1.270700
      7 O6          5.2290   -1.1940    0.0590 o         1 MDN     -1.013667
      8 O7          4.1580   -3.1190   -1.1260 o         1 MDN     -1.013667
      9 O8          4.6110   -1.0050   -2.3790 o         1 MDN     -1.013667
     10 H41         2.1540   -2.0460   -0.1610 hc        1 MDN      0.014700
     11 H42         2.1060   -1.1240   -1.7040 hc        1 MDN      0.014700
@<TRIPOS>BOND
     1    1    2 1   
     2    2    3 1   
     3    2    4 1   
     4    2    5 1   
     5    5    6 1   
     6    5   10 1   
     7    5   11 1   
     8    6    7 1   
     9    6    8 1   
    10    6    9 1   
@<TRIPOS>SUBSTRUCTURE
     1 MDN         1 TEMP              0 ****  ****    0 ROOT
