@<TRIPOS>MOLECULE
MDO
   24    24     1     0     0
SMALL
bcc


@<TRIPOS>ATOM
      1 N           1.1010    2.9620    0.8460 n3        1 MDO     -0.901800
      2 CA          0.1910    2.0450    0.1720 c3        1 MDO      0.131200
      3 C1          0.7840    0.6400    0.1220 cc        1 MDO      0.492900
      4 CB         -0.1330    2.4620   -1.2630 c3        1 MDO     -0.100100
      5 N2          1.9760    0.3450   -0.3990 nd        1 MDO     -0.622300
      6 CA2         2.1310   -1.0750   -0.2850 cd        1 MDO      0.020400
      7 C2          0.8740   -1.6260    0.3820 c         1 MDO      0.664700
      8 O2          0.6160   -2.7980    0.6800 o         1 MDO     -0.614500
      9 CB2         3.1660   -1.8260   -0.6740 c2        1 MDO     -0.165000
     10 N3          0.0850   -0.4820    0.6580 n         1 MDO     -0.386300
     11 CA3        -1.2940   -0.5270    1.0550 c3        1 MDO     -0.043000
     12 C          -2.3040    0.2490    0.1550 c         1 MDO      0.898600
     13 O          -2.3260    0.0120   -1.0810 o         1 MDO     -0.824800
     14 OXT        -3.0480    1.0740    0.7550 o         1 MDO     -0.824800
     15 H           0.7380    3.8920    0.7730 hn        1 MDO      0.341800
     16 H2          1.1760    2.7150    1.8130 hn        1 MDO      0.341800
     17 HCA        -0.8030    1.9830    0.7280 h1        1 MDO      0.085700
     18 HB1        -0.6020    3.4750   -1.2690 hc        1 MDO      0.055700
     19 HB2         0.7840    2.4830   -1.8970 hc        1 MDO      0.055700
     20 HB3        -0.8670    1.7230   -1.6810 hc        1 MDO      0.055700
     21 HB21        4.0620   -1.4030   -1.1430 ha        1 MDO      0.120500
     22 HB22        3.1480   -2.9140   -0.5330 ha        1 MDO      0.120500
     23 HA31       -1.6130   -1.6070    1.0660 h1        1 MDO      0.048700
     24 HA32       -1.3650   -0.1180    2.1020 h1        1 MDO      0.048700
@<TRIPOS>BOND
     1    1    2 1   
     2    1   15 1   
     3    1   16 1   
     4    2    3 1   
     5    2    4 1   
     6    2   17 1   
     7    3    5 2   
     8    3   10 1   
     9    4   18 1   
    10    4   19 1   
    11    4   20 1   
    12    5    6 1   
    13    6    7 1   
    14    6    9 2   
    15    7    8 2   
    16    7   10 1   
    17    9   21 1   
    18    9   22 1   
    19   10   11 1   
    20   11   12 1   
    21   11   23 1   
    22   11   24 1   
    23   12   13 1   
    24   12   14 1   
@<TRIPOS>SUBSTRUCTURE
     1 MDO         1 TEMP              0 ****  ****    0 ROOT
