@<TRIPOS>MOLECULE
MDP
   38    38     1     0     0
SMALL
bcc


@<TRIPOS>ATOM
      1 C1         -1.9570   -1.3920   -0.3020 c3        1 MDP      0.318900
      2 O1         -2.3760   -2.2770   -1.3190 oh        1 MDP     -0.589800
      3 C2         -0.4830   -0.9870   -0.6120 c3        1 MDP      0.119700
      4 N2          0.4050   -2.0300   -0.1550 n         1 MDP     -0.516800
      5 C3         -0.1710    0.4240   -0.0360 c3        1 MDP      0.074100
      6 O3          0.9390    0.9850   -0.7360 os        1 MDP     -0.414600
      7 C4         -1.3270    1.3990   -0.3320 c3        1 MDP      0.113100
      8 O4         -1.0950    2.6710    0.2530 oh        1 MDP     -0.637800
      9 C5         -2.6310    0.8390    0.2340 c3        1 MDP      0.121100
     10 O5         -2.9450   -0.3620   -0.4610 os        1 MDP     -0.504600
     11 C6         -3.8010    1.7910   -0.0130 c3        1 MDP      0.137400
     12 O6         -5.0280    1.2690    0.4660 oh        1 MDP     -0.631800
     13 C7          2.1360    1.1980    0.0130 c3        1 MDP      0.013100
     14 C8          3.1340    1.8880   -0.9740 c         1 MDP      0.925600
     15 O8          4.1490    1.2270   -1.3280 o         1 MDP     -0.845800
     16 O9          2.9080    3.0820   -1.3210 o         1 MDP     -0.845800
     17 C9          1.9480    2.1030    1.2150 c3        1 MDP     -0.116100
     18 C10         0.4490   -2.3910    1.2520 c         1 MDP      1.006600
     19 O10        -0.4000   -1.8690    2.0440 o         1 MDP     -0.854300
     20 O11         1.3020   -3.2530    1.6180 o         1 MDP     -0.854300
     21 C11         1.5710   -2.2420   -0.9560 c3        1 MDP      0.083300
     22 H1         -2.0640   -1.8310    0.7320 h2        1 MDP      0.102700
     23 HO1        -3.2590   -2.5750   -1.0730 ho        1 MDP      0.381000
     24 H2         -0.3900   -0.9080   -1.7370 h1        1 MDP      0.058700
     25 H3          0.0020    0.3390    1.0700 h1        1 MDP      0.095700
     26 H4         -1.4230    1.5280   -1.4480 h1        1 MDP      0.046700
     27 HO4        -0.1670    2.8820    0.0630 ho        1 MDP      0.440000
     28 H5         -2.5240    0.6230    1.3330 h1        1 MDP      0.069700
     29 H61        -3.6320    2.7460    0.5500 h1        1 MDP      0.046700
     30 H62        -3.8970    2.0050   -1.1110 h1        1 MDP      0.046700
     31 HO6        -5.0460    0.3350    0.2210 ho        1 MDP      0.410000
     32 H7          2.5400    0.2010    0.3370 h1        1 MDP      0.050700
     33 H91         2.8890    2.1040    1.8160 hc        1 MDP      0.027033
     34 H92         1.7490    3.1490    0.8730 hc        1 MDP      0.027033
     35 H93         1.1090    1.7710    1.8700 hc        1 MDP      0.027033
     36 H111        2.0910   -1.2770   -1.2140 h1        1 MDP      0.023700
     37 H112        2.2860   -2.9080   -0.4040 h1        1 MDP      0.023700
     38 H113        1.2800   -2.7450   -1.9200 h1        1 MDP      0.023700
@<TRIPOS>BOND
     1    1    2 1   
     2    1    3 1   
     3    1   10 1   
     4    1   22 1   
     5    2   23 1   
     6    3    4 1   
     7    3    5 1   
     8    3   24 1   
     9    4   18 1   
    10    4   21 1   
    11    5    6 1   
    12    5    7 1   
    13    5   25 1   
    14    6   13 1   
    15    7    8 1   
    16    7    9 1   
    17    7   26 1   
    18    8   27 1   
    19    9   10 1   
    20    9   11 1   
    21    9   28 1   
    22   11   12 1   
    23   11   29 1   
    24   11   30 1   
    25   12   31 1   
    26   13   14 1   
    27   13   17 1   
    28   13   32 1   
    29   14   15 1   
    30   14   16 1   
    31   17   33 1   
    32   17   34 1   
    33   17   35 1   
    34   18   19 1   
    35   18   20 1   
    36   21   36 1   
    37   21   37 1   
    38   21   38 1   
@<TRIPOS>SUBSTRUCTURE
     1 MDP         1 TEMP              0 ****  ****    0 ROOT
