@<TRIPOS>MOLECULE
MDP
   38    38     1     0     0
SMALL
bcc


@<TRIPOS>ATOM
      1 C1         -1.4520   -0.0600   -1.2840 c3        1 MDP      0.352900
      2 O1         -1.8760   -0.2090   -2.5810 oh        1 MDP     -0.632800
      3 C2          0.0620   -0.1070   -1.2540 c3        1 MDP      0.050700
      4 N2          0.5130   -1.3170   -1.9610 n         1 MDP     -0.497800
      5 C3          0.5930   -0.1330    0.1180 c3        1 MDP      0.069100
      6 O3          0.3320    1.1620    0.7510 os        1 MDP     -0.405600
      7 C4         -0.0330   -1.2060    0.9460 c3        1 MDP      0.116100
      8 O4          0.4030   -2.4840    0.4580 oh        1 MDP     -0.637800
      9 C5         -1.5510   -1.1560    0.9040 c3        1 MDP      0.092100
     10 O5         -2.0700   -1.1250   -0.4520 os        1 MDP     -0.446600
     11 C6         -2.0170    0.0750    1.6280 c3        1 MDP      0.093400
     12 O6         -3.4000   -0.0460    1.9250 oh        1 MDP     -0.633800
     13 C7          1.4890    1.8820    1.0760 c3        1 MDP      0.017100
     14 C8          1.6130    3.0680    0.1610 c         1 MDP      0.926600
     15 O8          0.6550    3.8760    0.0470 o         1 MDP     -0.841800
     16 O9          2.7060    3.3000   -0.4270 o         1 MDP     -0.841800
     17 C9          1.3970    2.3610    2.5160 c3        1 MDP     -0.112100
     18 C10        -0.3270   -2.4370   -2.0360 c         1 MDP      0.992600
     19 O10         0.1160   -3.5720   -1.7530 o         1 MDP     -0.828300
     20 O11        -1.5150   -2.3040   -2.4120 o         1 MDP     -0.828300
     21 C11         1.7790   -1.3220   -2.6440 c3        1 MDP      0.078300
     22 H1         -1.7490    0.8180   -0.9490 h2        1 MDP      0.068700
     23 HO1        -2.4390    0.4650   -2.7920 ho        1 MDP      0.468000
     24 H2          0.4110    0.6780   -1.7140 h1        1 MDP      0.061700
     25 H3          1.5670   -0.2830    0.0810 h1        1 MDP      0.056700
     26 H4          0.2620   -1.1030    1.8730 h1        1 MDP      0.068700
     27 HO4         0.7670   -2.9410    1.1160 ho        1 MDP      0.454000
     28 H5         -1.9050   -1.9420    1.3580 h1        1 MDP      0.071700
     29 H61        -1.8730    0.8610    1.0610 h1        1 MDP      0.059700
     30 H62        -1.5120    0.1760    2.4600 h1        1 MDP      0.059700
     31 HO6        -3.5660    0.3120    2.7300 ho        1 MDP      0.416000
     32 H7          2.2820    1.3000    0.9710 h1        1 MDP      0.021700
     33 H91         0.6020    2.9220    2.6230 hc        1 MDP      0.025700
     34 H92         1.3340    1.5850    3.1160 hc        1 MDP      0.025700
     35 H93         2.2000    2.8850    2.7400 hc        1 MDP      0.025700
     36 H111        2.0040   -0.4150   -2.9170 h1        1 MDP      0.010700
     37 H112        2.4780   -1.6660   -2.0390 h1        1 MDP      0.010700
     38 H113        1.7210   -1.9020   -3.4440 h1        1 MDP      0.010700
@<TRIPOS>BOND
     1    1    2 1   
     2    1    3 1   
     3    1   10 1   
     4    1   22 1   
     5    2   23 1   
     6    3    4 1   
     7    3    5 1   
     8    3   24 1   
     9    4   18 1   
    10    4   21 1   
    11    5    6 1   
    12    5    7 1   
    13    5   25 1   
    14    6   13 1   
    15    7    8 1   
    16    7    9 1   
    17    7   26 1   
    18    8   27 1   
    19    9   10 1   
    20    9   11 1   
    21    9   28 1   
    22   11   12 1   
    23   11   29 1   
    24   11   30 1   
    25   12   31 1   
    26   13   14 1   
    27   13   17 1   
    28   13   32 1   
    29   14   15 1   
    30   14   16 1   
    31   17   33 1   
    32   17   34 1   
    33   17   35 1   
    34   18   19 1   
    35   18   20 1   
    36   21   36 1   
    37   21   37 1   
    38   21   38 1   
@<TRIPOS>SUBSTRUCTURE
     1 MDP         1 TEMP              0 ****  ****    0 ROOT
