@<TRIPOS>MOLECULE
MDQ
   36    37     1     0     0
SMALL
bcc


@<TRIPOS>ATOM
      1 P           3.0210    0.0820   -1.5490 p5        1 MDQ      1.344900
      2 N1         -1.7390   -0.7590    0.1690 n         1 MDQ     -0.357400
      3 C2         -3.1380   -0.6020    0.4060 c         1 MDQ      0.774500
      4 O2         -3.6970   -1.2700    1.3090 o         1 MDQ     -0.670500
      5 N3         -3.9030    0.2750   -0.4010 n         1 MDQ     -0.400000
      6 C4         -3.2930    0.9300   -1.4490 cc        1 MDQ      0.356600
      7 N4         -4.0170    1.6840   -2.3490 nh        1 MDQ     -0.833600
      8 C5         -1.8830    0.7600   -1.6720 cd        1 MDQ     -0.468600
      9 C6         -1.1410   -0.0680   -0.8490 cd        1 MDQ      0.315800
     10 C1'        -0.9620   -1.6090    1.0970 c3        1 MDQ      0.296500
     11 O1P         3.3180   -1.3930   -1.6490 o         1 MDQ     -0.919500
     12 C2'        -0.1680   -2.7200    0.3800 c3        1 MDQ     -0.120400
     13 C20        -5.4140    0.4970    0.0100 c3        1 MDQ      0.514500
     14 O21        -5.8810    1.6500   -0.3570 o         1 MDQ     -0.815500
     15 O2P         1.5520    0.3600   -1.8270 o         1 MDQ     -0.919500
     16 C3'         1.2430   -2.1430    0.2580 c3        1 MDQ      0.106100
     17 O3'         2.2110   -3.1470    0.4590 oh        1 MDQ     -0.647800
     18 C4'         1.3250   -1.0480    1.3440 c3        1 MDQ      0.061100
     19 O4'        -0.0230   -0.8310    1.8350 os        1 MDQ     -0.435600
     20 C5'         1.8870    0.3100    0.8580 c3        1 MDQ      0.224400
     21 O5'         3.0660    0.1930    0.1790 os        1 MDQ     -0.568200
     22 O8          4.0080    1.0890   -2.0350 o         1 MDQ     -0.919500
     23 H1N4       -4.9450    1.9700   -2.0910 hn        1 MDQ      0.442800
     24 H2N4       -3.4810    2.3080   -2.9040 hn        1 MDQ      0.442800
     25 H5         -1.3590    1.2810   -2.4840 ha        1 MDQ      0.187000
     26 H6         -0.0030   -0.1640   -1.0470 h4        1 MDQ      0.200800
     27 H1'        -1.6870   -2.0160    1.8610 h2        1 MDQ      0.095700
     28 H12'       -0.1700   -3.6370    1.0190 hc        1 MDQ      0.054200
     29 H22'       -0.5840   -2.9830   -0.6190 hc        1 MDQ      0.054200
     30 H20        -5.8860   -0.4060   -0.4940 h2        1 MDQ     -0.032300
     31 H3'         1.4090   -1.6660   -0.7640 h1        1 MDQ      0.148700
     32 HO3'        2.9560   -2.8900   -0.1230 ho        1 MDQ      0.476000
     33 H4'         1.9080   -1.4190    2.2270 h1        1 MDQ      0.048700
     34 H15'        1.1030    0.8310    0.2400 h1        1 MDQ     -0.001800
     35 H25'        2.0640    0.9250    1.7900 h1        1 MDQ     -0.001800
     36 H161       -5.3700    0.3320    1.1310 h2        1 MDQ     -0.032300
@<TRIPOS>BOND
     1    1   11 1   
     2    1   15 1   
     3    1   21 1   
     4    1   22 1   
     5    2    3 1   
     6    2    9 2   
     7    2   10 1   
     8    3    4 2   
     9    3    5 1   
    10    5    6 1   
    11    5   13 1   
    12    6    7 1   
    13    6    8 2   
    14    7   23 1   
    15    7   24 1   
    16    8    9 1   
    17    8   25 1   
    18    9   26 1   
    19   10   12 1   
    20   10   19 1   
    21   10   27 1   
    22   12   16 1   
    23   12   28 1   
    24   12   29 1   
    25   13   14 1   
    26   13   30 1   
    27   13   36 1   
    28   16   17 1   
    29   16   18 1   
    30   16   31 1   
    31   17   32 1   
    32   18   19 1   
    33   18   20 1   
    34   18   33 1   
    35   20   21 1   
    36   20   34 1   
    37   20   35 1   
@<TRIPOS>SUBSTRUCTURE
     1 MDQ         1 TEMP              0 ****  ****    0 ROOT
