@<TRIPOS>MOLECULE
MDR
   32    34     1     0     0
SMALL
bcc


@<TRIPOS>ATOM
      1 C6'         1.7330    0.7840    4.4260 c3        1 MDR     -0.154400
      2 C6          0.5540    0.5320    3.5500 ca        1 MDR      0.515600
      3 N1         -0.7040    0.7300    3.9950 nb        1 MDR     -0.717000
      4 C2         -1.7400    0.4770    3.1380 ca        1 MDR      0.644900
      5 N3         -1.7030    0.0430    1.8570 nb        1 MDR     -0.698000
      6 C4         -0.4320   -0.1570    1.4020 ca        1 MDR      0.419800
      7 C5          0.7630    0.0740    2.2220 ca        1 MDR     -0.165200
      8 N7          1.9110   -0.2310    1.4760 nc        1 MDR     -0.547100
      9 C8          1.4570   -0.6260    0.2760 cd        1 MDR      0.432700
     10 N9          0.0480   -0.5970    0.1590 na        1 MDR     -0.294000
     11 C1'        -0.7580   -1.0280   -0.9690 c3        1 MDR      0.266800
     12 C2'        -1.7460    0.0370   -1.4930 c3        1 MDR     -0.148400
     13 C3'        -1.2080    0.4570   -2.8660 c3        1 MDR      0.123100
     14 O3'        -2.1260    0.1300   -3.8960 oh        1 MDR     -0.586800
     15 C4'         0.0520   -0.4000   -3.0960 c3        1 MDR      0.132100
     16 C5'         1.3390    0.4250   -3.0360 c3        1 MDR      0.107400
     17 O5'         1.2560    1.4070   -4.0530 oh        1 MDR     -0.595800
     18 O4'         0.0990   -1.3920   -2.0600 os        1 MDR     -0.413600
     19 H6'1        2.3140   -0.1660    4.5370 hc        1 MDR      0.065033
     20 H6'2        2.3920    1.5460    3.9410 hc        1 MDR      0.065033
     21 H6'3        1.4380    1.1490    5.4390 hc        1 MDR      0.065033
     22 H2         -2.7540    0.6530    3.5550 h5        1 MDR      0.055100
     23 H8          2.0770   -0.9580   -0.5680 h5        1 MDR      0.083800
     24 H1'        -1.2850   -1.9840   -0.6710 h2        1 MDR      0.100700
     25 H2'1       -2.7570   -0.4320   -1.5970 hc        1 MDR      0.085200
     26 H2'2       -1.8370    0.9130   -0.8080 hc        1 MDR      0.085200
     27 H3'        -0.9550    1.5510   -2.9010 h1        1 MDR      0.071700
     28 H1         -2.8110    0.8080   -3.8840 ho        1 MDR      0.408000
     29 H4'        -0.0140   -0.9700   -4.0620 h1        1 MDR      0.111700
     30 H5'1        1.4430    0.9200   -2.0330 h1        1 MDR      0.035700
     31 H5'2        2.2210   -0.2500   -3.2030 h1        1 MDR      0.035700
     32 H5'         2.1290    1.8120   -4.1150 ho        1 MDR      0.410000
@<TRIPOS>BOND
     1    1    2 1   
     2    1   19 1   
     3    1   20 1   
     4    1   21 1   
     5    2    3 ar  
     6    2    7 ar  
     7    3    4 ar  
     8    4    5 ar  
     9    4   22 1   
    10    5    6 ar  
    11    6    7 ar  
    12    6   10 1   
    13    7    8 1   
    14    8    9 2   
    15    9   10 1   
    16    9   23 1   
    17   10   11 1   
    18   11   12 1   
    19   11   18 1   
    20   11   24 1   
    21   12   13 1   
    22   12   25 1   
    23   12   26 1   
    24   13   14 1   
    25   13   15 1   
    26   13   27 1   
    27   14   28 1   
    28   15   16 1   
    29   15   18 1   
    30   15   29 1   
    31   16   17 1   
    32   16   30 1   
    33   16   31 1   
    34   17   32 1   
@<TRIPOS>SUBSTRUCTURE
     1 MDR         1 TEMP              0 ****  ****    0 ROOT
