@<TRIPOS>MOLECULE
MDR
   32    28     1     0     0
SMALL
bcc


@<TRIPOS>ATOM
      1 C6'        -4.9800    0.2240    1.8140 c3        1 MDR     -0.178000
      2 C6         -3.4430    0.1270    1.8220 c2        1 MDR      0.090000
      3 N1         -3.1600    0.1600    3.1100 n2        1 MDR     -0.191000
      4 C2         -1.8530    0.1510    3.5260 c1        1 MDR     -0.020000
      5 N3         -0.8300    0.1070    2.5990 n1        1 MDR     -0.174000
      6 C4         -1.1110    0.0730    1.2920 c1        1 MDR      0.026000
      7 C5         -2.3990    0.0820    0.8760 c1        1 MDR     -0.171000
      8 N7         -2.3950    0.1480   -0.4870 n1        1 MDR     -0.170500
      9 C8         -1.0950    0.1810   -0.9050 c1        1 MDR     -0.019000
     10 N9         -0.3060    0.1350    0.1810 n1        1 MDR     -0.170500
     11 C1'         0.9450    0.4180    0.2300 c2        1 MDR      0.170000
     12 C2'         1.7730   -0.8480    0.3510 c3        1 MDR     -0.229000
     13 C3'         2.3620   -0.9960   -0.8500 c3        1 MDR      0.004000
     14 O3'         3.6740   -1.5840   -0.6970 oh        1 MDR     -0.315000
     15 C4'         2.4880    0.5020   -1.4830 c3        1 MDR      0.021000
     16 C5'         2.6010    0.4230   -3.0310 c3        1 MDR     -0.045000
     17 O5'         2.9120    1.6380   -3.5210 oh        1 MDR     -0.317000
     18 O4'         1.4210    1.1250   -1.1480 os        1 MDR     -0.245000
     19 H6'1       -5.2470    1.0290    2.2360 hc        1 MDR      0.104000
     20 H6'2       -5.2970    0.2180    0.9060 hc        1 MDR      0.104000
     21 H6'3       -5.3460   -0.5180    2.2830 hc        1 MDR      0.104000
     22 H2         -1.6530    0.1730    4.4390 ha        1 MDR      0.190000
     23 H8         -0.7960    0.1250   -1.8190 DU        1 MDR      0.233000
     24 H1'         1.1220    0.9930    0.9670 h4        1 MDR      0.142000
     25 H2'1        2.4580   -0.7440    1.0600 hc        1 MDR      0.124000
     26 H2'2        1.1750   -1.6450    0.5530 hc        1 MDR      0.124000
     27 H3'         1.8250   -1.5410   -1.4050 h1        1 MDR      0.092000
     28 H1          3.6030   -2.5610   -0.7510 ho        1 MDR      0.208000
     29 H4'         3.2340    0.9390   -1.1270 h1        1 MDR      0.154000
     30 H5'1        1.7730    0.1400   -3.3930 h1        1 MDR      0.075000
     31 H5'2        3.3060   -0.2210   -3.2790 h1        1 MDR      0.075000
     32 H5'         3.2410    1.5470   -4.3520 ho        1 MDR      0.205000
@<TRIPOS>BOND
     1    1    2 1   
     2    1   19 1   
     3    1   20 1   
     4    1   21 1   
     5    2    3 1   
     6    2    7 1   
     7    3    4 1   
     8    4   22 1   
     9    5    6 1   
    10    8    9 1   
    11    9   10 1   
    12   11   12 1   
    13   11   18 1   
    14   11   24 1   
    15   12   13 1   
    16   12   25 1   
    17   12   26 1   
    18   13   14 1   
    19   13   15 1   
    20   13   27 1   
    21   14   28 1   
    22   15   16 1   
    23   15   18 1   
    24   15   29 1   
    25   16   17 1   
    26   16   30 1   
    27   16   31 1   
    28   17   32 1   
@<TRIPOS>SUBSTRUCTURE
     1 MDR         1 TEMP              0 ****  ****    0 ROOT
