@<TRIPOS>MOLECULE
MDS
   55    57     1     0     0
SMALL
bcc


@<TRIPOS>ATOM
      1 O1         -0.7670   -0.3100    0.8310 oh        1 MDS     -0.594800
      2 C1          0.5930   -0.5710    0.5690 c3        1 MDS      0.083100
      3 C2          1.3090   -0.9290    1.9150 c3        1 MDS      0.227800
      4 O2          2.2130    0.1340    2.2240 os        1 MDS     -0.414600
      5 C3          2.4280    0.9680    1.0710 c3        1 MDS      0.079100
      6 C4          2.5020    2.4240    1.5590 c3        1 MDS      0.232800
      7 N1          3.6400    2.6960    2.3820 n3        1 MDS     -0.913100
      8 S1          4.7490    3.8230    2.0890 s6        1 MDS      1.577500
      9 O3          6.0270    3.3450    2.4360 o         1 MDS     -0.638800
     10 O4          4.6130    4.3290    0.7700 o         1 MDS     -0.638800
     11 N2          4.3540    5.0960    3.1000 n         1 MDS     -0.668300
     12 C5          4.1220    5.0180    4.4670 c         1 MDS      0.640100
     13 O5          4.0870    3.9020    5.0170 o         1 MDS     -0.602100
     14 C6          3.9270    6.3270    5.2700 c3        1 MDS      0.115500
     15 N3          4.1300    6.1650    6.6890 n3        1 MDS     -0.888800
     16 C7          2.5330    6.8760    4.9220 c3        1 MDS     -0.065400
     17 C8          2.2950    8.2160    5.5680 c3        1 MDS     -0.007300
     18 S2          0.8240    8.8870    4.8440 ss        1 MDS     -0.303200
     19 C9          0.5520   10.3180    5.8190 c3        1 MDS     -0.038000
     20 C10         1.2620    0.7360    0.0860 c3        1 MDS      0.129100
     21 O6          0.3800    1.8270    0.0010 oh        1 MDS     -0.574800
     22 N4          2.0130   -2.1900    1.8760 na        1 MDS     -0.295000
     23 C11         3.3520   -2.4710    2.2450 cc        1 MDS      0.426700
     24 N5          3.6600   -3.7740    2.1800 nd        1 MDS     -0.545100
     25 C12         2.4820   -4.4110    1.7600 ca        1 MDS     -0.228200
     26 C13         2.1490   -5.7850    1.5060 ca        1 MDS      0.767200
     27 N6          0.8670   -6.0920    1.1070 nb        1 MDS     -0.795000
     28 C14        -0.0130   -5.0670    0.9690 ca        1 MDS      0.691900
     29 N7          0.1550   -3.7370    1.1660 nb        1 MDS     -0.764000
     30 C15         1.4250   -3.4260    1.5670 ca        1 MDS      0.450800
     31 N8          3.0940   -6.7620    1.6520 nh        1 MDS     -0.957500
     32 HO1        -1.2140   -1.1680    0.8720 ho        1 MDS      0.438000
     33 H1          0.7050   -1.3760   -0.2040 h1        1 MDS      0.086700
     34 H2          0.5640   -0.9560    2.7680 h2        1 MDS      0.103700
     35 H3          3.3960    0.6450    0.6010 h1        1 MDS      0.071700
     36 H41         1.5550    2.6450    2.1330 h1        1 MDS      0.075200
     37 H42         2.5230    3.0820    0.6400 h1        1 MDS      0.075200
     38 HN1         3.6690    2.1410    3.2110 hn        1 MDS      0.474800
     39 HN2         4.2820    6.0100    2.7110 hn        1 MDS      0.339500
     40 H6          4.7060    7.0680    4.9140 h1        1 MDS      0.082700
     41 HN31        3.4170    5.5850    7.0890 hn        1 MDS      0.366800
     42 HN32        5.0250    5.7520    6.8700 hn        1 MDS      0.366800
     43 H71         1.7450    6.1470    5.2490 hc        1 MDS      0.063200
     44 H72         2.4580    6.9810    3.8070 hc        1 MDS      0.063200
     45 H81         3.1600    8.9010    5.3890 h1        1 MDS      0.071200
     46 H82         2.1740    8.1110    6.6730 h1        1 MDS      0.071200
     47 H91         0.4060   10.0660    6.8930 h1        1 MDS      0.065033
     48 H92         1.3920   11.0430    5.7350 h1        1 MDS      0.065033
     49 H93        -0.3770   10.7900    5.4250 h1        1 MDS      0.065033
     50 H10         1.6600    0.6170   -0.9600 h1        1 MDS      0.098700
     51 HO6        -0.2150    1.8010    0.7630 ho        1 MDS      0.425000
     52 H11         4.0280   -1.6610    2.5490 h5        1 MDS      0.087800
     53 H14        -1.0320   -5.3740    0.6450 h5        1 MDS      0.051100
     54 HN81        2.8680   -7.7130    1.5040 hn        1 MDS      0.451800
     55 HN82        3.9970   -6.5110    1.9710 hn        1 MDS      0.451800
@<TRIPOS>BOND
     1    1    2 1   
     2    1   32 1   
     3    2    3 1   
     4    2   20 1   
     5    2   33 1   
     6    3    4 1   
     7    3   22 1   
     8    3   34 1   
     9    4    5 1   
    10    5    6 1   
    11    5   20 1   
    12    5   35 1   
    13    6    7 1   
    14    6   36 1   
    15    6   37 1   
    16    7    8 1   
    17    7   38 1   
    18    8    9 2   
    19    8   10 2   
    20    8   11 1   
    21   11   12 1   
    22   11   39 1   
    23   12   13 2   
    24   12   14 1   
    25   14   15 1   
    26   14   16 1   
    27   14   40 1   
    28   15   41 1   
    29   15   42 1   
    30   16   17 1   
    31   16   43 1   
    32   16   44 1   
    33   17   18 1   
    34   17   45 1   
    35   17   46 1   
    36   18   19 1   
    37   19   47 1   
    38   19   48 1   
    39   19   49 1   
    40   20   21 1   
    41   20   50 1   
    42   21   51 1   
    43   22   23 1   
    44   22   30 1   
    45   23   24 2   
    46   23   52 1   
    47   24   25 1   
    48   25   26 ar  
    49   25   30 ar  
    50   26   27 ar  
    51   26   31 1   
    52   27   28 ar  
    53   28   29 ar  
    54   28   53 1   
    55   29   30 ar  
    56   31   54 1   
    57   31   55 1   
@<TRIPOS>SUBSTRUCTURE
     1 MDS         1 TEMP              0 ****  ****    0 ROOT
