@<TRIPOS>MOLECULE
MDS
   55    57     1     0     0
SMALL
bcc


@<TRIPOS>ATOM
      1 O1          3.1760    0.8390    2.8260 oh        1 MDS     -0.594800
      2 C1          3.0790   -0.3370    2.0540 c3        1 MDS      0.083100
      3 C2          3.0470    0.0540    0.5380 c3        1 MDS      0.227800
      4 O2          1.7440   -0.2500    0.0370 os        1 MDS     -0.414600
      5 C3          1.0390   -1.1120    0.9480 c3        1 MDS      0.079100
      6 C4         -0.4300   -0.6600    0.9720 c3        1 MDS      0.232800
      7 N1         -1.1130   -0.8620   -0.2700 n3        1 MDS     -0.913100
      8 S1         -2.4560   -1.7240   -0.4600 s6        1 MDS      1.577500
      9 O3         -2.4020   -2.4420   -1.6710 o         1 MDS     -0.638800
     10 O4         -2.7300   -2.4900    0.7020 o         1 MDS     -0.638800
     11 N2         -3.6880   -0.5960   -0.5550 n         1 MDS     -0.668300
     12 C5         -3.7260    0.5120   -1.3900 c         1 MDS      0.640100
     13 O5         -2.7240    0.7950   -2.0750 o         1 MDS     -0.602100
     14 C6         -5.0210    1.3570   -1.4570 c3        1 MDS      0.115500
     15 N3         -5.1060    2.1850   -2.6360 n3        1 MDS     -0.888800
     16 C7         -5.1100    2.1640   -0.1510 c3        1 MDS     -0.065400
     17 C8         -6.4020    2.9330   -0.0700 c3        1 MDS     -0.007300
     18 S2         -6.5390    3.5470    1.5870 ss        1 MDS     -0.303200
     19 C9         -7.9500    4.5800    1.4840 c3        1 MDS     -0.038000
     20 C10         1.7110   -0.9990    2.3340 c3        1 MDS      0.129100
     21 O6          0.9290   -0.3110    3.2770 oh        1 MDS     -0.574800
     22 N4          4.0560   -0.6130   -0.2520 na        1 MDS     -0.295000
     23 C11         3.9030   -1.3360   -1.4610 cc        1 MDS      0.426700
     24 N5          5.0660   -1.7450   -1.9880 nd        1 MDS     -0.545100
     25 C12         6.0540   -1.2760   -1.1090 ca        1 MDS     -0.228200
     26 C13         7.4870   -1.3720   -1.1060 ca        1 MDS      0.767200
     27 N6          8.1880   -0.7770   -0.0800 nb        1 MDS     -0.795000
     28 C14         7.4750   -0.1340    0.8810 ca        1 MDS      0.691900
     29 N7          6.1380    0.0330    1.0130 nb        1 MDS     -0.764000
     30 C15         5.4360   -0.5510   -0.0060 ca        1 MDS      0.450800
     31 N8          8.1350   -2.0500   -2.1010 nh        1 MDS     -0.957500
     32 HO1         4.1110    1.0870    2.8420 ho        1 MDS      0.438000
     33 H1          3.9140   -1.0450    2.2960 h1        1 MDS      0.086700
     34 H2          3.1700    1.1730    0.4120 h2        1 MDS      0.103700
     35 H3          1.1370   -2.1620    0.5590 h1        1 MDS      0.071700
     36 H41        -0.4520    0.4350    1.2440 h1        1 MDS      0.075200
     37 H42        -0.9450   -1.2410    1.7940 h1        1 MDS      0.075200
     38 HN1        -0.7000   -0.3670   -1.0310 hn        1 MDS      0.474800
     39 HN2        -4.4880   -0.7140    0.0270 hn        1 MDS      0.339500
     40 H6         -5.8970    0.6410   -1.5000 h1        1 MDS      0.082700
     41 HN31       -4.4070    2.9030   -2.6210 hn        1 MDS      0.366800
     42 HN32       -4.9850    1.6300   -3.4620 hn        1 MDS      0.366800
     43 H71        -4.2390    2.8680   -0.0780 hc        1 MDS      0.063200
     44 H72        -5.0460    1.4520    0.7150 hc        1 MDS      0.063200
     45 H81        -7.2720    2.2740   -0.3090 h1        1 MDS      0.071200
     46 H82        -6.4110    3.7790   -0.8000 h1        1 MDS      0.071200
     47 H91        -7.8090    5.4040    0.7490 h1        1 MDS      0.065033
     48 H92        -8.8630    4.0090    1.2050 h1        1 MDS      0.065033
     49 H93        -8.0900    5.0170    2.4990 h1        1 MDS      0.065033
     50 H10         1.8490   -2.0240    2.7790 h1        1 MDS      0.098700
     51 HO6         1.0210    0.6390    3.1180 ho        1 MDS      0.425000
     52 H11         2.9040   -1.5110   -1.8830 h5        1 MDS      0.087800
     53 H14         8.0930    0.3260    1.6830 h5        1 MDS      0.051100
     54 HN81        7.6040   -2.4380   -2.8400 hn        1 MDS      0.451800
     55 HN82        9.1230   -2.1000   -2.1220 hn        1 MDS      0.451800
@<TRIPOS>BOND
     1    1    2 1   
     2    1   32 1   
     3    2    3 1   
     4    2   20 1   
     5    2   33 1   
     6    3    4 1   
     7    3   22 1   
     8    3   34 1   
     9    4    5 1   
    10    5    6 1   
    11    5   20 1   
    12    5   35 1   
    13    6    7 1   
    14    6   36 1   
    15    6   37 1   
    16    7    8 1   
    17    7   38 1   
    18    8    9 2   
    19    8   10 2   
    20    8   11 1   
    21   11   12 1   
    22   11   39 1   
    23   12   13 2   
    24   12   14 1   
    25   14   15 1   
    26   14   16 1   
    27   14   40 1   
    28   15   41 1   
    29   15   42 1   
    30   16   17 1   
    31   16   43 1   
    32   16   44 1   
    33   17   18 1   
    34   17   45 1   
    35   17   46 1   
    36   18   19 1   
    37   19   47 1   
    38   19   48 1   
    39   19   49 1   
    40   20   21 1   
    41   20   50 1   
    42   21   51 1   
    43   22   23 1   
    44   22   30 1   
    45   23   24 2   
    46   23   52 1   
    47   24   25 1   
    48   25   26 ar  
    49   25   30 ar  
    50   26   27 ar  
    51   26   31 1   
    52   27   28 ar  
    53   28   29 ar  
    54   28   53 1   
    55   29   30 ar  
    56   31   54 1   
    57   31   55 1   
@<TRIPOS>SUBSTRUCTURE
     1 MDS         1 TEMP              0 ****  ****    0 ROOT
