@<TRIPOS>MOLECULE
MDU
   38    38     1     0     0
SMALL
bcc


@<TRIPOS>ATOM
      1 P          -0.7160    5.9700   -0.0470 p4        1 MDU      1.694200
      2 N1          0.2300   -1.1800   -0.4010 n         1 MDU     -0.362000
      3 C2          1.3580   -0.9600    0.4780 c         1 MDU      0.802500
      4 O2          1.9030    0.1070    0.4950 o         1 MDU     -0.716500
      5 N3          1.8500   -2.0480    1.3290 n         1 MDU     -0.532400
      6 C4          1.2840   -3.3390    1.2250 c         1 MDU      0.720700
      7 O4          1.7250   -4.2510    1.8820 o         1 MDU     -0.713500
      8 C5          0.1450   -3.5620    0.3410 cc        1 MDU     -0.304400
      9 C6         -0.3900   -2.4550   -0.4530 cd        1 MDU      0.090600
     10 C1'        -0.2220   -0.1420   -1.2420 c3        1 MDU      0.304500
     11 O1P         0.7270    6.3980    0.0110 os        1 MDU     -1.217000
     12 C2'        -1.5370   -0.0740   -1.2100 c3        1 MDU     -0.115400
     13 C21         2.8600   -1.7870    2.2890 c3        1 MDU      0.304800
     14 O22         3.8960   -2.7700    2.1770 oh        1 MDU     -0.633800
     15 O2P        -1.2400    5.7660    1.3610 o         1 MDU     -0.928000
     16 C3'        -1.8640    1.4230   -1.3640 c3        1 MDU      0.108100
     17 O3'        -2.3490    1.6610   -2.5660 oh        1 MDU     -0.650800
     18 C4'        -0.4990    2.1790   -1.1700 c3        1 MDU      0.069100
     19 O4'         0.3190    1.2900   -0.7050 os        1 MDU     -0.425600
     20 C5'        -0.6680    3.3160   -0.1670 c3        1 MDU      0.225400
     21 O5'        -0.8380    4.5690   -0.8820 os        1 MDU     -0.574200
     22 C5M        -0.5550   -4.9380    0.3170 c3        1 MDU     -0.041900
     23 H6         -1.1400   -2.6010   -1.0360 h4        1 MDU      0.320000
     24 H1'         0.0750   -0.2900   -2.1350 h2        1 MDU      0.082700
     25 H2'        -1.9220   -0.5840   -1.9540 hc        1 MDU      0.051200
     26 H2'A       -1.8790   -0.4120   -0.3470 hc        1 MDU      0.051200
     27 H21         3.2430   -0.8800    2.1230 h2        1 MDU      0.061200
     28 H3'        -2.5030    1.7020   -0.6840 h1        1 MDU      0.147700
     29 HO3'       -3.2160    1.8770   -2.4990 ho        1 MDU      0.470000
     30 H4'        -0.1730    2.5280   -2.0380 h1        1 MDU      0.019700
     31 H5'        -1.4620    3.1480    0.3910 h1        1 MDU      0.004200
     32 H5'A        0.1240    3.3680    0.4000 h1        1 MDU      0.004200
     33 H5M        -0.4410   -5.3690    1.1690 hc        1 MDU      0.057033
     34 H5MA       -1.4910   -4.8170    0.1410 hc        1 MDU      0.057033
     35 H5MB       -0.1520   -5.5080   -0.4020 hc        1 MDU      0.057033
     36 O9         -1.5290    7.0380   -0.7370 o         1 MDU     -0.976800
     37 H16         2.4730   -1.8190    3.1880 h2        1 MDU      0.061200
     38 H17         4.5750   -2.5540    2.7210 ho        1 MDU      0.427000
@<TRIPOS>BOND
     1    1   15 1   
     2    1   21 1   
     3    1   36 2   
     4    2    3 1   
     5    2    9 1   
     6    2   10 1   
     7    3    4 2   
     8    3    5 1   
     9    5    6 1   
    10    5   13 1   
    11    6    7 2   
    12    6    8 1   
    13    8    9 2   
    14    8   22 1   
    15    9   23 1   
    16   10   12 1   
    17   10   19 1   
    18   10   24 1   
    19   12   16 1   
    20   12   25 1   
    21   12   26 1   
    22   13   14 1   
    23   13   27 1   
    24   13   37 1   
    25   14   38 1   
    26   16   17 1   
    27   16   18 1   
    28   16   28 1   
    29   17   29 1   
    30   18   19 1   
    31   18   20 1   
    32   18   30 1   
    33   20   21 1   
    34   20   31 1   
    35   20   32 1   
    36   22   33 1   
    37   22   34 1   
    38   22   35 1   
@<TRIPOS>SUBSTRUCTURE
     1 MDU         1 TEMP              0 ****  ****    0 ROOT
