@<TRIPOS>MOLECULE
MDU
   38    39     1     0     0
SMALL
bcc


@<TRIPOS>ATOM
      1 P          -2.9470    0.2420    1.8210 p5        1 MDU      1.341900
      2 N1          1.6740   -0.9040   -0.3500 n         1 MDU     -0.368000
      3 C2          3.0130   -0.8060   -0.7820 c         1 MDU      0.805500
      4 O2          3.4480   -1.4760   -1.7540 o         1 MDU     -0.705500
      5 N3          3.9050    0.0160   -0.0510 n         1 MDU     -0.534400
      6 C4          3.4690    0.8040    1.0480 c         1 MDU      0.721700
      7 O4          4.3220    1.5540    1.5790 o         1 MDU     -0.704500
      8 C5          2.0780    0.6580    1.4460 cc        1 MDU     -0.295400
      9 C6          1.2390   -0.1640    0.7370 cd        1 MDU      0.065600
     10 C1'         0.7280   -1.6870   -1.1710 c3        1 MDU      0.303500
     11 O1P        -3.3720   -1.2040    1.9000 o         1 MDU     -0.925500
     12 C2'        -0.0650   -2.7260   -0.3530 c3        1 MDU     -0.118400
     13 C21         5.2920    0.1090   -0.4720 c3        1 MDU      0.303800
     14 O22         5.6840    1.4030   -0.8980 oh        1 MDU     -0.628800
     15 O2P        -1.4470    0.3810    2.0190 o         1 MDU     -0.925500
     16 C3'        -1.4180   -2.0560   -0.1090 c3        1 MDU      0.107100
     17 O3'        -2.4630   -2.9950   -0.2280 oh        1 MDU     -0.654800
     18 C4'        -1.5230   -0.9520   -1.1840 c3        1 MDU      0.062100
     19 O4'        -0.2210   -0.8380   -1.8120 os        1 MDU     -0.438600
     20 C5'        -1.9250    0.4390   -0.6360 c3        1 MDU      0.223400
     21 O5'        -3.0760    0.4130    0.1000 os        1 MDU     -0.568200
     22 C5M         1.5680    1.4230    2.6020 c3        1 MDU     -0.044900
     23 H6          0.1440   -0.2490    1.0480 h4        1 MDU      0.305000
     24 H1'         1.3260   -2.1590   -2.0050 h2        1 MDU      0.086700
     25 H2'        -0.1850   -3.6540   -0.9650 hc        1 MDU      0.052200
     26 H2'A        0.4270   -2.9960    0.6090 hc        1 MDU      0.052200
     27 H21         5.9350   -0.2020    0.4030 h2        1 MDU      0.061700
     28 H3'        -1.4670   -1.5720    0.9220 h1        1 MDU      0.150700
     29 HO3'       -3.1480   -2.6830    0.4020 ho        1 MDU      0.480000
     30 H4'        -2.2220   -1.2680   -2.0020 h1        1 MDU      0.047700
     31 H5'        -1.0660    0.8640   -0.0450 h1        1 MDU     -0.001300
     32 H5'A       -2.0880    1.0950   -1.5430 h1        1 MDU     -0.001300
     33 H5M         1.8050    2.5080    2.4800 hc        1 MDU      0.060033
     34 H5MA        0.4470    1.2900    2.6840 hc        1 MDU      0.060033
     35 H5MB        2.0520    1.0680    3.5450 hc        1 MDU      0.060033
     36 O9         -3.8190    1.3130    2.3890 o         1 MDU     -0.925500
     37 H16         5.4710   -0.5500   -1.3710 h2        1 MDU      0.061700
     38 H17         5.5480    2.0190   -0.1630 ho        1 MDU      0.427000
@<TRIPOS>BOND
     1    1   11 1   
     2    1   15 1   
     3    1   21 1   
     4    1   36 1   
     5    2    3 1   
     6    2    9 1   
     7    2   10 1   
     8    3    4 2   
     9    3    5 1   
    10    5    6 1   
    11    5   13 1   
    12    6    7 2   
    13    6    8 1   
    14    8    9 2   
    15    8   22 1   
    16    9   23 1   
    17   10   12 1   
    18   10   19 1   
    19   10   24 1   
    20   12   16 1   
    21   12   25 1   
    22   12   26 1   
    23   13   14 1   
    24   13   27 1   
    25   13   37 1   
    26   14   38 1   
    27   16   17 1   
    28   16   18 1   
    29   16   28 1   
    30   17   29 1   
    31   18   19 1   
    32   18   20 1   
    33   18   30 1   
    34   20   21 1   
    35   20   31 1   
    36   20   32 1   
    37   22   33 1   
    38   22   34 1   
    39   22   35 1   
@<TRIPOS>SUBSTRUCTURE
     1 MDU         1 TEMP              0 ****  ****    0 ROOT
