@<TRIPOS>MOLECULE
MDV
   40    43     1     0     0
SMALL
bcc


@<TRIPOS>ATOM
      1 P           5.2890    0.2090   -1.2850 p5        1 MDV      1.331900
      2 N1         -4.7430   -0.3590    0.1760 na        1 MDV     -0.375900
      3 C2         -4.1260   -1.4380    0.7920 cc        1 MDV      0.544400
      4 N3         -2.8280   -1.6150    0.9240 nd        1 MDV     -0.674000
      5 C4         -2.0380   -0.5860    0.4030 cd        1 MDV      0.364800
      6 C5         -2.5600    0.6100   -0.2360 cc        1 MDV     -0.088900
      7 C6         -3.9900    0.7550   -0.3480 cc        1 MDV      0.188700
      8 N6         -4.7300    1.7390   -0.8380 n2        1 MDV     -0.400200
      9 N7         -1.5150    1.4350   -0.6350 nc        1 MDV     -0.532100
     10 C8         -0.3910    0.7760   -0.2620 cd        1 MDV      0.419700
     11 N9         -0.6520   -0.4560    0.3670 na        1 MDV     -0.210000
     12 C1'         0.3210   -1.3980    0.9380 c3        1 MDV      0.249800
     13 O1P         4.6270    1.2380   -2.1560 o         1 MDV     -0.929833
     14 C2'         0.8870   -2.4040   -0.0850 c3        1 MDV     -0.129400
     15 C22        -6.1680   -0.0530    0.0690 c3        1 MDV      0.175800
     16 C23        -6.1450    1.3650   -0.6850 c3        1 MDV      0.294300
     17 H1         -6.7170   -0.8410   -0.5160 h2        1 MDV      0.103700
     18 O26        -6.8720    1.2340   -1.8920 oh        1 MDV     -0.602800
     19 O2P         6.7450    0.3640   -0.9760 o         1 MDV     -0.929833
     20 C3'         2.3270   -1.9380   -0.3480 c3        1 MDV      0.158100
     21 O3'         3.1850   -3.0500   -0.2330 oh        1 MDV     -0.672800
     22 C4'         2.6240   -0.8880    0.7410 c3        1 MDV      0.052100
     23 O4'         1.3990   -0.6740    1.4960 os        1 MDV     -0.432600
     24 C5'         3.1430    0.4610    0.1880 c3        1 MDV      0.228400
     25 O5'         4.5060    0.5120    0.2500 os        1 MDV     -0.552200
     26 H1'        -0.2080   -1.9110    1.7950 h2        1 MDV      0.069700
     27 H2'         0.8870   -3.4230    0.3740 hc        1 MDV      0.054700
     28 H2'A        0.2990   -2.4430   -1.0300 hc        1 MDV      0.054700
     29 H3'         2.4350   -1.4870   -1.3750 h1        1 MDV      0.106700
     30 HO3'        4.0430   -2.7520   -0.6190 ho        1 MDV      0.502000
     31 H4'         3.3580   -1.2920    1.4890 h1        1 MDV      0.083700
     32 H5'         2.7800    0.6050   -0.8710 h1        1 MDV     -0.004300
     33 H5'A        2.7000    1.2730    0.8390 h1        1 MDV     -0.004300
     34 O8          4.7760   -1.2010   -1.4990 o         1 MDV     -0.929833
     35 O24        -6.8350    0.0110    1.3100 oh        1 MDV     -0.599800
     36 H141       -6.7050    2.1330   -0.0840 h2        1 MDV      0.085700
     37 H15        -6.2620    1.0180   -2.6080 ho        1 MDV      0.419000
     38 H16        -6.4900    0.7620    1.8110 ho        1 MDV      0.411000
     39 H2         -4.8050   -2.2160    1.1950 h5        1 MDV      0.041100
     40 H8          0.6510    1.1210   -0.4100 h5        1 MDV      0.128800
@<TRIPOS>BOND
     1    1   13 1   
     2    1   19 1   
     3    1   25 1   
     4    1   34 1   
     5    2    3 1   
     6    2    7 1   
     7    2   15 1   
     8    3    4 2   
     9    3   39 1   
    10    4    5 1   
    11    5    6 2   
    12    5   11 1   
    13    6    7 1   
    14    6    9 1   
    15    7    8 2   
    16    8   16 1   
    17    9   10 2   
    18   10   11 1   
    19   10   40 1   
    20   11   12 1   
    21   12   14 1   
    22   12   23 1   
    23   12   26 1   
    24   14   20 1   
    25   14   27 1   
    26   14   28 1   
    27   15   16 1   
    28   15   17 1   
    29   15   35 1   
    30   16   18 1   
    31   16   36 1   
    32   18   37 1   
    33   20   21 1   
    34   20   22 1   
    35   20   29 1   
    36   21   30 1   
    37   22   23 1   
    38   22   24 1   
    39   22   31 1   
    40   24   25 1   
    41   24   32 1   
    42   24   33 1   
    43   35   38 1   
@<TRIPOS>SUBSTRUCTURE
     1 MDV         1 TEMP              0 ****  ****    0 ROOT
