@<TRIPOS>MOLECULE
MDW
   49    51     1     0     0
SMALL
bcc


@<TRIPOS>ATOM
      1 C3          0.2520    0.1480    0.5010 ca        1 MDW     -0.188000
      2 C2          1.6470    0.2370    0.4970 ca        1 MDW      0.115100
      3 O1          2.3760    0.3080   -0.6590 oh        1 MDW     -0.482100
      4 C7          2.3610    0.2460    1.7260 ca        1 MDW      0.121100
      5 O12         3.7270    0.2350    1.8560 os        1 MDW     -0.326900
      6 C13         4.4890    0.8610    0.8190 c3        1 MDW      0.119700
      7 C6          1.6470    0.1820    2.9270 ca        1 MDW     -0.166000
      8 C5          0.2500    0.0710    2.9170 ca        1 MDW     -0.202300
      9 C8         -0.4720    0.0440    4.2370 c3        1 MDW      0.270800
     10 C14        -0.0590   -1.2410    5.0240 c         1 MDW      0.527100
     11 O15        -0.0640   -1.4430    6.2150 o         1 MDW     -0.359100
     12 N16         0.4140   -2.4000    4.1030 n4        1 MDW     -0.471300
     13 O17         0.4920   -3.5400    4.8220 oh        1 MDW     -0.350300
     14 C4         -0.4530    0.0580    1.7070 ca        1 MDW     -0.033300
     15 C10        -1.9370   -0.0110    1.6870 c3        1 MDW     -0.073100
     16 C11        -2.5090   -0.4810    3.0260 c3        1 MDW      0.215800
     17 N9         -1.8900    0.1260    4.1760 n3        1 MDW     -0.769500
     18 S18        -2.7730    1.1940    5.1630 sy        1 MDW      1.523200
     19 O40        -1.8060    1.8570    5.9390 o         1 MDW     -0.631800
     20 O41        -3.5920    1.9540    4.3170 o         1 MDW     -0.631800
     21 C19        -3.6800    0.1720    6.0780 ca        1 MDW     -0.491500
     22 C20        -5.0370   -0.0470    5.7810 ca        1 MDW      0.028500
     23 C21        -5.8390   -0.8430    6.5840 ca        1 MDW     -0.211500
     24 C22        -5.2820   -1.4470    7.7250 ca        1 MDW      0.223100
     25 O25        -5.9660   -2.2530    8.5890 os        1 MDW     -0.305900
     26 C26        -7.3640   -2.4280    8.3480 c3        1 MDW      0.104700
     27 C23        -3.9190   -1.2440    8.0460 ca        1 MDW     -0.211500
     28 C24        -3.1470   -0.4440    7.2280 ca        1 MDW      0.028500
     29 H28        -0.3010    0.1580   -0.4530 ha        1 MDW      0.161000
     30 H27         1.7650    0.4130   -1.4070 ho        1 MDW      0.442000
     31 H35         5.4940    0.9980    1.2930 h1        1 MDW      0.063367
     32 H36         4.0420    1.8410    0.5280 h1        1 MDW      0.063367
     33 H37         4.5500    0.1770   -0.0630 h1        1 MDW      0.063367
     34 H29         2.2040    0.2610    3.8740 ha        1 MDW      0.162000
     35 H30        -0.0670    0.8880    4.8980 h1        1 MDW      0.162700
     36 H38         1.3310   -2.1280    3.7010 hn        1 MDW      0.464300
     37 H39         0.9690   -4.2210    4.2980 ho        1 MDW      0.460000
     38 H31        -2.2900   -0.7090    0.8820 hc        1 MDW      0.089700
     39 H32        -2.3400    1.0120    1.4430 hc        1 MDW      0.089700
     40 H33        -3.6130   -0.2430    3.0500 h1        1 MDW      0.054700
     41 H34        -2.4000   -1.6030    3.0960 h1        1 MDW      0.054700
     42 H48        -5.4780    0.4470    4.8940 ha        1 MDW      0.157000
     43 H42        -6.9000   -0.9860    6.3320 ha        1 MDW      0.166000
     44 H45        -7.5270   -2.9390    7.3690 h1        1 MDW      0.061700
     45 H46        -7.8920   -1.4450    8.3810 h1        1 MDW      0.061700
     46 H47        -7.6850   -3.0830    9.1980 h1        1 MDW      0.061700
     47 H43        -3.5030   -1.7160    8.9500 ha        1 MDW      0.166000
     48 H44        -2.0870   -0.2650    7.4890 ha        1 MDW      0.157000
     49 H162       -0.2760   -2.4940    3.3370 hn        1 MDW      0.464300
@<TRIPOS>BOND
     1    1    2 ar  
     2    1   14 ar  
     3    1   29 1   
     4    2    3 1   
     5    2    4 ar  
     6    3   30 1   
     7    4    5 1   
     8    4    7 ar  
     9    5    6 1   
    10    6   31 1   
    11    6   32 1   
    12    6   33 1   
    13    7    8 ar  
    14    7   34 1   
    15    8    9 1   
    16    8   14 ar  
    17    9   10 1   
    18    9   17 1   
    19    9   35 1   
    20   10   11 2   
    21   10   12 1   
    22   12   13 1   
    23   12   36 1   
    24   12   49 1   
    25   13   37 1   
    26   14   15 1   
    27   15   16 1   
    28   15   38 1   
    29   15   39 1   
    30   16   17 1   
    31   16   40 1   
    32   16   41 1   
    33   17   18 1   
    34   18   19 2   
    35   18   20 2   
    36   18   21 1   
    37   21   22 ar  
    38   21   28 ar  
    39   22   23 ar  
    40   22   42 1   
    41   23   24 ar  
    42   23   43 1   
    43   24   25 1   
    44   24   27 ar  
    45   25   26 1   
    46   26   44 1   
    47   26   45 1   
    48   26   46 1   
    49   27   28 ar  
    50   27   47 1   
    51   28   48 1   
@<TRIPOS>SUBSTRUCTURE
     1 MDW         1 TEMP              0 ****  ****    0 ROOT
