@<TRIPOS>MOLECULE
MDW
   48    50     1     0     0
SMALL
bcc


@<TRIPOS>ATOM
      1 C3          3.9300    1.3440   -1.0830 ca        1 MDW     -0.141000
      2 C2          4.9270    0.5950   -0.4540 ca        1 MDW      0.127100
      3 O1          6.2290    0.8720   -0.7900 oh        1 MDW     -0.492100
      4 C7          4.5710   -0.4050    0.4850 ca        1 MDW      0.047100
      5 O12         5.6410   -1.0840    1.0420 os        1 MDW     -0.346900
      6 C13         5.3210   -2.0160    2.0700 c3        1 MDW      0.119700
      7 C6          3.2310   -0.6440    0.7760 ca        1 MDW     -0.139000
      8 C5          2.2370    0.1070    0.1330 ca        1 MDW     -0.110300
      9 C8          0.7980   -0.1840    0.4750 c3        1 MDW      0.218800
     10 C14         0.4090   -1.5960   -0.0420 c         1 MDW      0.585100
     11 O15        -0.2490   -2.3650    0.6760 o         1 MDW     -0.572100
     12 N16         0.9440   -2.0250   -1.2820 n         1 MDW     -0.348400
     13 O17         0.2680   -3.0030   -1.8890 oh        1 MDW     -0.433100
     14 C4          2.5830    1.1030   -0.7870 ca        1 MDW     -0.057300
     15 C10         1.5440    1.9480   -1.4330 c3        1 MDW     -0.057100
     16 C11         0.1330    1.3730   -1.2830 c3        1 MDW      0.221800
     17 N9         -0.1380    0.8090    0.0130 n3        1 MDW     -0.795500
     18 S18        -1.3000    1.4480    0.9980 sy        1 MDW      1.517200
     19 O40        -0.9980    1.1150    2.3340 o         1 MDW     -0.650800
     20 O41        -1.4390    2.8240    0.7070 o         1 MDW     -0.650800
     21 C19        -2.6950    0.6630    0.5190 ca        1 MDW     -0.440500
     22 C20        -3.6760    1.3430   -0.2150 ca        1 MDW      0.024000
     23 C21        -4.8690    0.7300   -0.5770 ca        1 MDW     -0.211500
     24 C22        -5.0930   -0.6030   -0.1970 ca        1 MDW      0.194100
     25 O25        -6.2290   -1.3150   -0.4940 os        1 MDW     -0.317900
     26 C26        -7.2400   -0.6280   -1.2270 c3        1 MDW      0.109700
     27 C23        -4.1210   -1.3100    0.5400 ca        1 MDW     -0.211500
     28 C24        -2.9410   -0.6710    0.8860 ca        1 MDW      0.024000
     29 H28         4.2160    2.1240   -1.8040 ha        1 MDW      0.156000
     30 H27         6.8060    0.2990   -0.2620 ho        1 MDW      0.440000
     31 H35         4.7920   -1.5080    2.9130 h1        1 MDW      0.049033
     32 H36         4.7010   -2.8500    1.6610 h1        1 MDW      0.049033
     33 H37         6.3240   -2.3920    2.3990 h1        1 MDW      0.049033
     34 H29         2.9410   -1.4170    1.5020 ha        1 MDW      0.148000
     35 H30         0.7130   -0.2480    1.6100 h1        1 MDW      0.120700
     36 H38         1.0810   -1.2710   -1.9460 hn        1 MDW      0.310500
     37 H39         0.4880   -3.8210   -1.4010 ho        1 MDW      0.433000
     38 H31         1.7630    2.0640   -2.5270 hc        1 MDW      0.068700
     39 H32         1.5810    2.9730   -0.9720 hc        1 MDW      0.068700
     40 H33        -0.0250    0.5840   -2.0740 h1        1 MDW      0.053700
     41 H34        -0.6110    2.2010   -1.4760 h1        1 MDW      0.053700
     42 H48        -3.5000    2.3970   -0.5000 ha        1 MDW      0.163000
     43 H42        -5.6220    1.2910   -1.1480 ha        1 MDW      0.154500
     44 H45        -6.8550   -0.3150   -2.2270 h1        1 MDW      0.051033
     45 H46        -8.0460   -1.3980   -1.3350 h1        1 MDW      0.051033
     46 H47        -7.6110    0.2550   -0.6510 h1        1 MDW      0.051033
     47 H43        -4.3110   -2.3540    0.8280 ha        1 MDW      0.154500
     48 H44        -2.1750   -1.2270    1.4610 ha        1 MDW      0.163000
@<TRIPOS>BOND
     1    1    2 ar  
     2    1   14 ar  
     3    1   29 1   
     4    2    3 1   
     5    2    4 ar  
     6    3   30 1   
     7    4    5 1   
     8    4    7 ar  
     9    5    6 1   
    10    6   31 1   
    11    6   32 1   
    12    6   33 1   
    13    7    8 ar  
    14    7   34 1   
    15    8    9 1   
    16    8   14 ar  
    17    9   10 1   
    18    9   17 1   
    19    9   35 1   
    20   10   11 2   
    21   10   12 1   
    22   12   13 1   
    23   12   36 1   
    24   13   37 1   
    25   14   15 1   
    26   15   16 1   
    27   15   38 1   
    28   15   39 1   
    29   16   17 1   
    30   16   40 1   
    31   16   41 1   
    32   17   18 1   
    33   18   19 2   
    34   18   20 2   
    35   18   21 1   
    36   21   22 ar  
    37   21   28 ar  
    38   22   23 ar  
    39   22   42 1   
    40   23   24 ar  
    41   23   43 1   
    42   24   25 1   
    43   24   27 ar  
    44   25   26 1   
    45   26   44 1   
    46   26   45 1   
    47   26   46 1   
    48   27   28 ar  
    49   27   47 1   
    50   28   48 1   
@<TRIPOS>SUBSTRUCTURE
     1 MDW         1 TEMP              0 ****  ****    0 ROOT
