@<TRIPOS>MOLECULE
MDW
   49    51     1     0     0
SMALL
bcc


@<TRIPOS>ATOM
      1 C3          0.2500    0.2250    0.5180 ca        1 MDW     -0.188000
      2 C2          1.6470    0.2730    0.5100 ca        1 MDW      0.115100
      3 O1          2.3730    0.3630   -0.6480 oh        1 MDW     -0.482100
      4 C7          2.3670    0.2200    1.7330 ca        1 MDW      0.121100
      5 O12         3.7330    0.1660    1.8550 os        1 MDW     -0.326900
      6 C13         4.5080    0.8060    0.8360 c3        1 MDW      0.119700
      7 C6          1.6580    0.1350    2.9360 ca        1 MDW     -0.166000
      8 C5          0.2590    0.0650    2.9300 ca        1 MDW     -0.202300
      9 C8         -0.4570    0.0120    4.2530 c3        1 MDW      0.270800
     10 C14        -0.0760   -1.3100    4.9930 c         1 MDW      0.527100
     11 O15        -0.0790   -1.5520    6.1770 o         1 MDW     -0.359100
     12 N16         0.3570   -2.4510    4.0300 n4        1 MDW     -0.471300
     13 O17         0.4060   -3.6150    4.7100 oh        1 MDW     -0.350300
     14 C4         -0.4510    0.1130    1.7250 ca        1 MDW     -0.033300
     15 C10        -1.9360    0.0860    1.7120 c3        1 MDW     -0.073100
     16 C11        -2.5150   -0.4140    3.0360 c3        1 MDW      0.215800
     17 N9         -1.8730    0.1350    4.2040 n3        1 MDW     -0.769500
     18 S18        -2.7210    1.1920    5.2320 sy        1 MDW      1.523200
     19 O40        -1.7320    1.8020    6.0230 o         1 MDW     -0.630800
     20 O41        -3.5250    2.0010    4.4180 o         1 MDW     -0.630800
     21 C19        -3.6500    0.1640    6.1180 ca        1 MDW     -0.491500
     22 C20        -5.0130   -0.0100    5.8230 ca        1 MDW      0.028500
     23 C21        -5.8310   -0.8110    6.6040 ca        1 MDW     -0.211500
     24 C22        -5.2840   -1.4670    7.7210 ca        1 MDW      0.223100
     25 O25        -5.9830   -2.2840    8.5620 os        1 MDW     -0.305900
     26 C26        -7.3870   -2.4150    8.3250 c3        1 MDW      0.104700
     27 C23        -3.9140   -1.3100    8.0400 ca        1 MDW     -0.211500
     28 C24        -3.1270   -0.5030    7.2440 ca        1 MDW      0.028500
     29 H28        -0.3060    0.2820   -0.4310 ha        1 MDW      0.161000
     30 H27         1.7610    0.5120   -1.3880 ho        1 MDW      0.442000
     31 H35         4.5450    0.1510   -0.0700 h1        1 MDW      0.063367
     32 H36         5.5190    0.8980    1.3080 h1        1 MDW      0.063367
     33 H37         4.0880    1.8070    0.5820 h1        1 MDW      0.063367
     34 H29         2.2220    0.1650    3.8820 ha        1 MDW      0.162000
     35 H30        -0.0260    0.8220    4.9400 h1        1 MDW      0.162700
     36 H38        -0.3420   -2.4990    3.2670 hn        1 MDW      0.464300
     37 H39         0.8590   -4.2920    4.1590 ho        1 MDW      0.460000
     38 H31        -2.3130   -0.5730    0.8840 hc        1 MDW      0.089700
     39 H32        -2.3120    1.1280    1.5060 hc        1 MDW      0.089700
     40 H33        -3.6120   -0.1460    3.0750 h1        1 MDW      0.055200
     41 H34        -2.4370   -1.5410    3.0670 h1        1 MDW      0.055200
     42 H48        -5.4470    0.5240    4.9560 ha        1 MDW      0.157000
     43 H42        -6.8970   -0.9180    6.3540 ha        1 MDW      0.166000
     44 H45        -7.8890   -1.4200    8.3940 h1        1 MDW      0.061700
     45 H46        -7.7200   -3.0890    9.1550 h1        1 MDW      0.061700
     46 H47        -7.5690   -2.8880    7.3300 h1        1 MDW      0.061700
     47 H43        -3.5060   -1.8230    8.9240 ha        1 MDW      0.166000
     48 H44        -2.0610   -0.3610    7.5040 ha        1 MDW      0.157000
     49 H162        1.2780   -2.1920    3.6300 hn        1 MDW      0.464300
@<TRIPOS>BOND
     1    1    2 ar  
     2    1   14 ar  
     3    1   29 1   
     4    2    3 1   
     5    2    4 ar  
     6    3   30 1   
     7    4    5 1   
     8    4    7 ar  
     9    5    6 1   
    10    6   31 1   
    11    6   32 1   
    12    6   33 1   
    13    7    8 ar  
    14    7   34 1   
    15    8    9 1   
    16    8   14 ar  
    17    9   10 1   
    18    9   17 1   
    19    9   35 1   
    20   10   11 2   
    21   10   12 1   
    22   12   13 1   
    23   12   36 1   
    24   12   49 1   
    25   13   37 1   
    26   14   15 1   
    27   15   16 1   
    28   15   38 1   
    29   15   39 1   
    30   16   17 1   
    31   16   40 1   
    32   16   41 1   
    33   17   18 1   
    34   18   19 2   
    35   18   20 2   
    36   18   21 1   
    37   21   22 ar  
    38   21   28 ar  
    39   22   23 ar  
    40   22   42 1   
    41   23   24 ar  
    42   23   43 1   
    43   24   25 1   
    44   24   27 ar  
    45   25   26 1   
    46   26   44 1   
    47   26   45 1   
    48   26   46 1   
    49   27   28 ar  
    50   27   47 1   
    51   28   48 1   
@<TRIPOS>SUBSTRUCTURE
     1 MDW         1 TEMP              0 ****  ****    0 ROOT
