@<TRIPOS>MOLECULE
MDW
   49    51     1     0     0
SMALL
bcc


@<TRIPOS>ATOM
      1 C3          0.2450    0.1010    0.4910 ca        1 MDW     -0.188000
      2 C2          1.6390    0.1990    0.4870 ca        1 MDW      0.115100
      3 O1          2.3690    0.2550   -0.6710 oh        1 MDW     -0.482100
      4 C7          2.3520    0.2360    1.7150 ca        1 MDW      0.121100
      5 O12         3.7190    0.2380    1.8460 os        1 MDW     -0.326900
      6 C13         4.4770    0.8510    0.7980 c3        1 MDW      0.119700
      7 C6          1.6390    0.1890    2.9170 ca        1 MDW     -0.166000
      8 C5          0.2430    0.0670    2.9080 ca        1 MDW     -0.202300
      9 C8         -0.4800    0.0580    4.2290 c3        1 MDW      0.270800
     10 C14        -0.0560   -1.2090    5.0390 c         1 MDW      0.527100
     11 O15        -0.0570   -1.3880    6.2340 o         1 MDW     -0.359100
     12 N16         0.4240   -2.3820    4.1390 ny        1 MDW     -0.471300
     13 O17         0.5110   -3.5070    4.8790 oh        1 MDW     -0.350300
     14 C4         -0.4600    0.0270    1.6990 ca        1 MDW     -0.033300
     15 C10        -1.9430   -0.0550    1.6800 c3        1 MDW     -0.073100
     16 C11        -2.5120   -0.5060    3.0260 c3        1 MDW      0.215800
     17 N9         -1.8990    0.1260    4.1660 n3        1 MDW     -0.769500
     18 S18        -2.7910    1.2030    5.1340 sy        1 MDW      1.523200
     19 O40        -1.8300    1.8890    5.8960 o         1 MDW     -0.630800
     20 O41        -3.6190    1.9390    4.2750 o         1 MDW     -0.630800
     21 C19        -3.6880    0.1890    6.0680 ca        1 MDW     -0.491500
     22 C20        -5.0420   -0.0500    5.7750 ca        1 MDW      0.028500
     23 C21        -5.8350   -0.8400    6.5930 ca        1 MDW     -0.211500
     24 C22        -5.2720   -1.4160    7.7450 ca        1 MDW      0.223100
     25 O25        -5.9470   -2.2130    8.6240 os        1 MDW     -0.305900
     26 C26        -7.3430   -2.4080    8.3860 c3        1 MDW      0.104700
     27 C23        -3.9120   -1.1920    8.0630 ca        1 MDW     -0.211500
     28 C24        -3.1480   -0.3990    7.2290 ca        1 MDW      0.028500
     29 H28        -0.3070    0.0890   -0.4620 ha        1 MDW      0.161000
     30 H27         1.7570    0.3430   -1.4210 ho        1 MDW      0.442000
     31 H35         5.4810    1.0040    1.2700 h1        1 MDW      0.063367
     32 H36         4.5430    0.1520   -0.0710 h1        1 MDW      0.063367
     33 H37         4.0230    1.8220    0.4900 h1        1 MDW      0.063367
     34 H29         2.1950    0.2880    3.8630 ha        1 MDW      0.162000
     35 H30        -0.0830    0.9170    4.8740 h1        1 MDW      0.162700
     36 H38        -0.2670   -2.4960    3.3760 hn        1 MDW      0.464300
     37 H39         0.9920   -4.1950    4.3670 ho        1 MDW      0.460000
     38 H31        -2.2900   -0.7690    0.8860 hc        1 MDW      0.089700
     39 H32        -2.3540    0.9610    1.4180 hc        1 MDW      0.089700
     40 H33        -2.3940   -1.6260    3.1150 h1        1 MDW      0.055200
     41 H34        -3.6180   -0.2770    3.0460 h1        1 MDW      0.055200
     42 H48        -5.4880    0.4220    4.8790 ha        1 MDW      0.157000
     43 H42        -6.8950   -0.9980    6.3430 ha        1 MDW      0.166000
     44 H45        -7.8830   -1.4300    8.4010 h1        1 MDW      0.061700
     45 H46        -7.5010   -2.9380    7.4170 h1        1 MDW      0.061700
     46 H47        -7.6580   -3.0500    9.2490 h1        1 MDW      0.061700
     47 H43        -3.4910   -1.6420    8.9750 ha        1 MDW      0.166000
     48 H44        -2.0910   -0.2040    7.4870 ha        1 MDW      0.157000
     49 H162        1.3380   -2.1110    3.7310 hn        1 MDW      0.464300
@<TRIPOS>BOND
     1    1    2 ar  
     2    1   14 ar  
     3    1   29 1   
     4    2    3 1   
     5    2    4 ar  
     6    3   30 1   
     7    4    5 1   
     8    4    7 ar  
     9    5    6 1   
    10    6   31 1   
    11    6   32 1   
    12    6   33 1   
    13    7    8 ar  
    14    7   34 1   
    15    8    9 1   
    16    8   14 ar  
    17    9   10 1   
    18    9   17 1   
    19    9   35 1   
    20   10   11 2   
    21   10   12 1   
    22   12   13 1   
    23   12   36 1   
    24   12   49 1   
    25   13   37 1   
    26   14   15 1   
    27   15   16 1   
    28   15   38 1   
    29   15   39 1   
    30   16   17 1   
    31   16   40 1   
    32   16   41 1   
    33   17   18 1   
    34   18   19 2   
    35   18   20 2   
    36   18   21 1   
    37   21   22 ar  
    38   21   28 ar  
    39   22   23 ar  
    40   22   42 1   
    41   23   24 ar  
    42   23   43 1   
    43   24   25 1   
    44   24   27 ar  
    45   25   26 1   
    46   26   44 1   
    47   26   45 1   
    48   26   46 1   
    49   27   28 ar  
    50   27   47 1   
    51   28   48 1   
@<TRIPOS>SUBSTRUCTURE
     1 MDW         1 TEMP              0 ****  ****    0 ROOT
