@<TRIPOS>MOLECULE
MDX
   35    34     1     0     0
SMALL
bcc


@<TRIPOS>ATOM
      1 O1          0.2220   -0.9430    0.1140 o         1 MDX     -0.853300
      2 C11         1.1720   -0.1110    0.0280 c         1 MDX      0.907600
      3 O2          1.5440    0.6320    0.9820 o         1 MDX     -0.853300
      4 C10         1.9400   -0.0070   -1.3020 c3        1 MDX     -0.194400
      5 C9          0.9950    0.0490   -2.4770 c3        1 MDX     -0.065400
      6 C8          1.7300   -0.0350   -3.7980 c3        1 MDX     -0.078400
      7 C7          0.7720    0.0360   -4.9690 c3        1 MDX     -0.078400
      8 C6          1.5030   -0.0540   -6.2920 c3        1 MDX     -0.078400
      9 C5          0.5400    0.0140   -7.4580 c3        1 MDX     -0.079400
     10 C4          1.2680   -0.0740   -8.7820 c3        1 MDX     -0.078400
     11 C3          0.2990   -0.0090   -9.9440 c3        1 MDX     -0.077400
     12 C2          1.0260   -0.0950  -11.2710 c3        1 MDX     -0.073400
     13 C1          0.0530   -0.0330  -12.4200 c3        1 MDX      0.015700
     14 S1          0.9930   -0.1320  -13.9210 sh        1 MDX     -0.389900
     15 H101        2.5930    0.9010   -1.2830 hc        1 MDX      0.018700
     16 H102        2.6020   -0.9060   -1.3850 hc        1 MDX      0.018700
     17 H91         0.2620   -0.7970   -2.3880 hc        1 MDX      0.044200
     18 H92         0.4050    1.0020   -2.4370 hc        1 MDX      0.044200
     19 H81         2.4730    0.8020   -3.8700 hc        1 MDX      0.026700
     20 H82         2.3090   -0.9940   -3.8460 hc        1 MDX      0.026700
     21 H71         0.1960    0.9980   -4.9230 hc        1 MDX      0.036700
     22 H72         0.0270   -0.7990   -4.8920 hc        1 MDX      0.036700
     23 H61         2.0800   -1.0150   -6.3370 hc        1 MDX      0.035200
     24 H62         2.2470    0.7820   -6.3690 hc        1 MDX      0.035200
     25 H51        -0.2030   -0.8240   -7.3800 hc        1 MDX      0.038200
     26 H52        -0.0390    0.9740   -7.4100 hc        1 MDX      0.038200
     27 H41         2.0080    0.7650   -8.8620 hc        1 MDX      0.039700
     28 H42         1.8480   -1.0330   -8.8290 hc        1 MDX      0.039700
     29 H31        -0.4400   -0.8500   -9.8640 hc        1 MDX      0.039700
     30 H32        -0.2830    0.9480   -9.8950 hc        1 MDX      0.039700
     31 H21         1.6100   -1.0530  -11.3180 hc        1 MDX      0.056700
     32 H22         1.7620    0.7490  -11.3500 hc        1 MDX      0.056700
     33 H11        -0.5270    0.9210  -12.3900 h1        1 MDX      0.058700
     34 H12        -0.6740   -0.8790  -12.3630 h1        1 MDX      0.058700
     35 HS1         0.0020   -0.0690  -14.7900 hs        1 MDX      0.193800
@<TRIPOS>BOND
     1    1    2 1   
     2    2    3 1   
     3    2    4 1   
     4    4    5 1   
     5    4   15 1   
     6    4   16 1   
     7    5    6 1   
     8    5   17 1   
     9    5   18 1   
    10    6    7 1   
    11    6   19 1   
    12    6   20 1   
    13    7    8 1   
    14    7   21 1   
    15    7   22 1   
    16    8    9 1   
    17    8   23 1   
    18    8   24 1   
    19    9   10 1   
    20    9   25 1   
    21    9   26 1   
    22   10   11 1   
    23   10   27 1   
    24   10   28 1   
    25   11   12 1   
    26   11   29 1   
    27   11   30 1   
    28   12   13 1   
    29   12   31 1   
    30   12   32 1   
    31   13   14 1   
    32   13   33 1   
    33   13   34 1   
    34   14   35 1   
@<TRIPOS>SUBSTRUCTURE
     1 MDX         1 TEMP              0 ****  ****    0 ROOT
