@<TRIPOS>MOLECULE
MDX
   35    34     1     0     0
SMALL
bcc


@<TRIPOS>ATOM
      1 O1          0.2510    0.9740    0.1040 o         1 MDX     -0.853300
      2 C11         1.1760    0.1140    0.0270 c         1 MDX      0.907600
      3 O2          1.5260   -0.6310    0.9880 o         1 MDX     -0.853300
      4 C10         1.9400   -0.0270   -1.3020 c3        1 MDX     -0.194400
      5 C9          0.9940   -0.0680   -2.4760 c3        1 MDX     -0.065400
      6 C8          1.7300   -0.0200   -3.7990 c3        1 MDX     -0.078400
      7 C7          0.7710   -0.0760   -4.9680 c3        1 MDX     -0.078400
      8 C6          1.5030   -0.0210   -6.2920 c3        1 MDX     -0.078400
      9 C5          0.5390   -0.0750   -7.4570 c3        1 MDX     -0.079400
     10 C4          1.2680   -0.0210   -8.7830 c3        1 MDX     -0.078400
     11 C3          0.2980   -0.0720   -9.9430 c3        1 MDX     -0.077400
     12 C2          1.0270   -0.0210  -11.2710 c3        1 MDX     -0.073400
     13 C1          0.0520   -0.0700  -12.4190 c3        1 MDX      0.015700
     14 S1          0.9940   -0.0120  -13.9210 sh        1 MDX     -0.389900
     15 H101        2.6280    0.8510   -1.3950 hc        1 MDX      0.018700
     16 H102        2.5670   -0.9530   -1.2730 hc        1 MDX      0.018700
     17 H91         0.3760   -1.0030   -2.4260 hc        1 MDX      0.044200
     18 H92         0.2850    0.8000   -2.3970 hc        1 MDX      0.044200
     19 H81         2.3370    0.9220   -3.8560 hc        1 MDX      0.026700
     20 H82         2.4490   -0.8790   -3.8610 hc        1 MDX      0.026700
     21 H71         0.0500    0.7800   -4.9010 hc        1 MDX      0.036700
     22 H72         0.1670   -1.0200   -4.9120 hc        1 MDX      0.036700
     23 H61         2.2230   -0.8780   -6.3600 hc        1 MDX      0.035200
     24 H62         2.1080    0.9220   -6.3480 hc        1 MDX      0.035200
     25 H51        -0.0670   -1.0180   -7.3990 hc        1 MDX      0.038200
     26 H52        -0.1800    0.7830   -7.3890 hc        1 MDX      0.038200
     27 H41         1.8750    0.9210   -8.8400 hc        1 MDX      0.039700
     28 H42         1.9850   -0.8810   -8.8530 hc        1 MDX      0.039700
     29 H31        -0.3100   -1.0140   -9.8840 hc        1 MDX      0.039700
     30 H32        -0.4170    0.7890   -9.8730 hc        1 MDX      0.039700
     31 H21         1.7400   -0.8850  -11.3410 hc        1 MDX      0.056700
     32 H22         1.6360    0.9200  -11.3290 hc        1 MDX      0.056700
     33 H11        -0.6520    0.7960  -12.3720 h1        1 MDX      0.058700
     34 H12        -0.5530   -1.0070  -12.3800 h1        1 MDX      0.058700
     35 HS1         0.0010   -0.0580  -14.7900 hs        1 MDX      0.193800
@<TRIPOS>BOND
     1    1    2 1   
     2    2    3 1   
     3    2    4 1   
     4    4    5 1   
     5    4   15 1   
     6    4   16 1   
     7    5    6 1   
     8    5   17 1   
     9    5   18 1   
    10    6    7 1   
    11    6   19 1   
    12    6   20 1   
    13    7    8 1   
    14    7   21 1   
    15    7   22 1   
    16    8    9 1   
    17    8   23 1   
    18    8   24 1   
    19    9   10 1   
    20    9   25 1   
    21    9   26 1   
    22   10   11 1   
    23   10   27 1   
    24   10   28 1   
    25   11   12 1   
    26   11   29 1   
    27   11   30 1   
    28   12   13 1   
    29   12   31 1   
    30   12   32 1   
    31   13   14 1   
    32   13   33 1   
    33   13   34 1   
    34   14   35 1   
@<TRIPOS>SUBSTRUCTURE
     1 MDX         1 TEMP              0 ****  ****    0 ROOT
