@<TRIPOS>MOLECULE
MDX
   35    34     1     0     0
SMALL
bcc


@<TRIPOS>ATOM
      1 O1         -6.5120   -1.0200   -0.9740 o         1 MDX     -0.853300
      2 C11        -6.4690   -0.0920   -0.1140 c         1 MDX      0.907600
      3 O2         -7.4400    0.2180    0.6340 o         1 MDX     -0.853300
      4 C10        -5.1720    0.7260    0.0200 c3        1 MDX     -0.194400
      5 C9         -3.9590   -0.1710    0.0550 c3        1 MDX     -0.065400
      6 C8         -2.6690    0.6200    0.0010 c3        1 MDX     -0.078400
      7 C7         -1.4600   -0.2900    0.0520 c3        1 MDX     -0.078400
      8 C6         -0.1680    0.4970   -0.0100 c3        1 MDX     -0.078400
      9 C5          1.0360   -0.4190    0.0380 c3        1 MDX     -0.079400
     10 C4          2.3300    0.3650   -0.0220 c3        1 MDX     -0.078400
     11 C3          3.5300   -0.5560    0.0240 c3        1 MDX     -0.077400
     12 C2          4.8260    0.2270   -0.0330 c3        1 MDX     -0.073400
     13 C1          6.0140   -0.7000    0.0090 c3        1 MDX      0.015700
     14 S1          7.4760    0.3040   -0.0560 sh        1 MDX     -0.389900
     15 H101       -5.1120    1.4170   -0.8590 hc        1 MDX      0.018700
     16 H102       -5.2220    1.3510    0.9460 hc        1 MDX      0.018700
     17 H91        -3.9800   -0.7890    0.9910 hc        1 MDX      0.044200
     18 H92        -4.0130   -0.8820   -0.8120 hc        1 MDX      0.044200
     19 H81        -2.6410    1.2280   -0.9410 hc        1 MDX      0.026700
     20 H82        -2.6320    1.3410    0.8600 hc        1 MDX      0.026700
     21 H71        -1.4870   -0.8950    0.9960 hc        1 MDX      0.036700
     22 H72        -1.5020   -1.0130   -0.8050 hc        1 MDX      0.036700
     23 H61        -0.1420    1.1030   -0.9540 hc        1 MDX      0.035200
     24 H62        -0.1260    1.2190    0.8470 hc        1 MDX      0.035200
     25 H51         1.0080   -1.0260    0.9810 hc        1 MDX      0.038200
     26 H52         0.9930   -1.1400   -0.8200 hc        1 MDX      0.038200
     27 H41         2.3580    0.9730   -0.9640 hc        1 MDX      0.039700
     28 H42         2.3750    1.0840    0.8380 hc        1 MDX      0.039700
     29 H31         3.5000   -1.1660    0.9650 hc        1 MDX      0.039700
     30 H32         3.4860   -1.2740   -0.8370 hc        1 MDX      0.039700
     31 H21         4.8550    0.8380   -0.9750 hc        1 MDX      0.056700
     32 H22         4.8710    0.9430    0.8300 hc        1 MDX      0.056700
     33 H11         6.0040   -1.3060    0.9470 h1        1 MDX      0.058700
     34 H12         5.9920   -1.4050   -0.8560 h1        1 MDX      0.058700
     35 HS1         8.3850   -0.6520   -0.0140 hs        1 MDX      0.193800
@<TRIPOS>BOND
     1    1    2 1   
     2    2    3 1   
     3    2    4 1   
     4    4    5 1   
     5    4   15 1   
     6    4   16 1   
     7    5    6 1   
     8    5   17 1   
     9    5   18 1   
    10    6    7 1   
    11    6   19 1   
    12    6   20 1   
    13    7    8 1   
    14    7   21 1   
    15    7   22 1   
    16    8    9 1   
    17    8   23 1   
    18    8   24 1   
    19    9   10 1   
    20    9   25 1   
    21    9   26 1   
    22   10   11 1   
    23   10   27 1   
    24   10   28 1   
    25   11   12 1   
    26   11   29 1   
    27   11   30 1   
    28   12   13 1   
    29   12   31 1   
    30   12   32 1   
    31   13   14 1   
    32   13   33 1   
    33   13   34 1   
    34   14   35 1   
@<TRIPOS>SUBSTRUCTURE
     1 MDX         1 TEMP              0 ****  ****    0 ROOT
