@<TRIPOS>MOLECULE
MDY
   39    40     1     0     0
SMALL
bcc


@<TRIPOS>ATOM
      1 CAA        -4.4290    3.1610    0.9350 c3        1 MDY      0.112700
      2 OAP        -3.6730    2.0870    0.3860 os        1 MDY     -0.325900
      3 CAW        -4.3720    0.9320    0.0920 ca        1 MDY      0.135100
      4 CAJ        -5.7720    0.8670    0.0830 ca        1 MDY     -0.204000
      5 CAH        -6.4070   -0.3280   -0.2460 ca        1 MDY     -0.093000
      6 CAI        -5.6550   -1.4560   -0.5660 ca        1 MDY     -0.163000
      7 CAK        -4.2640   -1.3920   -0.5530 ca        1 MDY     -0.094000
      8 CAX        -3.5930   -0.2070   -0.2220 cp        1 MDY     -0.057000
      9 CAU        -2.1330   -0.1840   -0.2130 cp        1 MDY     -0.047000
     10 CAN        -1.4220   -1.2600    0.3330 ca        1 MDY     -0.090000
     11 CAT        -0.0300   -1.2660    0.3280 ca        1 MDY     -0.042600
     12 CLAF        0.7680   -2.6110    1.0150 cl        1 MDY     -0.108400
     13 CAL        -1.4130    0.8860   -0.7580 ca        1 MDY     -0.073000
     14 CAM        -0.0250    0.8900   -0.7730 ca        1 MDY     -0.158000
     15 CAV         0.7090   -0.1880   -0.2310 ca        1 MDY      0.087600
     16 NAO         2.1090   -0.2380   -0.2250 n         1 MDY     -0.463100
     17 CAR         2.9890    0.7460   -0.6570 c         1 MDY      0.708300
     18 OAD         2.6350    1.8370   -1.1310 o         1 MDY     -0.565100
     19 CAS         4.4380    0.3940   -0.5180 ce        1 MDY     -0.161900
     20 CAG         4.8550   -0.8310   -1.0900 cg        1 MDY      0.202500
     21 NAC         5.1780   -1.8410   -1.5690 n1        1 MDY     -0.361800
     22 CAQ         5.3180    1.2350    0.0940 c2        1 MDY      0.197900
     23 CAB         6.7800    1.0040    0.1930 c3        1 MDY     -0.118900
     24 OAE         4.8130    2.3650    0.6780 oh        1 MDY     -0.466100
     25 HAA        -5.1300    3.5760    0.1700 h1        1 MDY      0.044700
     26 HAAA       -4.9890    2.8330    1.8440 h1        1 MDY      0.044700
     27 HAAB       -3.6470    3.9170    1.2030 h1        1 MDY      0.044700
     28 HAJ        -6.3770    1.7510    0.3320 ha        1 MDY      0.138000
     29 HAH        -7.5060   -0.3760   -0.2550 ha        1 MDY      0.133000
     30 HAI        -6.1570   -2.3980   -0.8300 ha        1 MDY      0.135000
     31 HAK        -3.6730   -2.2850   -0.8110 ha        1 MDY      0.139000
     32 HAN        -1.9690   -2.1070    0.7780 ha        1 MDY      0.148000
     33 HAL        -1.9600    1.7480   -1.1770 ha        1 MDY      0.153000
     34 HAM         0.5000    1.7540   -1.2140 ha        1 MDY      0.178000
     35 HNAO        2.5130   -1.0720    0.1480 hn        1 MDY      0.331500
     36 HAB         7.3270    1.8080   -0.3630 hc        1 MDY      0.075367
     37 HABA        7.1010    1.0280    1.2650 hc        1 MDY      0.075367
     38 HABB        7.0670    0.0150   -0.2430 hc        1 MDY      0.075367
     39 HOAE        5.5540    2.9120    0.9830 ho        1 MDY      0.432000
@<TRIPOS>BOND
     1    1    2 1   
     2    1   25 1   
     3    1   26 1   
     4    1   27 1   
     5    2    3 1   
     6    3    4 ar  
     7    3    8 ar  
     8    4    5 ar  
     9    4   28 1   
    10    5    6 ar  
    11    5   29 1   
    12    6    7 ar  
    13    6   30 1   
    14    7    8 ar  
    15    7   31 1   
    16    8    9 1   
    17    9   10 ar  
    18    9   13 ar  
    19   10   11 ar  
    20   10   32 1   
    21   11   12 1   
    22   11   15 ar  
    23   13   14 ar  
    24   13   33 1   
    25   14   15 ar  
    26   14   34 1   
    27   15   16 1   
    28   16   17 1   
    29   16   35 1   
    30   17   18 2   
    31   17   19 1   
    32   19   20 1   
    33   19   22 2   
    34   20   21 3   
    35   22   23 1   
    36   22   24 1   
    37   23   36 1   
    38   23   37 1   
    39   23   38 1   
    40   24   39 1   
@<TRIPOS>SUBSTRUCTURE
     1 MDY         1 TEMP              0 ****  ****    0 ROOT
