@<TRIPOS>MOLECULE
MDY
   39    40     1     0     0
SMALL
bcc


@<TRIPOS>ATOM
      1 CAA        -0.0900    0.0070    0.1860 c3        1 MDY      0.112700
      2 OAP         1.3170   -0.2040    0.1680 os        1 MDY     -0.325900
      3 CAW         1.9750   -0.0540    1.3740 ca        1 MDY      0.137100
      4 CAJ         1.3070    0.0300    2.6030 ca        1 MDY     -0.203000
      5 CAH         2.0400    0.1530    3.7810 ca        1 MDY     -0.092000
      6 CAI         3.4320    0.1940    3.7400 ca        1 MDY     -0.162000
      7 CAK         4.0950    0.1150    2.5170 ca        1 MDY     -0.092000
      8 CAX         3.3880   -0.0060    1.3130 cp        1 MDY     -0.061000
      9 CAU         4.1210   -0.0780    0.0520 cp        1 MDY     -0.038000
     10 CAN         5.2210    0.7630   -0.1630 ca        1 MDY     -0.094000
     11 CAT         5.9430    0.6950   -1.3520 ca        1 MDY     -0.034600
     12 CLAF        7.2690    1.7520   -1.5480 cl        1 MDY     -0.100400
     13 CAL         3.7640   -0.9860   -0.9520 ca        1 MDY     -0.078000
     14 CAM         4.4820   -1.0690   -2.1380 ca        1 MDY     -0.144000
     15 CAV         5.5920   -0.2300   -2.3710 ca        1 MDY      0.075600
     16 NAO         6.3670   -0.2950   -3.5410 n         1 MDY     -0.450100
     17 CAR         5.9740   -0.8290   -4.7560 c         1 MDY      0.713300
     18 OAD         4.8530   -1.3700   -4.9140 o         1 MDY     -0.648100
     19 CAS         6.9310   -0.7540   -5.8850 ce        1 MDY     -0.252900
     20 CAG         8.2190   -0.2070   -5.6600 cg        1 MDY      0.204500
     21 NAC         9.2790    0.2400   -5.4810 n1        1 MDY     -0.373800
     22 CAQ         6.6220   -1.2010   -7.1470 c2        1 MDY      0.267900
     23 CAB         7.5920   -1.1220   -8.2760 c3        1 MDY     -0.091900
     24 OAE         5.4540   -1.7510   -7.5370 oh        1 MDY     -0.485100
     25 HAA        -0.6000   -0.8110    0.7510 h1        1 MDY      0.045700
     26 HAAA       -0.3410    1.0030    0.6240 h1        1 MDY      0.045700
     27 HAAB       -0.3710   -0.0300   -0.8980 h1        1 MDY      0.045700
     28 HAJ         0.2100   -0.0030    2.6490 ha        1 MDY      0.138000
     29 HAH         1.5140    0.2170    4.7450 ha        1 MDY      0.134000
     30 HAI         4.0100    0.2880    4.6710 ha        1 MDY      0.136000
     31 HAK         5.1960    0.1440    2.4900 ha        1 MDY      0.139000
     32 HAN         5.5110    1.4930    0.6100 ha        1 MDY      0.150000
     33 HAL         2.8910   -1.6430   -0.8020 ha        1 MDY      0.154000
     34 HAM         4.1680   -1.7990   -2.9030 ha        1 MDY      0.173000
     35 HNAO        7.2430    0.1840   -3.5030 hn        1 MDY      0.337500
     36 HAB         7.8950   -0.0570   -8.4350 hc        1 MDY      0.079367
     37 HABA        7.1380   -1.5190   -9.2180 hc        1 MDY      0.079367
     38 HABB        8.5040   -1.7220   -8.0280 hc        1 MDY      0.079367
     39 HOAE        4.8110   -1.8090   -6.8030 ho        1 MDY      0.482000
@<TRIPOS>BOND
     1    1    2 1   
     2    1   25 1   
     3    1   26 1   
     4    1   27 1   
     5    2    3 1   
     6    3    4 ar  
     7    3    8 ar  
     8    4    5 ar  
     9    4   28 1   
    10    5    6 ar  
    11    5   29 1   
    12    6    7 ar  
    13    6   30 1   
    14    7    8 ar  
    15    7   31 1   
    16    8    9 1   
    17    9   10 ar  
    18    9   13 ar  
    19   10   11 ar  
    20   10   32 1   
    21   11   12 1   
    22   11   15 ar  
    23   13   14 ar  
    24   13   33 1   
    25   14   15 ar  
    26   14   34 1   
    27   15   16 1   
    28   16   17 1   
    29   16   35 1   
    30   17   18 2   
    31   17   19 1   
    32   19   20 1   
    33   19   22 2   
    34   20   21 3   
    35   22   23 1   
    36   22   24 1   
    37   23   36 1   
    38   23   37 1   
    39   23   38 1   
    40   24   39 1   
@<TRIPOS>SUBSTRUCTURE
     1 MDY         1 TEMP              0 ****  ****    0 ROOT
