@<TRIPOS>MOLECULE
MDY
   39    33     1     0     0
SMALL
bcc


@<TRIPOS>ATOM
      1 CAA         1.5300   -3.9870    0.5370 c3        1 MDY     -0.077000
      2 OAP         0.2400   -3.3580    0.5980 os        1 MDY     -0.209000
      3 CAW        -0.2730   -3.2120    1.9320 c2        1 MDY      0.091000
      4 CAJ        -0.3680   -4.3230    2.7650 c2        1 MDY     -0.203000
      5 CAH        -0.9460   -4.2000    4.0310 c1        1 MDY     -0.093000
      6 CAI        -1.4270   -2.9650    4.4610 c1        1 MDY     -0.120250
      7 CAK        -1.3320   -1.8500    3.6270 c1        1 MDY     -0.120250
      8 CAX        -0.7570   -1.9700    2.3650 c1        1 MDY     -0.059000
      9 CAU        -0.7430   -0.8770    1.4990 c1        1 MDY     -0.042000
     10 CAN        -1.9140   -0.4780    0.8650 c1        1 MDY     -0.093000
     11 CAT        -1.9040    0.6240    0.0070 c1        1 MDY     -0.116000
     12 CLAF       -3.3980    1.2080   -0.6780 cl        1 MDY     -0.022000
     13 CAL         0.4490   -0.1740    1.2760 c1        1 MDY     -0.120250
     14 CAM         0.4590    0.9250    0.4210 c1        1 MDY     -0.120250
     15 CAV        -0.7160    1.3260   -0.2140 c1        1 MDY      0.088000
     16 NAO        -0.6900    2.4150   -1.1500 n         1 MDY     -0.311000
     17 CAR         0.1310    2.3370   -2.3090 c2        1 MDY      0.380000
     18 OAD         0.8100    1.3500   -2.5050 o         1 MDY     -0.378000
     19 CAS         0.0540    3.4300   -3.3700 c2        1 MDY     -0.186000
     20 CAG        -1.2900    3.8690   -3.9080 c1        1 MDY     -0.086000
     21 NAC        -2.3040    4.2000   -4.3140 n1        1 MDY     -0.038000
     22 CAQ         1.2090    4.0190   -3.8370 c1        1 MDY      0.181000
     23 CAB         2.5720    3.5750   -3.2900 c2        1 MDY     -0.235000
     24 OAE         1.1380    5.0490   -4.8350 oh        1 MDY     -0.235000
     25 HAA         1.7920   -4.2840    1.4360 h1        1 MDY      0.084333
     26 HAAA        2.1860   -3.3510    0.2010 h1        1 MDY      0.084333
     27 HAAB        1.4890   -4.7700   -0.0710 h1        1 MDY      0.084333
     28 HAJ        -0.0340   -5.1810    2.4680 ha        1 MDY      0.138000
     29 HAH        -1.0150   -4.9970    4.6280 ha        1 MDY      0.133000
     30 HAI        -1.8290   -2.8810    5.3430 ha        1 MDY      0.150000
     31 HAK        -1.6800   -0.9580    3.9390 ha        1 MDY      0.150000
     32 HAN        -2.7510   -0.9480    1.0450 ha        1 MDY      0.149000
     33 HAL         1.2700   -0.4530    1.7200 ha        1 MDY      0.150000
     34 HAM         1.3120    1.4290    0.2620 ha        1 MDY      0.150000
     35 HNAO       -1.1670    3.1800   -0.9770 hn        1 MDY      0.250000
     36 HAB         2.5890    2.5960   -3.2050 ha        1 MDY      0.122000
     37 HABA        2.7210    3.9860   -2.4010 ha        1 MDY      0.122000
     38 HABB        3.2780    3.8610   -3.9020 ha        1 MDY      0.122000
     39 HOAE        1.3090    5.8360   -4.4610 ho        1 MDY      0.235000
@<TRIPOS>BOND
     1    1    2 1   
     2    1   25 1   
     3    1   26 1   
     4    1   27 1   
     5    2    3 1   
     6    3    4 1   
     7    3    8 1   
     8    4    5 1   
     9    4   28 1   
    10    5   29 1   
    11    6    7 1   
    12    6   30 1   
    13    7   31 1   
    14    9   10 1   
    15   10   32 1   
    16   11   12 1   
    17   11   15 1   
    18   13   14 1   
    19   13   33 1   
    20   14   34 1   
    21   15   16 1   
    22   16   17 1   
    23   16   35 1   
    24   17   18 1   
    25   17   19 1   
    26   19   20 1   
    27   19   22 1   
    28   20   21 1   
    29   22   24 1   
    30   23   36 1   
    31   23   37 1   
    32   23   38 1   
    33   24   39 1   
@<TRIPOS>SUBSTRUCTURE
     1 MDY         1 TEMP              0 ****  ****    0 ROOT
