@<TRIPOS>MOLECULE
MDY
   40    41     1     0     0
SMALL
bcc


@<TRIPOS>ATOM
      1 CAA         0.2490    0.1830   -0.5330 c3        1 MDY      0.111700
      2 OAP         1.6330   -0.1110   -0.3440 os        1 MDY     -0.344900
      3 CAW         2.1770    0.2430    0.8720 ca        1 MDY      0.163100
      4 CAJ         1.4130    0.7200    1.9480 ca        1 MDY     -0.201000
      5 CAH         2.0360    1.0460    3.1480 ca        1 MDY     -0.057000
      6 CAI         3.4190    0.9060    3.2860 ca        1 MDY     -0.158000
      7 CAK         4.1780    0.4430    2.2190 ca        1 MDY     -0.073000
      8 CAX         3.5800    0.1030    0.9940 cp        1 MDY     -0.127000
      9 CAU         4.4130   -0.3800   -0.1000 cp        1 MDY      0.079000
     10 CAN         5.6730    0.2010   -0.3260 ca        1 MDY     -0.113000
     11 CAT         6.4970   -0.2600   -1.3510 ca        1 MDY      0.036400
     12 CLAF        8.0170    0.4520   -1.5870 cl        1 MDY     -0.040400
     13 CAL         3.9930   -1.4360   -0.9270 ca        1 MDY     -0.096000
     14 CAM         4.8010   -1.9050   -1.9540 ca        1 MDY     -0.087000
     15 CAV         6.0610   -1.3190   -2.1760 ca        1 MDY     -0.084400
     16 NAO         6.9240   -1.8350   -3.2420 n4        1 MDY     -0.520200
     17 CAR         6.2350   -1.8170   -4.5910 c         1 MDY      0.597300
     18 OAD         5.5330   -2.8070   -4.8210 o         1 MDY     -0.516100
     19 CAS         6.4780   -0.7000   -5.4650 ce        1 MDY     -0.284900
     20 CAG         7.3790    0.3180   -5.0700 cg        1 MDY      0.161500
     21 NAC         8.1190    1.1630   -4.7650 n1        1 MDY     -0.292800
     22 CAQ         5.8530   -0.5860   -6.7050 c2        1 MDY      0.348900
     23 CAB         6.1010    0.5710   -7.6050 c3        1 MDY     -0.110900
     24 OAE         4.9870   -1.4600   -7.2270 oh        1 MDY     -0.432100
     25 HAA         0.0510    1.2720   -0.3840 h1        1 MDY      0.055367
     26 HAAA       -0.3770   -0.4330    0.1570 h1        1 MDY      0.055367
     27 HAAB        0.0680   -0.1110   -1.5980 h1        1 MDY      0.055367
     28 HAJ         0.3230    0.8350    1.8540 ha        1 MDY      0.153000
     29 HAH         1.4330    1.4150    3.9930 ha        1 MDY      0.152000
     30 HAI         3.9060    1.1610    4.2390 ha        1 MDY      0.153000
     31 HAK         5.2680    0.3270    2.3370 ha        1 MDY      0.139000
     32 HAN         6.0110    1.0390    0.3080 ha        1 MDY      0.181000
     33 HAL         3.0010   -1.8940   -0.7610 ha        1 MDY      0.185000
     34 HAM         4.4490   -2.7370   -2.5890 ha        1 MDY      0.167000
     35 HNAO        7.1540   -2.8140   -3.0140 hn        1 MDY      0.470300
     36 HAB         7.1910    0.6160   -7.8640 hc        1 MDY      0.107700
     37 HABA        5.5040    0.4810   -8.5490 hc        1 MDY      0.107700
     38 HABB        5.8190    1.5210   -7.0810 hc        1 MDY      0.107700
     39 HOAE        4.8140   -2.2300   -6.6490 ho        1 MDY      0.482000
     40 HAO2        7.7930   -1.2810   -3.2760 hn        1 MDY      0.470300
@<TRIPOS>BOND
     1    1    2 1   
     2    1   25 1   
     3    1   26 1   
     4    1   27 1   
     5    2    3 1   
     6    3    4 ar  
     7    3    8 ar  
     8    4    5 ar  
     9    4   28 1   
    10    5    6 ar  
    11    5   29 1   
    12    6    7 ar  
    13    6   30 1   
    14    7    8 ar  
    15    7   31 1   
    16    8    9 1   
    17    9   10 ar  
    18    9   13 ar  
    19   10   11 ar  
    20   10   32 1   
    21   11   12 1   
    22   11   15 ar  
    23   13   14 ar  
    24   13   33 1   
    25   14   15 ar  
    26   14   34 1   
    27   15   16 1   
    28   16   17 1   
    29   16   35 1   
    30   16   40 1   
    31   17   18 2   
    32   17   19 1   
    33   19   20 1   
    34   19   22 2   
    35   20   21 3   
    36   22   23 1   
    37   22   24 1   
    38   23   36 1   
    39   23   37 1   
    40   23   38 1   
    41   24   39 1   
@<TRIPOS>SUBSTRUCTURE
     1 MDY         1 TEMP              0 ****  ****    0 ROOT
