@<TRIPOS>MOLECULE
MDY
   39    40     1     0     0
SMALL
bcc


@<TRIPOS>ATOM
      1 CAA        -0.1610   -0.0470    0.1920 c3        1 MDY      0.112700
      2 OAP         1.2530   -0.2050    0.1630 os        1 MDY     -0.325900
      3 CAW         1.9190    0.0100    1.3550 ca        1 MDY      0.135100
      4 CAJ         1.2620    0.1270    2.5870 ca        1 MDY     -0.204000
      5 CAH         2.0040    0.3180    3.7500 ca        1 MDY     -0.093000
      6 CAI         3.3930    0.3940    3.6920 ca        1 MDY     -0.163000
      7 CAK         4.0450    0.2810    2.4650 ca        1 MDY     -0.094000
      8 CAX         3.3300    0.0920    1.2760 cp        1 MDY     -0.057000
      9 CAU         4.0520   -0.0140    0.0110 cp        1 MDY     -0.047000
     10 CAN         5.1260    0.8450   -0.2530 ca        1 MDY     -0.090000
     11 CAT         5.8400    0.7420   -1.4440 ca        1 MDY     -0.043600
     12 ClAF        7.1360    1.8260   -1.6960 cl        1 MDY     -0.108400
     13 CAL         3.7090   -0.9730   -0.9510 ca        1 MDY     -0.073000
     14 CAM         4.4160   -1.0870   -2.1400 ca        1 MDY     -0.158000
     15 CAV         5.5050   -0.2340   -2.4220 ca        1 MDY      0.087600
     16 NAO         6.2560   -0.3090   -3.6020 ns        1 MDY     -0.463100
     17 CAR         6.0410   -1.1530   -4.6840 c         1 MDY      0.708300
     18 OAD         5.1220   -1.9860   -4.7470 o         1 MDY     -0.565100
     19 CAS         7.0210   -0.9940   -5.8060 ce        1 MDY     -0.161900
     20 CAG         8.3930   -1.0740   -5.4690 cg        1 MDY      0.202500
     21 NAC         9.5170   -1.1450   -5.1730 n1        1 MDY     -0.361800
     22 CAQ         6.6080   -0.8230   -7.0920 c2        1 MDY      0.197900
     23 CAB         7.5100   -0.7490   -8.2680 c3        1 MDY     -0.118900
     24 OAE         5.2640   -0.6890   -7.3140 oh        1 MDY     -0.466100
     25 HAA        -0.4540   -0.1410   -0.8850 h1        1 MDY      0.044700
     26 HAAA       -0.6320   -0.8600    0.7980 h1        1 MDY      0.044700
     27 HAAB       -0.4440    0.9560    0.5920 h1        1 MDY      0.044700
     28 HAJ         0.1670    0.0670    2.6470 ha        1 MDY      0.138000
     29 HAH         1.4860    0.4080    4.7170 ha        1 MDY      0.133000
     30 HAI         3.9780    0.5410    4.6110 ha        1 MDY      0.135000
     31 HAK         5.1440    0.3370    2.4250 ha        1 MDY      0.139000
     32 HAN         5.4050    1.6150    0.4850 ha        1 MDY      0.148000
     33 HAL         2.8550   -1.6440   -0.7640 ha        1 MDY      0.153000
     34 HAM         4.1110   -1.8590   -2.8680 ha        1 MDY      0.178000
     35 HNAO        7.0240    0.3250   -3.6710 hn        1 MDY      0.331500
     36 HAB         7.3080   -1.6120   -8.9530 hc        1 MDY      0.075367
     37 HABA        8.5840   -0.7860   -7.9610 hc        1 MDY      0.075367
     38 HABB        7.3320    0.2030   -8.8290 hc        1 MDY      0.075367
     39 HOAE        5.1100   -0.6760   -8.2710 ho        1 MDY      0.432000
@<TRIPOS>BOND
     1    1    2 1   
     2    1   25 1   
     3    1   26 1   
     4    1   27 1   
     5    2    3 1   
     6    3    4 ar  
     7    3    8 ar  
     8    4    5 ar  
     9    4   28 1   
    10    5    6 ar  
    11    5   29 1   
    12    6    7 ar  
    13    6   30 1   
    14    7    8 ar  
    15    7   31 1   
    16    8    9 1   
    17    9   10 ar  
    18    9   13 ar  
    19   10   11 ar  
    20   10   32 1   
    21   11   12 1   
    22   11   15 ar  
    23   13   14 ar  
    24   13   33 1   
    25   14   15 ar  
    26   14   34 1   
    27   15   16 1   
    28   16   17 1   
    29   16   35 1   
    30   17   18 2   
    31   17   19 1   
    32   19   20 1   
    33   19   22 2   
    34   20   21 3   
    35   22   23 1   
    36   22   24 1   
    37   23   36 1   
    38   23   37 1   
    39   23   38 1   
    40   24   39 1   
@<TRIPOS>SUBSTRUCTURE
     1 MDY         1 TEMP              0 ****  ****    0 ROOT
