@<TRIPOS>MOLECULE
MDZ
   49    48     1     0     0
SMALL
bcc


@<TRIPOS>ATOM
      1 O43        -1.7410    5.3540   -1.9950 o         1 MDZ     -0.832300
      2 C31        -1.0900    5.6890   -0.9670 c         1 MDZ      0.920600
      3 O42        -0.5080    6.8000   -0.8300 o         1 MDZ     -0.832300
      4 C30        -0.9420    4.6710    0.1970 c3        1 MDZ      0.015100
      5 O29        -1.7150    3.4950   -0.1370 os        1 MDZ     -0.406900
      6 C13        -1.0800    2.3120   -0.2880 c         1 MDZ      0.620100
      7 O18         0.1250    2.1940   -0.0450 o         1 MDZ     -0.577000
      8 C12        -1.9740    1.1790   -0.8110 c3        1 MDZ      0.058700
      9 C16        -2.2530    1.4570   -2.3050 c3        1 MDZ      0.040400
     10 S17        -3.6040    2.5930   -2.5860 sh        1 MDZ     -0.538900
     11 C25        -2.6010    0.1840   -3.0300 c3        1 MDZ     -0.082100
     12 N11        -3.1570    0.9960   -0.0200 n         1 MDZ     -0.562900
     13 C10        -3.4630   -0.2060    0.6020 c         1 MDZ      0.661100
     14 O15        -2.6420   -1.1460    0.6100 o         1 MDZ     -0.625100
     15 C7         -4.8110   -0.2790    1.2960 c3        1 MDZ     -0.144400
     16 C4         -5.0410   -1.6230    1.9600 c3        1 MDZ     -0.071400
     17 C3         -6.2300   -1.5500    2.8940 c3        1 MDZ     -0.061400
     18 C2         -6.7250   -2.9060    3.4010 c3        1 MDZ      0.025500
     19 N14        -5.6800   -3.7510    3.9630 n3        1 MDZ     -0.894800
     20 C1         -7.6040   -3.5980    2.3090 c         1 MDZ      0.886600
     21 O20        -7.3710   -4.8110    2.0330 o         1 MDZ     -0.848800
     22 O19        -8.5360   -2.9220    1.7920 o         1 MDZ     -0.848800
     23 C32        -1.4780    5.1790    1.5390 c3        1 MDZ     -0.050700
     24 C37        -0.4790    6.1350    2.1570 c3        1 MDZ     -0.091600
     25 C33        -2.8260    5.8460    1.3710 c3        1 MDZ     -0.091600
     26 H30         0.1450    4.4070    0.2990 h1        1 MDZ      0.069700
     27 H12        -1.3440    0.2360   -0.7390 h1        1 MDZ      0.110700
     28 H16        -1.3230    1.9040   -2.7440 h1        1 MDZ      0.082700
     29 H251       -3.5210   -0.2810   -2.5980 hc        1 MDZ      0.042700
     30 H252       -1.7640   -0.5520   -2.9450 hc        1 MDZ      0.042700
     31 H253       -2.7840    0.3930   -4.1120 hc        1 MDZ      0.042700
     32 H11        -3.8670    1.6850   -0.1470 hn        1 MDZ      0.333500
     33 H7C1       -5.6220   -0.0880    0.5440 hc        1 MDZ      0.062700
     34 H7C2       -4.8600    0.5360    2.0660 hc        1 MDZ      0.062700
     35 H4C1       -4.1130   -1.9140    2.5200 hc        1 MDZ      0.058200
     36 H4C2       -5.2200   -2.4070    1.1780 hc        1 MDZ      0.058200
     37 H3C1       -5.9640   -0.8990    3.7680 hc        1 MDZ      0.035700
     38 H3C2       -7.0980   -1.0750    2.3590 hc        1 MDZ      0.035700
     39 H2         -7.4360   -2.6890    4.2560 h1        1 MDZ      0.033700
     40 H141       -4.9110   -3.7910    3.3180 hn        1 MDZ      0.332300
     41 H142       -6.0520   -4.6870    4.0130 hn        1 MDZ      0.332300
     42 H32        -1.6030    4.2900    2.2200 hc        1 MDZ      0.028700
     43 H371        0.4630    5.5970    2.4220 hc        1 MDZ      0.033867
     44 H372       -0.9010    6.5910    3.0840 hc        1 MDZ      0.033867
     45 H373       -0.2340    6.9450    1.4220 hc        1 MDZ      0.033867
     46 H331       -3.5460    5.1300    0.9060 hc        1 MDZ      0.033867
     47 H332       -2.7290    6.7350    0.7000 hc        1 MDZ      0.033867
     48 H333       -3.2260    6.1750    2.3590 hc        1 MDZ      0.033867
     49 HS1        -2.9840    3.7600   -2.1800 hs        1 MDZ      0.364800
@<TRIPOS>BOND
     1    1    2 1   
     2    2    3 1   
     3    2    4 1   
     4    4    5 1   
     5    4   23 1   
     6    4   26 1   
     7    5    6 1   
     8    6    7 2   
     9    6    8 1   
    10    8    9 1   
    11    8   12 1   
    12    8   27 1   
    13    9   10 1   
    14    9   11 1   
    15    9   28 1   
    16   10   49 1   
    17   11   29 1   
    18   11   30 1   
    19   11   31 1   
    20   12   13 1   
    21   12   32 1   
    22   13   14 2   
    23   13   15 1   
    24   15   16 1   
    25   15   33 1   
    26   15   34 1   
    27   16   17 1   
    28   16   35 1   
    29   16   36 1   
    30   17   18 1   
    31   17   37 1   
    32   17   38 1   
    33   18   19 1   
    34   18   20 1   
    35   18   39 1   
    36   19   40 1   
    37   19   41 1   
    38   20   21 1   
    39   20   22 1   
    40   23   24 1   
    41   23   25 1   
    42   23   42 1   
    43   24   43 1   
    44   24   44 1   
    45   24   45 1   
    46   25   46 1   
    47   25   47 1   
    48   25   48 1   
@<TRIPOS>SUBSTRUCTURE
     1 MDZ         1 TEMP              0 ****  ****    0 ROOT
