@<TRIPOS>MOLECULE
MDZ
   51    51     1     0     0
SMALL
bcc


@<TRIPOS>ATOM
      1 O43         2.3890   -2.7580    3.6680 os        1 MDZ     -0.547900
      2 C31         2.6840   -2.3590    2.4030 c         1 MDZ      0.731600
      3 O42         2.5860   -3.2130    1.5180 o         1 MDZ     -0.663500
      4 C30         3.0720   -0.8920    2.4310 c3        1 MDZ      0.089100
      5 O29         2.7650   -0.5120    3.7800 os        1 MDZ     -0.492600
      6 C13         2.7650   -1.6740    4.6310 c3        1 MDZ      0.680100
      7 O18         3.9200   -1.9340    5.1200 o         1 MDZ     -0.761500
      8 C12         1.5540   -1.6030    5.6540 c3        1 MDZ      0.087500
      9 C16         0.8470   -0.2490    5.6560 c3        1 MDZ      0.016400
     10 S17         1.7470    0.9730    6.5950 sh        1 MDZ     -0.411900
     11 C25        -0.5300   -0.3280    6.2630 c3        1 MDZ     -0.103100
     12 N11         2.0880   -1.9480    7.0190 n4        1 MDZ     -0.680800
     13 C10         1.8230   -3.3740    7.4110 c         1 MDZ      0.561100
     14 O15         0.9840   -3.5320    8.2890 o         1 MDZ     -0.450100
     15 C7          2.6430   -4.4210    6.7120 c3        1 MDZ     -0.160400
     16 C4          1.7870   -5.1740    5.7100 c3        1 MDZ     -0.083400
     17 C3          2.6410   -6.1470    4.9210 c3        1 MDZ     -0.071400
     18 C2          1.9190   -6.6730    3.6910 c3        1 MDZ     -0.067500
     19 N14         1.7960   -5.6620    2.6030 n4        1 MDZ     -0.826600
     20 C1          0.4660   -7.2200    4.0900 c         1 MDZ      0.930600
     21 O20         0.4240   -7.9190    5.1180 o         1 MDZ     -0.768800
     22 O19        -0.4630   -6.8820    3.3100 o         1 MDZ     -0.768800
     23 C32         2.3090   -0.0010    1.4560 c3        1 MDZ     -0.060700
     24 C37         2.8920   -0.1620    0.0670 c3        1 MDZ     -0.098600
     25 C33         0.8260   -0.2980    1.4520 c3        1 MDZ     -0.098600
     26 H30         4.1830   -0.7940    2.2830 h1        1 MDZ      0.095700
     27 H12         0.8090   -2.3980    5.3550 hx        1 MDZ      0.113700
     28 H16         0.7690    0.0820    4.5840 h1        1 MDZ      0.129700
     29 H251       -1.1550   -1.0750    5.7140 hc        1 MDZ      0.058700
     30 H252       -0.4900   -0.6250    7.3400 hc        1 MDZ      0.058700
     31 H253       -1.0350    0.6680    6.1960 hc        1 MDZ      0.058700
     32 H11         1.7010   -1.2890    7.7100 hn        1 MDZ      0.475800
     33 H7C1        3.5230   -3.9550    6.1780 hc        1 MDZ      0.114700
     34 H7C2        3.0260   -5.1260    7.4990 hc        1 MDZ      0.114700
     35 H4C1        0.9690   -5.7460    6.2290 hc        1 MDZ      0.075200
     36 H4C2        1.3000   -4.4330    5.0200 hc        1 MDZ      0.075200
     37 H3C1        2.8600   -7.0430    5.5640 hc        1 MDZ      0.067700
     38 H3C2        3.6170   -5.6710    4.6370 hc        1 MDZ      0.067700
     39 H2          2.4830   -7.5540    3.2740 hx        1 MDZ      0.086700
     40 H141        0.8670   -5.8080    2.1610 hn        1 MDZ      0.453800
     41 H142        1.8300   -4.7090    2.9820 hn        1 MDZ      0.453800
     42 H32         2.4610    1.0620    1.8000 hc        1 MDZ      0.069700
     43 H371        2.8350   -1.2310   -0.2550 hc        1 MDZ      0.043033
     44 H372        2.3210    0.4620   -0.6610 hc        1 MDZ      0.043033
     45 H373        3.9610    0.1600    0.0500 hc        1 MDZ      0.043033
     46 H331        0.4060   -0.1840    2.4800 hc        1 MDZ      0.043033
     47 H332        0.2950    0.4080    0.7690 hc        1 MDZ      0.043033
     48 H333        0.6360   -1.3420    1.1010 hc        1 MDZ      0.043033
     49 HS1         2.7920    1.1380    5.7800 hs        1 MDZ      0.262800
     50 H112        3.1270   -1.8140    6.9630 hn        1 MDZ      0.475800
     51 H143        2.5310   -5.7490    1.9060 hn        1 MDZ      0.453800
@<TRIPOS>BOND
     1    1    2 1   
     2    1    6 1   
     3    2    3 2   
     4    2    4 1   
     5    4    5 1   
     6    4   23 1   
     7    4   26 1   
     8    5    6 1   
     9    6    7 1   
    10    6    8 1   
    11    8    9 1   
    12    8   12 1   
    13    8   27 1   
    14    9   10 1   
    15    9   11 1   
    16    9   28 1   
    17   10   49 1   
    18   11   29 1   
    19   11   30 1   
    20   11   31 1   
    21   12   13 1   
    22   12   32 1   
    23   12   50 1   
    24   13   14 2   
    25   13   15 1   
    26   15   16 1   
    27   15   33 1   
    28   15   34 1   
    29   16   17 1   
    30   16   35 1   
    31   16   36 1   
    32   17   18 1   
    33   17   37 1   
    34   17   38 1   
    35   18   19 1   
    36   18   20 1   
    37   18   39 1   
    38   19   40 1   
    39   19   41 1   
    40   19   51 1   
    41   20   21 1   
    42   20   22 1   
    43   23   24 1   
    44   23   25 1   
    45   23   42 1   
    46   24   43 1   
    47   24   44 1   
    48   24   45 1   
    49   25   46 1   
    50   25   47 1   
    51   25   48 1   
@<TRIPOS>SUBSTRUCTURE
     1 MDZ         1 TEMP              0 ****  ****    0 ROOT
