@<TRIPOS>MOLECULE
MDZ
   51    51     1     0     0
SMALL
bcc


@<TRIPOS>ATOM
      1 O43         2.8450   -2.7400    3.3620 os        1 MDZ     -0.571900
      2 C31         2.8560   -2.2250    2.1100 c         1 MDZ      0.728600
      3 O42         2.7370   -3.0370    1.1870 o         1 MDZ     -0.673500
      4 C30         3.0000   -0.7190    2.2100 c3        1 MDZ      0.089100
      5 O29         2.8350   -0.4710    3.6150 os        1 MDZ     -0.467600
      6 C13         3.1040   -1.6560    4.3770 c3        1 MDZ      0.688100
      7 O18         4.3250   -1.7670    4.7450 o         1 MDZ     -0.752500
      8 C12         1.9890   -1.9150    5.4840 c3        1 MDZ      0.074500
      9 C16         0.9650   -0.7840    5.6260 c3        1 MDZ      0.014400
     10 S17         1.3890    0.3930    6.9110 sh        1 MDZ     -0.366900
     11 C25        -0.4230   -1.3400    5.8130 c3        1 MDZ     -0.126100
     12 N11         2.7140   -2.2230    6.7610 n4        1 MDZ     -0.690800
     13 C10         2.2470   -3.4140    7.5170 c         1 MDZ      0.558100
     14 O15         2.0510   -3.2190    8.7160 o         1 MDZ     -0.480100
     15 C7          2.0260   -4.7230    6.8250 c3        1 MDZ     -0.169400
     16 C4          3.0060   -5.0780    5.7270 c3        1 MDZ     -0.095400
     17 C3          2.5720   -6.3230    4.9750 c3        1 MDZ     -0.078400
     18 C2          1.5300   -6.1250    3.8790 c3        1 MDZ     -0.051500
     19 N14         1.9830   -5.2500    2.7630 n4        1 MDZ     -0.819600
     20 C1          0.1910   -5.5500    4.5090 c         1 MDZ      0.916600
     21 O20        -0.4950   -6.3650    5.1540 o         1 MDZ     -0.780300
     22 O19        -0.0230   -4.3170    4.3330 o         1 MDZ     -0.780300
     23 C32         1.9660    0.0850    1.4270 c3        1 MDZ     -0.061700
     24 C37         2.3690    0.1370   -0.0320 c3        1 MDZ     -0.098600
     25 C33         0.5710   -0.4800    1.5780 c3        1 MDZ     -0.098600
     26 H30         4.0460   -0.4180    1.9240 h1        1 MDZ      0.092700
     27 H12         1.4260   -2.8490    5.1490 hx        1 MDZ      0.153700
     28 H16         0.9970   -0.1810    4.6730 h1        1 MDZ      0.143700
     29 H251       -0.6580   -2.0890    5.0090 hc        1 MDZ      0.066033
     30 H252       -0.5240   -1.8600    6.7970 hc        1 MDZ      0.066033
     31 H253       -1.1800   -0.5200    5.7620 hc        1 MDZ      0.066033
     32 H11         2.6640   -1.3750    7.3720 hn        1 MDZ      0.484300
     33 H7C1        2.0460   -5.5210    7.6200 hc        1 MDZ      0.129200
     34 H7C2        0.9660   -4.6910    6.4250 hc        1 MDZ      0.129200
     35 H4C1        4.0110   -5.2780    6.1910 hc        1 MDZ      0.069200
     36 H4C2        3.1470   -4.2230    5.0110 hc        1 MDZ      0.069200
     37 H3C1        3.4880   -6.8040    4.5370 hc        1 MDZ      0.068700
     38 H3C2        2.1150   -7.0570    5.6950 hc        1 MDZ      0.068700
     39 H2          1.2840   -7.1370    3.4450 hx        1 MDZ      0.092700
     40 H141        2.9700   -4.9880    2.8440 hn        1 MDZ      0.456800
     41 H142        1.8180   -5.6780    1.8570 hn        1 MDZ      0.456800
     42 H32         1.9780    1.1290    1.8530 hc        1 MDZ      0.071700
     43 H371        2.4540   -0.8970   -0.4470 hc        1 MDZ      0.042367
     44 H372        1.6020    0.6960   -0.6190 hc        1 MDZ      0.042367
     45 H373        3.3520    0.6520   -0.1500 hc        1 MDZ      0.042367
     46 H331       -0.1680    0.1750    1.0580 hc        1 MDZ      0.042367
     47 H332        0.2940   -0.5450    2.6590 hc        1 MDZ      0.042367
     48 H333        0.5130   -1.5040    1.1340 hc        1 MDZ      0.042367
     49 HS1         0.4020    0.1570    7.7620 hs        1 MDZ      0.212800
     50 H112        3.7250   -2.3650    6.4940 hn        1 MDZ      0.484300
     51 H143        1.4380   -4.3600    2.8160 hn        1 MDZ      0.456800
@<TRIPOS>BOND
     1    1    2 1   
     2    1    6 1   
     3    2    3 2   
     4    2    4 1   
     5    4    5 1   
     6    4   23 1   
     7    4   26 1   
     8    5    6 1   
     9    6    7 1   
    10    6    8 1   
    11    8    9 1   
    12    8   12 1   
    13    8   27 1   
    14    9   10 1   
    15    9   11 1   
    16    9   28 1   
    17   10   49 1   
    18   11   29 1   
    19   11   30 1   
    20   11   31 1   
    21   12   13 1   
    22   12   32 1   
    23   12   50 1   
    24   13   14 2   
    25   13   15 1   
    26   15   16 1   
    27   15   33 1   
    28   15   34 1   
    29   16   17 1   
    30   16   35 1   
    31   16   36 1   
    32   17   18 1   
    33   17   37 1   
    34   17   38 1   
    35   18   19 1   
    36   18   20 1   
    37   18   39 1   
    38   19   40 1   
    39   19   41 1   
    40   19   51 1   
    41   20   21 1   
    42   20   22 1   
    43   23   24 1   
    44   23   25 1   
    45   23   42 1   
    46   24   43 1   
    47   24   44 1   
    48   24   45 1   
    49   25   46 1   
    50   25   47 1   
    51   25   48 1   
@<TRIPOS>SUBSTRUCTURE
     1 MDZ         1 TEMP              0 ****  ****    0 ROOT
