@<TRIPOS>MOLECULE
MDZ
   51    51     1     0     0
SMALL
bcc


@<TRIPOS>ATOM
      1 O43         2.8420   -2.7420    3.3590 os        1 MDZ     -0.571900
      2 C31         2.8470   -2.2350    2.1040 c         1 MDZ      0.728600
      3 O42         2.7270   -3.0540    1.1870 o         1 MDZ     -0.673500
      4 C30         2.9860   -0.7280    2.1930 c3        1 MDZ      0.089100
      5 O29         2.8250   -0.4720    3.5970 os        1 MDZ     -0.467600
      6 C13         3.1010   -1.6500    4.3650 c3        1 MDZ      0.688100
      7 O18         4.3240   -1.7540    4.7300 o         1 MDZ     -0.752500
      8 C12         1.9910   -1.9060    5.4780 c3        1 MDZ      0.074500
      9 C16         0.9630   -0.7770    5.6170 c3        1 MDZ      0.014400
     10 S17         1.3880    0.4100    6.8920 sh        1 MDZ     -0.366900
     11 C25        -0.4220   -1.3370    5.8120 c3        1 MDZ     -0.126100
     12 N11         2.7220   -2.2020    6.7550 ny        1 MDZ     -0.690800
     13 C10         2.2620   -3.3900    7.5210 c         1 MDZ      0.558100
     14 O15         2.0690   -3.1870    8.7190 o         1 MDZ     -0.480100
     15 C7          2.0430   -4.7040    6.8380 c3        1 MDZ     -0.169400
     16 C4          3.0210   -5.0630    5.7400 c3        1 MDZ     -0.095400
     17 C3          2.5890   -6.3150    4.9970 c3        1 MDZ     -0.078400
     18 C2          1.5420   -6.1290    3.9040 c3        1 MDZ     -0.051500
     19 N14         1.9880   -5.2590    2.7800 nz        1 MDZ     -0.819600
     20 C1          0.2030   -5.5540    4.5350 c         1 MDZ      0.916600
     21 O20        -0.4780   -6.3670    5.1880 o         1 MDZ     -0.780300
     22 O19        -0.0160   -4.3230    4.3510 o         1 MDZ     -0.780300
     23 C32         1.9460    0.0660    1.4080 c3        1 MDZ     -0.061700
     24 C37         2.3420    0.1110   -0.0530 c3        1 MDZ     -0.098600
     25 C33         0.5530   -0.5040    1.5680 c3        1 MDZ     -0.098600
     26 H30         4.0290   -0.4250    1.9000 h1        1 MDZ      0.092700
     27 H12         1.4300   -2.8440    5.1520 hx        1 MDZ      0.153700
     28 H16         0.9900   -0.1810    4.6590 h1        1 MDZ      0.143700
     29 H251       -0.5170   -1.8510    6.8000 hc        1 MDZ      0.066033
     30 H252       -0.6570   -2.0930    5.0140 hc        1 MDZ      0.066033
     31 H253       -1.1820   -0.5200    5.7580 hc        1 MDZ      0.066033
     32 H11         2.6710   -1.3500    7.3600 hn        1 MDZ      0.484300
     33 H7C1        2.0680   -5.4970    7.6390 hc        1 MDZ      0.129200
     34 H7C2        0.9820   -4.6790    6.4420 hc        1 MDZ      0.129200
     35 H4C1        3.1560   -4.2130    5.0180 hc        1 MDZ      0.069200
     36 H4C2        4.0280   -5.2560    6.2010 hc        1 MDZ      0.069200
     37 H3C1        3.5050   -6.7950    4.5590 hc        1 MDZ      0.068700
     38 H3C2        2.1360   -7.0460    5.7240 hc        1 MDZ      0.068700
     39 H2          1.2980   -7.1440    3.4770 hx        1 MDZ      0.092700
     40 H141        2.9740   -4.9930    2.8560 hn        1 MDZ      0.456800
     41 H142        1.8210   -5.6940    1.8770 hn        1 MDZ      0.456800
     42 H32         1.9550    1.1130    1.8280 hc        1 MDZ      0.071700
     43 H371        2.4310   -0.9260   -0.4610 hc        1 MDZ      0.042367
     44 H372        3.3240    0.6290   -0.1780 hc        1 MDZ      0.042367
     45 H373        1.5710    0.6630   -0.6410 hc        1 MDZ      0.042367
     46 H331       -0.1900    0.1450    1.0470 hc        1 MDZ      0.042367
     47 H332        0.4970   -1.5300    1.1310 hc        1 MDZ      0.042367
     48 H333        0.2810   -0.5630    2.6500 hc        1 MDZ      0.042367
     49 HS1         0.4050    0.1760    7.7480 hs        1 MDZ      0.212800
     50 H112        3.7320   -2.3420    6.4850 hn        1 MDZ      0.484300
     51 H143        1.4400   -4.3710    2.8290 hn        1 MDZ      0.456800
@<TRIPOS>BOND
     1    1    2 1   
     2    1    6 1   
     3    2    3 2   
     4    2    4 1   
     5    4    5 1   
     6    4   23 1   
     7    4   26 1   
     8    5    6 1   
     9    6    7 1   
    10    6    8 1   
    11    8    9 1   
    12    8   12 1   
    13    8   27 1   
    14    9   10 1   
    15    9   11 1   
    16    9   28 1   
    17   10   49 1   
    18   11   29 1   
    19   11   30 1   
    20   11   31 1   
    21   12   13 1   
    22   12   32 1   
    23   12   50 1   
    24   13   14 2   
    25   13   15 1   
    26   15   16 1   
    27   15   33 1   
    28   15   34 1   
    29   16   17 1   
    30   16   35 1   
    31   16   36 1   
    32   17   18 1   
    33   17   37 1   
    34   17   38 1   
    35   18   19 1   
    36   18   20 1   
    37   18   39 1   
    38   19   40 1   
    39   19   41 1   
    40   19   51 1   
    41   20   21 1   
    42   20   22 1   
    43   23   24 1   
    44   23   25 1   
    45   23   42 1   
    46   24   43 1   
    47   24   44 1   
    48   24   45 1   
    49   25   46 1   
    50   25   47 1   
    51   25   48 1   
@<TRIPOS>SUBSTRUCTURE
     1 MDZ         1 TEMP              0 ****  ****    0 ROOT
