@<TRIPOS>MOLECULE
ME0
   20    19     1     0     0
SMALL
bcc


@<TRIPOS>ATOM
      1 C           2.8940    0.3080   -0.1510 c         1 ME0      0.889600
      2 N           1.6440   -1.9080   -0.1550 n3        1 ME0     -0.894800
      3 O           3.8840   -0.3390    0.2950 o         1 ME0     -0.840300
      4 CA          1.5770   -0.4840   -0.4550 c3        1 ME0      0.020500
      5 CB          0.4200    0.2300    0.2490 c3        1 ME0     -0.062400
      6 SD         -2.1790    0.7280    0.5220 ss        1 ME0     -0.306200
      7 CE         -3.6100    0.3590   -0.4420 c3        1 ME0      0.192500
      8 OF         -4.1470   -0.8860   -0.0400 oh        1 ME0     -0.588800
      9 CG         -0.9150   -0.2760   -0.2300 c3        1 ME0      0.017700
     10 OXT         2.8970    1.5450   -0.3950 o         1 ME0     -0.840300
     11 HN          2.5540   -2.2300   -0.4460 hn        1 ME0      0.332300
     12 HNA         1.6130   -2.0260    0.8430 hn        1 ME0      0.332300
     13 HA          1.4130   -0.4030   -1.5700 h1        1 ME0      0.039700
     14 HB          0.5040    0.0980    1.3590 hc        1 ME0      0.062700
     15 HBA         0.5290    1.3270    0.0270 hc        1 ME0      0.062700
     16 HE         -4.3460    1.1790   -0.2390 h2        1 ME0      0.039700
     17 H7         -3.3640    0.3370   -1.5340 h2        1 ME0      0.039700
     18 H8         -4.8920   -1.0800   -0.6220 ho        1 ME0      0.381000
     19 HG         -0.9880   -0.2000   -1.3420 h1        1 ME0      0.060700
     20 HGA        -1.0660   -1.3440    0.0550 h1        1 ME0      0.060700
@<TRIPOS>BOND
     1    1    3 1   
     2    1    4 1   
     3    1   10 1   
     4    2    4 1   
     5    2   11 1   
     6    2   12 1   
     7    4    5 1   
     8    4   13 1   
     9    5    9 1   
    10    5   14 1   
    11    5   15 1   
    12    6    7 1   
    13    6    9 1   
    14    7    8 1   
    15    7   16 1   
    16    7   17 1   
    17    8   18 1   
    18    9   19 1   
    19    9   20 1   
@<TRIPOS>SUBSTRUCTURE
     1 ME0         1 TEMP              0 ****  ****    0 ROOT
