@<TRIPOS>MOLECULE
ME1
   45    47     1     0     0
SMALL
bcc


@<TRIPOS>ATOM
      1 C1          2.7440    1.9710    0.1670 cc        1 ME1      0.080300
      2 C2          3.8350    1.3030    0.7340 cd        1 ME1     -0.170000
      3 C3          3.4590    0.5430    1.8560 cd        1 ME1      0.023000
      4 C9         -0.4430   -0.0540    4.8390 c3        1 ME1      0.112800
      5 C10        -0.4270   -1.5200    5.3110 c3        1 ME1      0.096800
      6 C12        -2.5170   -2.4500    4.1930 c         1 ME1      0.608700
      7 C14        -3.5820   -3.4050    4.2620 ca        1 ME1     -0.277600
      8 C15        -4.1760   -3.7840    3.0310 ca        1 ME1     -0.019000
      9 C16        -5.1870   -4.7210    2.9840 ca        1 ME1     -0.166500
     10 C19        -4.0740   -3.9920    5.4500 ca        1 ME1     -0.019000
     11 C21        -7.5450   -6.4410    5.2360 cc        1 ME1     -0.047400
     12 C22        -8.5060   -7.4030    5.2930 cd        1 ME1     -0.157000
     13 C24        -7.8580   -8.2370    3.1270 cc        1 ME1     -0.219200
     14 C4          2.0750    0.6480    2.1260 cc        1 ME1     -0.327700
     15 S5          1.3280    1.6540    1.0000 ss        1 ME1      0.098200
     16 C6          1.5080   -0.0460    3.2280 c         1 ME1      0.631700
     17 O7          2.0200   -0.7920    4.0540 o         1 ME1     -0.468100
     18 N8         -0.0100    0.1580    3.4310 n4        1 ME1     -0.694800
     19 N11        -1.7620   -2.1510    5.4970 n4        1 ME1     -0.690800
     20 O13        -2.0890   -1.8130    3.2280 o         1 ME1     -0.555100
     21 C17        -5.6730   -5.3360    4.1730 ca        1 ME1      0.197600
     22 C18        -5.0870   -4.9220    5.4130 ca        1 ME1     -0.166500
     23 N20        -6.6750   -6.3050    4.1400 n         1 ME1     -0.271200
     24 C23        -8.6620   -8.3330    4.2100 cd        1 ME1     -0.034000
     25 C25        -6.8100   -7.2160    3.0270 c         1 ME1      0.700700
     26 O26        -6.0340   -7.1130    2.0660 o         1 ME1     -0.589500
     27 CL27        2.8210    2.9530   -1.1620 cl        1 ME1      0.096600
     28 H2          4.8630    1.3630    0.3530 ha        1 ME1      0.216000
     29 H3          4.1560   -0.0600    2.4550 ha        1 ME1      0.200000
     30 H91         0.2790    0.5200    5.4980 hx        1 ME1      0.125700
     31 H92        -1.4690    0.4050    4.9520 hx        1 ME1      0.125700
     32 H101        0.1000   -1.5450    6.3150 hx        1 ME1      0.141200
     33 H102        0.1680   -2.1740    4.6040 hx        1 ME1      0.141200
     34 H15        -3.8200   -3.3180    2.0940 ha        1 ME1      0.147000
     35 H16        -5.6140   -4.9950    1.9990 ha        1 ME1      0.193000
     36 H19        -3.6650   -3.7230    6.4380 ha        1 ME1      0.147000
     37 H24        -7.9270   -8.9070    2.2550 ha        1 ME1      0.193000
     38 HN8        -0.2580    1.1150    3.1560 hn        1 ME1      0.473800
     39 HN11       -1.6230   -3.0440    5.9920 hn        1 ME1      0.469300
     40 H18        -5.4250   -5.3750    6.3620 ha        1 ME1      0.193000
     41 H23        -9.4460   -9.1060    4.2830 ha        1 ME1      0.176000
     42 H21        -7.4370   -5.6910    6.0410 h4        1 ME1      0.161000
     43 H82        -0.5060   -0.4970    2.8070 hn        1 ME1      0.473800
     44 H112       -2.3580   -1.5540    6.0810 hn        1 ME1      0.469300
     45 H22        -9.1790   -7.4660    6.1620 ha        1 ME1      0.179000
@<TRIPOS>BOND
     1    1    2 2   
     2    1   15 1   
     3    1   27 1   
     4    2    3 1   
     5    2   28 1   
     6    3   14 2   
     7    3   29 1   
     8    4    5 1   
     9    4   18 1   
    10    4   30 1   
    11    4   31 1   
    12    5   19 1   
    13    5   32 1   
    14    5   33 1   
    15    6    7 1   
    16    6   19 1   
    17    6   20 2   
    18    7    8 ar  
    19    7   10 ar  
    20    8    9 ar  
    21    8   34 1   
    22    9   21 ar  
    23    9   35 1   
    24   10   22 ar  
    25   10   36 1   
    26   11   12 2   
    27   11   23 1   
    28   11   42 1   
    29   12   24 1   
    30   12   45 1   
    31   13   24 2   
    32   13   25 1   
    33   13   37 1   
    34   14   15 1   
    35   14   16 1   
    36   16   17 2   
    37   16   18 1   
    38   18   38 1   
    39   18   43 1   
    40   19   39 1   
    41   19   44 1   
    42   21   22 ar  
    43   21   23 1   
    44   22   40 1   
    45   23   25 1   
    46   24   41 1   
    47   25   26 2   
@<TRIPOS>SUBSTRUCTURE
     1 ME1         1 TEMP              0 ****  ****    0 ROOT
