@<TRIPOS>MOLECULE
ME1
   45    47     1     0     0
SMALL
bcc


@<TRIPOS>ATOM
      1 C1          2.9930    1.7170    0.2030 cc        1 ME1      0.080300
      2 C2          4.0410    1.0890    0.8850 cd        1 ME1     -0.170000
      3 C3          3.5900    0.4060    2.0290 cd        1 ME1      0.023000
      4 C9         -0.5030    0.0120    4.7820 c3        1 ME1      0.112800
      5 C10        -0.5230   -1.4190    5.3510 c3        1 ME1      0.096800
      6 C12        -2.5400   -2.4220    4.1640 c         1 ME1      0.608700
      7 C14        -3.6110   -3.3700    4.2270 ca        1 ME1     -0.277600
      8 C15        -4.1250   -3.8310    2.9880 ca        1 ME1     -0.019000
      9 C16        -5.1350   -4.7690    2.9380 ca        1 ME1     -0.166500
     10 C19        -4.1810   -3.8770    5.4180 ca        1 ME1     -0.019000
     11 C21        -7.6410   -6.3350    5.1410 cc        1 ME1     -0.047400
     12 C22        -8.6080   -7.2920    5.2000 cd        1 ME1     -0.157000
     13 C24        -7.8250   -8.2680    3.1410 cc        1 ME1     -0.219200
     14 C4          2.1920    0.5290    2.1990 cc        1 ME1     -0.327700
     15 S5          1.5240    1.4560    0.9610 ss        1 ME1      0.099200
     16 C6          1.5510   -0.0880    3.3050 c         1 ME1      0.631700
     17 O7          2.0040   -0.7770    4.2120 o         1 ME1     -0.468100
     18 N8          0.0230    0.1280    3.3940 n4        1 ME1     -0.694800
     19 N11        -1.8700   -2.0370    5.4920 n4        1 ME1     -0.690800
     20 O13        -2.0470   -1.8520    3.1880 o         1 ME1     -0.555100
     21 C17        -5.7000   -5.3030    4.1310 ca        1 ME1      0.197600
     22 C18        -5.1950   -4.8070    5.3760 ca        1 ME1     -0.166500
     23 N20        -6.7010   -6.2730    4.0980 n         1 ME1     -0.271200
     24 C23        -8.6980   -8.2920    4.1730 cd        1 ME1     -0.034000
     25 C25        -6.7680   -7.2560    3.0420 c         1 ME1      0.700700
     26 O26        -5.9310   -7.2170    2.1280 o         1 ME1     -0.589500
     27 CL27        3.1610    2.6060   -1.1810 cl        1 ME1      0.096600
     28 H2          5.0930    1.1240    0.5690 ha        1 ME1      0.216000
     29 H3          4.2430   -0.1530    2.7120 ha        1 ME1      0.200000
     30 H91        -1.5310    0.4770    4.7960 hx        1 ME1      0.125700
     31 H92         0.1770    0.6290    5.4460 hx        1 ME1      0.125700
     32 H101       -0.0640   -1.3750    6.3870 hx        1 ME1      0.141200
     33 H102        0.1140   -2.1190    4.7310 hx        1 ME1      0.141200
     34 H15        -3.7080   -3.4290    2.0470 ha        1 ME1      0.147000
     35 H16        -5.4990   -5.1080    1.9480 ha        1 ME1      0.193000
     36 H19        -3.8370   -3.5430    6.4090 ha        1 ME1      0.147000
     37 H24        -7.8400   -8.9950    2.3120 ha        1 ME1      0.193000
     38 HN8        -0.2020    1.0650    3.0390 hn        1 ME1      0.473800
     39 HN11       -2.5010   -1.4010    5.9940 hn        1 ME1      0.469300
     40 H18        -5.5950   -5.1960    6.3290 ha        1 ME1      0.193000
     41 H23        -9.4880   -9.0580    4.2460 ha        1 ME1      0.176000
     42 H21        -7.5830   -5.5340    5.9000 h4        1 ME1      0.161000
     43 H82        -0.4340   -0.5680    2.7850 hn        1 ME1      0.473800
     44 H112       -1.7670   -2.8940    6.0540 hn        1 ME1      0.469300
     45 H22        -9.3360   -7.2970    6.0260 ha        1 ME1      0.179000
@<TRIPOS>BOND
     1    1    2 2   
     2    1   15 1   
     3    1   27 1   
     4    2    3 1   
     5    2   28 1   
     6    3   14 2   
     7    3   29 1   
     8    4    5 1   
     9    4   18 1   
    10    4   30 1   
    11    4   31 1   
    12    5   19 1   
    13    5   32 1   
    14    5   33 1   
    15    6    7 1   
    16    6   19 1   
    17    6   20 2   
    18    7    8 ar  
    19    7   10 ar  
    20    8    9 ar  
    21    8   34 1   
    22    9   21 ar  
    23    9   35 1   
    24   10   22 ar  
    25   10   36 1   
    26   11   12 2   
    27   11   23 1   
    28   11   42 1   
    29   12   24 1   
    30   12   45 1   
    31   13   24 2   
    32   13   25 1   
    33   13   37 1   
    34   14   15 1   
    35   14   16 1   
    36   16   17 2   
    37   16   18 1   
    38   18   38 1   
    39   18   43 1   
    40   19   39 1   
    41   19   44 1   
    42   21   22 ar  
    43   21   23 1   
    44   22   40 1   
    45   23   25 1   
    46   24   41 1   
    47   25   26 2   
@<TRIPOS>SUBSTRUCTURE
     1 ME1         1 TEMP              0 ****  ****    0 ROOT
