@<TRIPOS>MOLECULE
ME1
   43    36     1     0     0
SMALL
bcc


@<TRIPOS>ATOM
      1 C1          2.6570   -4.7100   -7.5180 c1        1 ME1     -0.407500
      2 C2          4.0970   -4.6740   -6.9790 c1        1 ME1     -0.119500
      3 C3          4.1440   -3.8850   -5.6120 c1        1 ME1     -0.119500
      4 C9          1.1290   -0.6710   -3.0500 c3        1 ME1     -0.057000
      5 C10        -0.3620   -0.5610   -2.6150 c3        1 ME1     -0.057000
      6 C12        -1.5920    0.0070   -0.5000 c1        1 ME1      0.358000
      7 C14        -1.6050    0.6550    0.8890 c1        1 ME1     -0.124000
      8 C15        -0.5710    1.4950    1.2720 c2        1 ME1     -0.094000
      9 C16        -0.5730    2.0700    2.5450 c1        1 ME1     -0.118000
     10 C19        -2.6490    0.3820    1.7770 c1        1 ME1     -0.067000
     11 C21        -2.2970    3.6320    5.0100 c1        1 ME1     -0.126500
     12 C22        -2.2100    4.2800    6.3770 c1        1 ME1     -0.126500
     13 C24        -0.7680    2.3470    7.1950 c1        1 ME1     -0.126500
     14 C4          2.7360   -3.3960   -5.2370 c1        1 ME1     -0.407500
     15 S5          1.6120   -3.8790   -6.4410 ss        1 ME1      0.617000
     16 C6          2.5580   -2.0840   -4.5240 c1        1 ME1      0.358000
     17 O7          3.5270   -1.4110   -4.2430 o         1 ME1     -0.360000
     18 N8          1.2600   -1.6910   -4.0690 n3        1 ME1     -0.369500
     19 N11        -0.4490    0.1830   -1.3700 n3        1 ME1     -0.369500
     20 O13        -2.5000   -0.7300   -0.8340 o         1 ME1     -0.360000
     21 C17        -1.6140    1.7980    3.4300 c1        1 ME1      0.064000
     22 C18        -2.6520    0.9540    3.0450 c1        1 ME1     -0.158000
     23 N20        -1.6020    2.3670    4.7510 n2        1 ME1     -0.201000
     24 C23        -1.4640    3.6150    7.4590 c1        1 ME1     -0.126500
     25 C25        -0.8590    1.7040    5.8250 c1        1 ME1      0.330000
     26 O26        -0.2830    0.6540    5.6060 o         1 ME1     -0.351000
     27 CL27        2.0830   -6.1160   -8.3790 cl        1 ME1      0.058000
     28 H2          4.6920   -5.4370   -7.1240 ha        1 ME1      0.175000
     29 H3          4.9290   -3.3390   -5.3870 ha        1 ME1      0.175000
     30 H91         1.4290    0.1900   -3.4100 h1        1 ME1      0.107750
     31 H92         1.6790   -0.9110   -2.2740 h1        1 ME1      0.107750
     32 H101       -0.7320   -1.4580   -2.4860 h1        1 ME1      0.107750
     33 H102       -0.8720   -0.0930   -3.3110 h1        1 ME1      0.107750
     34 H15         0.1610    1.6860    0.6500 ha        1 ME1      0.139000
     35 H16         0.1570    2.6630    2.8150 ha        1 ME1      0.169000
     36 H19        -3.3790   -0.2120    1.5060 ha        1 ME1      0.161000
     37 H21        -2.7920    4.0720    4.2910 ha        1 ME1      0.155500
     38 H22        -2.6750    5.1250    6.5500 ha        1 ME1      0.155500
     39 H24        -0.2700    1.9020    7.9130 ha        1 ME1      0.155500
     40 HN8         0.5150   -2.1140   -4.3910 hn        1 ME1      0.223000
     41 HN11        0.1910    0.7960   -1.1610 hn        1 ME1      0.223000
     42 H18        -3.3840    0.7630    3.6660 ha        1 ME1      0.143000
     43 H23        -1.4070    4.0320    8.3420 ha        1 ME1      0.155500
@<TRIPOS>BOND
     1    1    2 1   
     2    1   15 1   
     3    2   28 1   
     4    3   14 1   
     5    3   29 1   
     6    4    5 1   
     7    4   18 1   
     8    4   30 1   
     9    4   31 1   
    10    5   19 1   
    11    5   32 1   
    12    5   33 1   
    13    6   19 1   
    14    6   20 1   
    15    7    8 1   
    16    7   10 1   
    17    8    9 1   
    18    8   34 1   
    19    9   35 1   
    20   10   36 1   
    21   11   12 1   
    22   11   37 1   
    23   12   38 1   
    24   13   24 1   
    25   13   39 1   
    26   14   15 1   
    27   16   17 1   
    28   16   18 1   
    29   18   40 1   
    30   19   41 1   
    31   21   22 1   
    32   21   23 1   
    33   22   42 1   
    34   23   25 1   
    35   24   43 1   
    36   25   26 1   
@<TRIPOS>SUBSTRUCTURE
     1 ME1         1 TEMP              0 ****  ****    0 ROOT
