@<TRIPOS>MOLECULE
ME1
   45    47     1     0     0
SMALL
bcc


@<TRIPOS>ATOM
      1 C1          2.7840    1.9560    0.2080 cc        1 ME1      0.080300
      2 C2          3.8680    1.2910    0.7910 cd        1 ME1     -0.170000
      3 C3          3.4800    0.5350    1.9120 cd        1 ME1      0.023000
      4 C9         -0.4560   -0.0500    4.8540 c3        1 ME1      0.112800
      5 C10        -0.4440   -1.5140    5.3300 c3        1 ME1      0.096800
      6 C12        -2.5230   -2.4480    4.1930 c         1 ME1      0.608700
      7 C14        -3.5880   -3.4020    4.2530 ca        1 ME1     -0.277600
      8 C15        -4.1680   -3.7850    3.0160 ca        1 ME1     -0.019000
      9 C16        -5.1790   -4.7220    2.9620 ca        1 ME1     -0.166500
     10 C19        -4.0930   -3.9860    5.4380 ca        1 ME1     -0.019000
     11 C21        -7.5610   -6.4360    5.1920 cc        1 ME1     -0.047400
     12 C22        -8.5220   -7.3980    5.2420 cd        1 ME1     -0.157000
     13 C24        -7.8500   -8.2390    3.0860 cc        1 ME1     -0.219200
     14 C4          2.0930    0.6410    2.1660 cc        1 ME1     -0.327700
     15 S5          1.3580    1.6430    1.0280 ss        1 ME1      0.098200
     16 C6          1.5140   -0.0470    3.2640 c         1 ME1      0.631700
     17 O7          2.0160   -0.7900    4.1000 o         1 ME1     -0.468100
     18 N8         -0.0070    0.1570    3.4500 ny        1 ME1     -0.694800
     19 N11        -1.7810   -2.1450    5.5050 ny        1 ME1     -0.690800
     20 O13        -2.0840   -1.8140    3.2300 o         1 ME1     -0.555100
     21 C17        -5.6770   -5.3340    4.1470 ca        1 ME1      0.197600
     22 C18        -5.1060   -4.9160    5.3920 ca        1 ME1     -0.166500
     23 N20        -6.6780   -6.3040    4.1060 n         1 ME1     -0.271200
     24 C23        -8.6660   -8.3320    4.1590 cd        1 ME1     -0.034000
     25 C25        -6.8010   -7.2180    2.9940 c         1 ME1      0.700700
     26 O26        -6.0150   -7.1170    2.0410 o         1 ME1     -0.589500
     27 Cl27        2.8750    2.9320   -1.1230 cl        1 ME1      0.096600
     28 H2          4.9000    1.3490    0.4210 ha        1 ME1      0.216000
     29 H3          4.1700   -0.0640    2.5210 ha        1 ME1      0.200000
     30 H91         0.2590    0.5260    5.5190 hx        1 ME1      0.125700
     31 H92        -1.4820    0.4100    4.9540 hx        1 ME1      0.125700
     32 H101        0.0710   -1.5360    6.3400 hx        1 ME1      0.141200
     33 H102        0.1580   -2.1710    4.6320 hx        1 ME1      0.141200
     34 H15        -3.8030   -3.3220    2.0820 ha        1 ME1      0.147000
     35 H16        -5.5950   -4.9990    1.9730 ha        1 ME1      0.193000
     36 H19        -3.6950   -3.7140    6.4280 ha        1 ME1      0.147000
     37 H24        -7.9100   -8.9120    2.2150 ha        1 ME1      0.193000
     38 HN8        -0.2510    1.1140    3.1690 hn        1 ME1      0.473800
     39 HN11       -1.6480   -3.0360    6.0040 hn        1 ME1      0.469300
     40 H18        -5.4540   -5.3660    6.3380 ha        1 ME1      0.193000
     41 H23        -9.4500   -9.1050    4.2270 ha        1 ME1      0.176000
     42 H21        -7.4620   -5.6840    5.9960 h4        1 ME1      0.161000
     43 H82        -0.4960   -0.5000    2.8230 hn        1 ME1      0.473800
     44 H112       -2.3840   -1.5460    6.0800 hn        1 ME1      0.469300
     45 H22        -9.2040   -7.4590    6.1040 ha        1 ME1      0.179000
@<TRIPOS>BOND
     1    1    2 2   
     2    1   15 1   
     3    1   27 1   
     4    2    3 1   
     5    2   28 1   
     6    3   14 2   
     7    3   29 1   
     8    4    5 1   
     9    4   18 1   
    10    4   30 1   
    11    4   31 1   
    12    5   19 1   
    13    5   32 1   
    14    5   33 1   
    15    6    7 1   
    16    6   19 1   
    17    6   20 2   
    18    7    8 ar  
    19    7   10 ar  
    20    8    9 ar  
    21    8   34 1   
    22    9   21 ar  
    23    9   35 1   
    24   10   22 ar  
    25   10   36 1   
    26   11   12 2   
    27   11   23 1   
    28   11   42 1   
    29   12   24 1   
    30   12   45 1   
    31   13   24 2   
    32   13   25 1   
    33   13   37 1   
    34   14   15 1   
    35   14   16 1   
    36   16   17 2   
    37   16   18 1   
    38   18   38 1   
    39   18   43 1   
    40   19   39 1   
    41   19   44 1   
    42   21   22 ar  
    43   21   23 1   
    44   22   40 1   
    45   23   25 1   
    46   24   41 1   
    47   25   26 2   
@<TRIPOS>SUBSTRUCTURE
     1 ME1         1 TEMP              0 ****  ****    0 ROOT
