@<TRIPOS>MOLECULE
ME1
   43    45     1     0     0
SMALL
bcc


@<TRIPOS>ATOM
      1 C1          0.6250   11.6430    4.3560 cc        1 ME1     -0.027700
      2 C2          1.6510   11.8840    3.4540 cd        1 ME1     -0.165000
      3 C3          1.1600   11.9740    2.1230 cd        1 ME1     -0.083000
      4 C9         -3.0950   11.4450   -0.3600 c3        1 ME1      0.058000
      5 C10        -3.8700   10.1230   -0.5600 c3        1 ME1      0.063000
      6 C12        -2.6630    8.2860    0.5420 c         1 ME1      0.672700
      7 C14        -1.7870    7.0900    0.3960 ca        1 ME1     -0.149600
      8 C15        -0.8910    6.8000    1.4310 ca        1 ME1     -0.076500
      9 C16        -0.0430    5.7000    1.3500 ca        1 ME1     -0.140000
     10 C19        -1.8540    6.2430   -0.7140 ca        1 ME1     -0.076500
     11 C21         1.3590    3.4630   -1.1230 cc        1 ME1      0.011600
     12 C22         2.1770    2.3860   -1.3330 cd        1 ME1     -0.242000
     13 C24         1.9190    1.7310    0.9700 cc        1 ME1     -0.251200
     14 C4         -0.2160   11.7930    2.0680 cc        1 ME1     -0.201700
     15 S5         -0.8620   11.5340    3.5900 ss        1 ME1      0.106200
     16 C6         -0.9640   11.8520    0.8010 c         1 ME1      0.702700
     17 O7         -0.4310   12.2580   -0.2530 o         1 ME1     -0.607100
     18 N8         -2.3000   11.4810    0.8350 n         1 ME1     -0.565900
     19 N11        -3.0680    8.9350   -0.6140 n         1 ME1     -0.557900
     20 O13        -3.0420    8.6860    1.6640 o         1 ME1     -0.619100
     21 C17        -0.0900    4.8550    0.2220 ca        1 ME1      0.060600
     22 C18        -1.0200    5.1330   -0.8040 ca        1 ME1     -0.140000
     23 N20         0.7840    3.7360    0.1090 n         1 ME1     -0.265200
     24 C23         2.4550    1.4940   -0.2520 cd        1 ME1     -0.039000
     25 C25         1.0500    2.8860    1.2210 c         1 ME1      0.691700
     26 O26         0.5560    3.1410    2.3350 o         1 ME1     -0.623500
     27 CL27        0.8170   11.4790    6.0070 cl        1 ME1     -0.023400
     28 H2          2.7050   11.9960    3.7190 ha        1 ME1      0.169000
     29 H3          1.7860   12.1690    1.2470 ha        1 ME1      0.177000
     30 H91        -2.4400   11.6460   -1.2560 h1        1 ME1      0.065200
     31 H92        -3.8640   12.2700   -0.3010 h1        1 ME1      0.065200
     32 H101       -4.4310   10.2090   -1.5340 h1        1 ME1      0.068200
     33 H102       -4.6170   10.0060    0.2770 h1        1 ME1      0.068200
     34 H15        -0.8670    7.4480    2.3230 ha        1 ME1      0.151500
     35 H16         0.6420    5.4780    2.1850 ha        1 ME1      0.156500
     36 H19        -2.5820    6.4260   -1.5200 ha        1 ME1      0.151500
     37 H22         2.6200    2.2080   -2.3210 ha        1 ME1      0.154000
     38 H24         2.0940    1.0860    1.8430 ha        1 ME1      0.166000
     39 HN8        -2.6370   10.9500    1.6090 hn        1 ME1      0.327500
     40 HN11       -2.5590    8.7680   -1.4500 hn        1 ME1      0.311500
     41 H18        -1.1070    4.4690   -1.6780 ha        1 ME1      0.156500
     42 H23         3.1070    0.6260   -0.4350 ha        1 ME1      0.143000
     43 H21         1.1290    4.1810   -1.9340 h4        1 ME1      0.158000
@<TRIPOS>BOND
     1    1    2 2   
     2    1   15 1   
     3    1   27 1   
     4    2    3 1   
     5    2   28 1   
     6    3   14 2   
     7    3   29 1   
     8    4    5 1   
     9    4   18 1   
    10    4   30 1   
    11    4   31 1   
    12    5   19 1   
    13    5   32 1   
    14    5   33 1   
    15    6    7 1   
    16    6   19 1   
    17    6   20 2   
    18    7    8 ar  
    19    7   10 ar  
    20    8    9 ar  
    21    8   34 1   
    22    9   21 ar  
    23    9   35 1   
    24   10   22 ar  
    25   10   36 1   
    26   11   12 2   
    27   11   23 1   
    28   11   43 1   
    29   12   24 1   
    30   12   37 1   
    31   13   24 2   
    32   13   25 1   
    33   13   38 1   
    34   14   15 1   
    35   14   16 1   
    36   16   17 2   
    37   16   18 1   
    38   18   39 1   
    39   19   40 1   
    40   21   22 ar  
    41   21   23 1   
    42   22   41 1   
    43   23   25 1   
    44   24   42 1   
    45   25   26 2   
@<TRIPOS>SUBSTRUCTURE
     1 ME1         1 TEMP              0 ****  ****    0 ROOT
