@<TRIPOS>MOLECULE
ME2
   26    25     1     0     0
SMALL
bcc


@<TRIPOS>ATOM
      1 C7          0.1470    1.2320   -0.1140 c3        1 ME2     -0.097100
      2 C6          1.2580    0.2080   -0.1100 c3        1 ME2      0.131400
      3 O3          1.9870    0.3920    1.1030 os        1 ME2     -0.428600
      4 C5          3.0830   -0.5120    1.2160 c3        1 ME2      0.126400
      5 C4          3.6670   -0.3110    2.6110 c3        1 ME2      0.127400
      6 O2          3.3800   -1.5000    3.3440 os        1 ME2     -0.429600
      7 C3          3.7280   -1.3820    4.7220 c3        1 ME2      0.127400
      8 C2          3.5410   -2.7650    5.3350 c3        1 ME2      0.123400
      9 O1          4.8460   -3.2510    5.6480 os        1 ME2     -0.425600
     10 C1          4.8340   -4.5940    6.0980 c3        1 ME2      0.117700
     11 H71        -0.4540    1.1220   -1.0470 hc        1 ME2      0.045033
     12 H72        -0.5180    1.0860    0.7700 hc        1 ME2      0.045033
     13 H73         0.5690    2.2650   -0.0680 hc        1 ME2      0.045033
     14 H61         1.9460    0.3560   -0.9860 h1        1 ME2      0.024700
     15 H62         0.8460   -0.8360   -0.1450 h1        1 ME2      0.024700
     16 H51         3.8470   -0.2660    0.4320 h1        1 ME2      0.041700
     17 H52         2.7320   -1.5690    1.0800 h1        1 ME2      0.041700
     18 H41         4.7790   -0.1720    2.5560 h1        1 ME2      0.043700
     19 H42         3.2000    0.5780    3.1140 h1        1 ME2      0.043700
     20 H31         3.0460   -0.6380    5.2120 h1        1 ME2      0.043700
     21 H32         4.7930   -1.0410    4.8260 h1        1 ME2      0.043700
     22 H21         2.9380   -2.6990    6.2790 h1        1 ME2      0.042700
     23 H22         3.0330   -3.4570    4.6120 h1        1 ME2      0.042700
     24 H11         5.9070   -4.8280    6.3090 h1        1 ME2      0.032700
     25 H12         4.4330   -5.2730    5.3050 h1        1 ME2      0.032700
     26 H13         4.2210   -4.6930    7.0280 h1        1 ME2      0.032700
@<TRIPOS>BOND
     1    1    2 1   
     2    1   11 1   
     3    1   12 1   
     4    1   13 1   
     5    2    3 1   
     6    2   14 1   
     7    2   15 1   
     8    3    4 1   
     9    4    5 1   
    10    4   16 1   
    11    4   17 1   
    12    5    6 1   
    13    5   18 1   
    14    5   19 1   
    15    6    7 1   
    16    7    8 1   
    17    7   20 1   
    18    7   21 1   
    19    8    9 1   
    20    8   22 1   
    21    8   23 1   
    22    9   10 1   
    23   10   24 1   
    24   10   25 1   
    25   10   26 1   
@<TRIPOS>SUBSTRUCTURE
     1 ME2         1 TEMP              0 ****  ****    0 ROOT
