@<TRIPOS>MOLECULE
ME2
   26    25     1     0     0
SMALL
bcc


@<TRIPOS>ATOM
      1 C7         -0.6630   -0.9160    4.7710 c3        1 ME2     -0.097100
      2 C6         -0.5690    0.2290    3.7890 c3        1 ME2      0.131400
      3 O3          0.2140   -0.2330    2.6890 os        1 ME2     -0.428600
      4 C5          0.3930    0.7720    1.6940 c3        1 ME2      0.126400
      5 C4          1.1030    0.1010    0.5230 c3        1 ME2      0.127400
      6 O2          0.1600    0.0500   -0.5460 os        1 ME2     -0.429600
      7 C3          0.6430   -0.7050   -1.6550 c3        1 ME2      0.127400
      8 C2         -0.3740   -0.5230   -2.7770 c3        1 ME2      0.123400
      9 O1          0.2640    0.2650   -3.7800 os        1 ME2     -0.425600
     10 C1         -0.6180    0.6330   -4.8260 c3        1 ME2      0.117700
     11 H71        -1.2730   -0.6000    5.6500 hc        1 ME2      0.045033
     12 H72        -1.1440   -1.8010    4.2900 hc        1 ME2      0.045033
     13 H73         0.3540   -1.2160    5.1180 hc        1 ME2      0.045033
     14 H61        -1.5860    0.5330    3.4230 h1        1 ME2      0.024700
     15 H62        -0.0700    1.1200    4.2550 h1        1 ME2      0.024700
     16 H51        -0.6010    1.1840    1.3740 h1        1 ME2      0.041700
     17 H52         1.0240    1.5990    2.1140 h1        1 ME2      0.041700
     18 H41         1.9910    0.7060    0.2020 h1        1 ME2      0.043700
     19 H42         1.4330   -0.9360    0.8000 h1        1 ME2      0.043700
     20 H31         1.6530   -0.3300   -1.9700 h1        1 ME2      0.043700
     21 H32         0.7170   -1.7850   -1.3610 h1        1 ME2      0.043700
     22 H21        -0.6580   -1.5160   -3.2150 h1        1 ME2      0.042700
     23 H22        -1.2940   -0.0010   -2.4010 h1        1 ME2      0.042700
     24 H11         0.0160    1.2290   -5.5290 h1        1 ME2      0.032700
     25 H12        -1.0240   -0.2750   -5.3380 h1        1 ME2      0.032700
     26 H13        -1.4590    1.2550   -4.4330 h1        1 ME2      0.032700
@<TRIPOS>BOND
     1    1    2 1   
     2    1   11 1   
     3    1   12 1   
     4    1   13 1   
     5    2    3 1   
     6    2   14 1   
     7    2   15 1   
     8    3    4 1   
     9    4    5 1   
    10    4   16 1   
    11    4   17 1   
    12    5    6 1   
    13    5   18 1   
    14    5   19 1   
    15    6    7 1   
    16    7    8 1   
    17    7   20 1   
    18    7   21 1   
    19    8    9 1   
    20    8   22 1   
    21    8   23 1   
    22    9   10 1   
    23   10   24 1   
    24   10   25 1   
    25   10   26 1   
@<TRIPOS>SUBSTRUCTURE
     1 ME2         1 TEMP              0 ****  ****    0 ROOT
