@<TRIPOS>MOLECULE
ME2
   26    25     1     0     0
SMALL
bcc


@<TRIPOS>ATOM
      1 C7         -4.4800    0.3580   -2.8070 c3        1 ME2     -0.097100
      2 C6         -2.9430    0.2440   -2.8110 c3        1 ME2      0.132400
      3 O3         -2.4560    0.3920   -1.4940 os        1 ME2     -0.428600
      4 C5         -1.0460    0.0910   -1.3510 c3        1 ME2      0.127400
      5 C4         -0.6460    0.2280    0.1070 c3        1 ME2      0.130400
      6 O2          0.7160   -0.0930    0.2550 os        1 ME2     -0.431600
      7 C3          1.2200    0.1370    1.5680 c3        1 ME2      0.130400
      8 C2          2.6740   -0.3830    1.6640 c3        1 ME2      0.124400
      9 O1          3.1820   -0.1390    2.9940 os        1 ME2     -0.424600
     10 C1          4.5220   -0.5550    3.1860 c3        1 ME2      0.118700
     11 H71        -4.7460    1.2250   -2.4100 hc        1 ME2      0.045367
     12 H72        -4.8140    0.3050   -3.7270 hc        1 ME2      0.045367
     13 H73        -4.8610   -0.3740   -2.2790 hc        1 ME2      0.045367
     14 H61        -2.6820   -0.6300   -3.1580 h1        1 ME2      0.025700
     15 H62        -2.5610    0.9540   -3.3860 h1        1 ME2      0.025700
     16 H51        -0.8760   -0.8250   -1.6510 h1        1 ME2      0.038700
     17 H52        -0.5190    0.7190   -1.8970 h1        1 ME2      0.038700
     18 H41        -0.7970    1.1510    0.4010 h1        1 ME2      0.041700
     19 H42        -1.1810   -0.3750    0.6480 h1        1 ME2      0.041700
     20 H31         1.2040    1.1000    1.7600 h1        1 ME2      0.041700
     21 H32         0.6640   -0.3320    2.2150 h1        1 ME2      0.041700
     22 H21         3.2410    0.0920    0.9990 h1        1 ME2      0.039700
     23 H22         2.6900   -1.3480    1.4790 h1        1 ME2      0.039700
     24 H11         4.8350   -0.2560    4.0740 h1        1 ME2      0.033700
     25 H12         4.5700   -1.5230    3.1350 h1        1 ME2      0.033700
     26 H13         5.0920   -0.1610    2.4870 h1        1 ME2      0.033700
@<TRIPOS>BOND
     1    1    2 1   
     2    1   11 1   
     3    1   12 1   
     4    1   13 1   
     5    2    3 1   
     6    2   14 1   
     7    2   15 1   
     8    3    4 1   
     9    4    5 1   
    10    4   16 1   
    11    4   17 1   
    12    5    6 1   
    13    5   18 1   
    14    5   19 1   
    15    6    7 1   
    16    7    8 1   
    17    7   20 1   
    18    7   21 1   
    19    8    9 1   
    20    8   22 1   
    21    8   23 1   
    22    9   10 1   
    23   10   24 1   
    24   10   25 1   
    25   10   26 1   
@<TRIPOS>SUBSTRUCTURE
     1 ME2         1 TEMP              0 ****  ****    0 ROOT
