@<TRIPOS>MOLECULE
ME2
   26    25     1     0     0
SMALL
bcc


@<TRIPOS>ATOM
      1 C7          0.1390    1.2480   -0.0850 c3        1 ME2     -0.097100
      2 C6          1.2440    0.2180   -0.0940 c3        1 ME2      0.131400
      3 O3          1.9880    0.3970    1.1100 os        1 ME2     -0.428600
      4 C5          3.0800   -0.5140    1.2110 c3        1 ME2      0.126400
      5 C4          3.6800   -0.3170    2.5990 c3        1 ME2      0.127400
      6 O2          3.3860   -1.5010    3.3380 os        1 ME2     -0.429600
      7 C3          3.7500   -1.3840    4.7120 c3        1 ME2      0.127400
      8 C2          3.5490   -2.7630    5.3310 c3        1 ME2      0.123400
      9 O1          4.8490   -3.2670    5.6310 os        1 ME2     -0.425600
     10 C1          4.8220   -4.6090    6.0850 c3        1 ME2      0.117700
     11 H71        -0.4730    1.1410   -1.0110 hc        1 ME2      0.045033
     12 H72        -0.5160    1.1060    0.8070 hc        1 ME2      0.045033
     13 H73         0.5670    2.2780   -0.0440 hc        1 ME2      0.045033
     14 H61         1.9230    0.3610   -0.9780 h1        1 ME2      0.024700
     15 H62         0.8250   -0.8240   -0.1240 h1        1 ME2      0.024700
     16 H51         3.8370   -0.2730    0.4180 h1        1 ME2      0.041700
     17 H52         2.7210   -1.5690    1.0780 h1        1 ME2      0.041700
     18 H41         4.7930   -0.1930    2.5330 h1        1 ME2      0.043700
     19 H42         3.2310    0.5780    3.1040 h1        1 ME2      0.043700
     20 H31         3.0830   -0.6300    5.2060 h1        1 ME2      0.043700
     21 H32         4.8200   -1.0590    4.8040 h1        1 ME2      0.043700
     22 H21         2.9570   -2.6850    6.2810 h1        1 ME2      0.042700
     23 H22         3.0230   -3.4490    4.6150 h1        1 ME2      0.042700
     24 H11         5.8940   -4.8580    6.2850 h1        1 ME2      0.032700
     25 H12         4.4030   -5.2840    5.2980 h1        1 ME2      0.032700
     26 H13         4.2180   -4.6960    7.0210 h1        1 ME2      0.032700
@<TRIPOS>BOND
     1    1    2 1   
     2    1   11 1   
     3    1   12 1   
     4    1   13 1   
     5    2    3 1   
     6    2   14 1   
     7    2   15 1   
     8    3    4 1   
     9    4    5 1   
    10    4   16 1   
    11    4   17 1   
    12    5    6 1   
    13    5   18 1   
    14    5   19 1   
    15    6    7 1   
    16    7    8 1   
    17    7   20 1   
    18    7   21 1   
    19    8    9 1   
    20    8   22 1   
    21    8   23 1   
    22    9   10 1   
    23   10   24 1   
    24   10   25 1   
    25   10   26 1   
@<TRIPOS>SUBSTRUCTURE
     1 ME2         1 TEMP              0 ****  ****    0 ROOT
