@<TRIPOS>MOLECULE
ME4
   62    61     1     0     0
SMALL
bcc


@<TRIPOS>ATOM
      1 C1       -163.6630  141.7800  -28.5730 c3        1 ME4      0.050000
      2 C2       -163.1270  141.2210  -27.2540 c3        1 ME4     -0.222000
      3 C3       1853.3180-1600.1140  350.4020 c1        1 ME4      0.291000
      4 C10      -161.5570  145.6040  -29.6100 c2        1 ME4     -0.227000
      5 C11      -160.3790  145.7060  -30.2470 c2        1 ME4     -0.024000
      6 C12      -159.8740  146.9300  -30.7890 c2        1 ME4     -0.295000
      7 C13      -160.5010  148.1120  -31.1450 c2        1 ME4      0.155000
      8 C14      -159.4840  149.0410  -31.6660 c2        1 ME4     -0.385000
      9 C15      -158.2270  148.4750  -31.6450 c1        1 ME4     -0.055000
     10 C19      -162.0860  149.8500  -31.5910 c1        1 ME4      0.202000
     11 C24      -168.1330  141.1250  -30.5950 c2        1 ME4      0.023000
     12 C27      -168.4320  138.9250  -28.8610 c2        1 ME4     -0.242000
     13 N29      -170.8540  139.3410  -28.8940 n         1 ME4     -0.241000
     14 C30      -172.0350  140.1230  -29.3280 c3        1 ME4     -0.138000
     15 C31      -172.2110  141.4900  -28.9360 c1        1 ME4     -0.022000
     16 C32      -172.7340  136.4250  -27.4870 c1        1 ME4      0.441000
     17 C33      -172.1740  137.3330  -28.2830 c2        1 ME4     -0.588000
     18 C34      -171.1070  138.2630  -27.9400 c2        1 ME4      0.385000
     19 C4       1852.3890-1600.9690  350.3740 c2        1 ME4     -0.242000
     20 C5       -161.8970  140.8330  -30.0620 c2        1 ME4     -0.298000
     21 C6       -162.4840  141.9320  -29.5440 c2        1 ME4      0.025000
     22 N7       -162.0700  143.2260  -29.8920 n         1 ME4     -0.337000
     23 O9       -162.5650  144.2850  -27.9000 o         1 ME4     -0.343000
     24 N16      -158.4250  147.0960  -31.0790 n4        1 ME4      0.000000
     25 CL17     -160.0630  150.5440  -32.1570 cl        1 ME4      0.193000
     26 C18      -161.8420  148.6010  -31.1440 c2        1 ME4     -0.454000
     27 N20      -164.7020  140.9360  -29.1450 n         1 ME4     -0.360000
     28 O22      -166.2790  142.6090  -29.3850 o         1 ME4     -0.326000
     29 C23      -166.9080  140.4110  -30.1580 c3        1 ME4     -0.170000
     30 C25      -169.3790  140.7670  -30.2150 c2        1 ME4     -0.242000
     31 C26      -169.6120  139.6620  -29.2970 c2        1 ME4      0.277000
     32 C28      -167.1880  139.2800  -29.2460 c2        1 ME4      0.023000
     33 O35      -170.4320  138.2100  -26.9100 o         1 ME4     -0.237000
     34 H1       -164.1360  142.7910  -28.3610 h1        1 ME4      0.172000
     35 H21      -162.6230  140.2370  -27.4040 hc        1 ME4      0.097000
     36 H22      -163.9500  141.1020  -26.5110 hc        1 ME4      0.097000
     37 H31A     1854.1160-1599.3810  350.4260 ha        1 ME4      0.300000
     38 H32A     -162.3880  141.9580  -26.8510 hc        1 ME4      0.097000
     39 H11      -159.7300  144.8180  -30.3680 ha        1 ME4      0.116000
     40 H15      -158.1070  146.4130  -31.7640 hn        1 ME4      0.238500
     41 H19      -162.2000  146.4750  -29.4040 ha        1 ME4      0.172000
     42 H24      -166.4080  139.9970  -31.0930 hc        1 ME4      0.186000
     43 H27      -168.5650  138.0660  -28.1750 ha        1 ME4      0.180000
     44 H30      -172.0930  140.0760  -30.4630 h1        1 ME4      0.191500
     45 H31      -172.9740  139.5960  -28.9440 h1        1 ME4      0.191500
     46 H32      -171.5430  142.0330  -28.2620 ha        1 ME4      0.113000
     47 H33      -172.5550  137.3320  -29.3310 ha        1 ME4      0.222000
     48 H41      -164.0250  137.9420  -28.8140 ha        1 ME4      0.002000
     49 H42      -163.4160  138.1360  -28.5870 ha        1 ME4      0.002000
     50 H51      1852.0280-1601.5820  351.2480 ha        1 ME4      0.325000
     51 H52      1851.7770-1601.2510  349.4690 ha        1 ME4      0.325000
     52 H6       -162.2340  139.8230  -29.8000 ha        1 ME4      0.124000
     53 HN7      -161.0490  140.8690  -30.7570 ha        1 ME4      0.124000
     54 HN16     -157.8750  147.0130  -30.2250 hn        1 ME4      0.238500
     55 H18      -162.6680  147.9650  -30.7900 ha        1 ME4      0.184000
     56 HN20     -167.9680  142.0070  -31.2460 ha        1 ME4      0.184000
     57 H25      -170.2420  141.3420  -30.5960 ha        1 ME4      0.180000
     58 H28      -166.3150  138.7020  -28.8850 ha        1 ME4      0.184000
     59 C8       -162.0880  144.3400  -29.0480 c2        1 ME4      0.350000
     60 C21      -165.9200  141.4280  -29.5250 c2        1 ME4      0.326000
     61 H72      -161.5430  143.3020  -30.7340 hn        1 ME4      0.232000
     62 H202     -164.4510  140.0030  -29.3740 hn        1 ME4      0.227000
@<TRIPOS>BOND
     1    1    2 1   
     2    1   21 1   
     3    1   27 1   
     4    1   34 1   
     5    2   35 1   
     6    2   36 1   
     7    2   38 1   
     8    3   19 1   
     9    3   37 1   
    10    4    5 1   
    11    4   41 1   
    12    4   59 1   
    13    5    6 1   
    14    5   39 1   
    15    6    7 1   
    16    6   24 1   
    17    7    8 1   
    18    7   26 1   
    19    8    9 1   
    20    8   25 1   
    21    9   24 1   
    22   10   26 1   
    23   11   29 1   
    24   11   30 1   
    25   11   56 1   
    26   12   31 1   
    27   12   32 1   
    28   12   43 1   
    29   13   14 1   
    30   13   18 1   
    31   13   31 1   
    32   14   15 1   
    33   14   44 1   
    34   14   45 1   
    35   15   46 1   
    36   16   17 1   
    37   17   18 1   
    38   17   47 1   
    39   18   33 1   
    40   19   50 1   
    41   19   51 1   
    42   20   21 1   
    43   20   52 1   
    44   20   53 1   
    45   21   22 1   
    46   22   59 1   
    47   22   61 1   
    48   23   59 1   
    49   24   40 1   
    50   24   54 1   
    51   26   55 1   
    52   27   60 1   
    53   27   62 1   
    54   28   60 1   
    55   29   32 1   
    56   29   42 1   
    57   29   60 1   
    58   30   31 1   
    59   30   57 1   
    60   32   58 1   
    61   48   49 1   
@<TRIPOS>SUBSTRUCTURE
     1 ME4         1 TEMP              0 ****  ****    0 ROOT
