@<TRIPOS>MOLECULE
ME4
   62    62     1     0     0
SMALL
bcc


@<TRIPOS>ATOM
      1 C1         -1.4900    0.9300   -0.5820 c3        1 ME4      0.062000
      2 C2         -0.3310    0.0950   -1.1290 c3        1 ME4     -0.238000
      3 C3          2.0820   -0.7660    1.4770 c2        1 ME4     -0.228000
      4 C10        -4.8300   -1.9450   -0.1230 c2        1 ME4     -0.377000
      5 C11        -5.4040   -2.2370    1.0820 c2        1 ME4      0.095000
      6 C12        -5.9550   -3.4830    1.4040 c2        1 ME4     -0.341000
      7 C13        -5.9240   -4.7260    0.7230 c2        1 ME4      0.222000
      8 C14        -6.6850   -5.6920    1.5060 c2        1 ME4     -0.420000
      9 C15        -7.2060   -5.1280    2.6620 c1        1 ME4      0.051000
     10 C19        -5.5600   -6.5550   -0.7610 c1        1 ME4      0.266000
     11 C24        -0.4630    4.9410    1.1970 c2        1 ME4     -0.010500
     12 C27        -2.5130    6.8290    0.7570 c2        1 ME4     -0.219000
     13 N29        -1.3700    8.3040    2.3520 n         1 ME4     -0.215000
     14 C30        -0.3060    8.5990    3.3450 c3        1 ME4     -0.146000
     15 C31        -0.3470    8.0610    4.6670 c1        1 ME4     -0.014000
     16 C32        -2.6030   11.8060    1.7720 c1        1 ME4      0.479000
     17 C33        -1.9050   10.6690    1.8100 c2        1 ME4     -0.599000
     18 C34        -2.3920    9.3540    2.1780 c2        1 ME4      0.383000
     19 C4          1.7720   -1.2680    2.6650 c2        1 ME4     -0.228000
     20 C5         -1.5190   -0.5120    1.4940 c2        1 ME4     -0.129000
     21 C6         -2.1840    0.1660    0.5470 c2        1 ME4     -0.148000
     22 N7         -3.6500    0.2200    0.5280 ny        1 ME4     -0.087000
     23 O9         -4.0950   -0.2840   -1.6890 o         1 ME4     -0.229000
     24 N16        -6.7590   -3.6940    2.6380 ny        1 ME4     -0.011000
     25 Cl17       -6.7570   -7.2410    0.8470 cl        1 ME4      0.282000
     26 C18        -5.3450   -5.2390   -0.4580 c2        1 ME4     -0.469000
     27 N20        -1.0560    2.2530   -0.1640 ns        1 ME4     -0.367000
     28 O22        -3.1700    3.0780    0.1420 o         1 ME4     -0.381000
     29 C23        -1.3890    4.7150    0.0590 c3        1 ME4     -0.138000
     30 C25        -0.4750    6.0640    1.9410 c2        1 ME4     -0.219000
     31 C26        -1.4550    7.1320    1.7180 c2        1 ME4      0.256000
     32 C28        -2.4990    5.7050    0.0160 c2        1 ME4     -0.010500
     33 O35        -3.5670    9.0480    2.3790 o         1 ME4     -0.228000
     34 H1         -2.2350    1.0670   -1.4340 h1        1 ME4      0.143000
     35 H21         0.4950   -0.0210   -0.3830 hc        1 ME4      0.113000
     36 H22         0.0830    0.5700   -2.0520 hc        1 ME4      0.113000
     37 H31A        2.2120   -1.3930    0.5830 ha        1 ME4      0.115500
     38 H32A       -0.7140   -0.9190   -1.4000 hc        1 ME4      0.113000
     39 H11        -5.4870   -1.4520    1.8600 ha        1 ME4      0.100000
     40 H15        -7.5920   -3.1010    2.6390 hn        1 ME4      0.247500
     41 H19        -4.8680   -2.6850   -0.9460 ha        1 ME4      0.200000
     42 H24        -0.7870    4.8710   -0.9000 hc        1 ME4      0.191000
     43 H27        -3.3590    7.5380    0.6610 ha        1 ME4      0.187500
     44 H30         0.6980    8.3320    2.8790 h1        1 ME4      0.200500
     45 H31        -0.2780    9.7340    3.5030 h1        1 ME4      0.200500
     46 H32        -1.1630    7.4680    5.0850 ha        1 ME4      0.117000
     47 H33        -0.8430   10.7740    1.4810 ha        1 ME4      0.225000
     48 H41         2.2780    0.3030    1.3180 ha        1 ME4      0.115500
     49 H42        -0.4130   -0.5500    1.5060 ha        1 ME4      0.165500
     50 H51         1.6170   -2.3440    2.8310 ha        1 ME4      0.115500
     51 H52         1.6830   -0.6490    3.5680 ha        1 ME4      0.115500
     52 H6         -2.0040   -1.0790    2.3040 ha        1 ME4      0.165500
     53 HN7        -4.0160   -0.0290    1.4470 hn        1 ME4      0.254500
     54 HN16       -6.2070   -3.5160    3.4770 hn        1 ME4      0.247500
     55 H18        -4.7280   -4.6280   -1.1330 ha        1 ME4      0.192000
     56 HN20        0.2830    4.1520    1.4010 ha        1 ME4      0.184000
     57 H25         0.2600    6.1840    2.7570 ha        1 ME4      0.187500
     58 H28        -3.3280    5.4720   -0.6810 ha        1 ME4      0.184000
     59 C8         -4.2380   -0.7170   -0.5490 c2        1 ME4      0.329000
     60 C21        -1.9450    3.2850    0.0190 c2        1 ME4      0.332000
     61 H72        -3.9290    1.1920    0.3020 hn        1 ME4      0.254500
     62 H202       -0.0850    2.4500   -0.2550 hn        1 ME4      0.245000
@<TRIPOS>BOND
     1    1    2 1   
     2    1   21 1   
     3    1   27 1   
     4    1   34 1   
     5    2   35 1   
     6    2   36 1   
     7    2   38 1   
     8    3   19 1   
     9    3   37 1   
    10    3   48 1   
    11    4    5 1   
    12    4   41 1   
    13    4   59 1   
    14    5    6 1   
    15    5   39 1   
    16    6    7 1   
    17    6   24 1   
    18    7    8 1   
    19    7   26 1   
    20    8    9 1   
    21    8   25 1   
    22    9   24 1   
    23   10   26 1   
    24   11   29 1   
    25   11   30 1   
    26   11   56 1   
    27   12   31 1   
    28   12   32 1   
    29   12   43 1   
    30   13   14 1   
    31   13   18 1   
    32   13   31 1   
    33   14   15 1   
    34   14   44 1   
    35   14   45 1   
    36   15   46 1   
    37   16   17 1   
    38   17   18 1   
    39   17   47 1   
    40   18   33 1   
    41   19   50 1   
    42   19   51 1   
    43   20   21 1   
    44   20   49 1   
    45   20   52 1   
    46   21   22 1   
    47   22   53 1   
    48   22   59 1   
    49   22   61 1   
    50   23   59 1   
    51   24   40 1   
    52   24   54 1   
    53   26   55 1   
    54   27   60 1   
    55   27   62 1   
    56   28   60 1   
    57   29   32 1   
    58   29   42 1   
    59   29   60 1   
    60   30   31 1   
    61   30   57 1   
    62   32   58 1   
@<TRIPOS>SUBSTRUCTURE
     1 ME4         1 TEMP              0 ****  ****    0 ROOT
