@<TRIPOS>MOLECULE
ME4
   60    64     1     0     0
SMALL
bcc


@<TRIPOS>ATOM
      1 C1         -1.1580    0.0670    2.6190 c3        1 ME4      0.071700
      2 C2         -1.7940   -0.0720    1.2260 c3        1 ME4     -0.099400
      3 C3         -0.8350   -0.6370    0.2020 c3        1 ME4     -0.081400
      4 C10        -0.2130   -1.7180    6.8140 ca        1 ME4     -0.118600
      5 C11         1.1490   -1.9010    7.0270 ca        1 ME4     -0.117000
      6 C12         1.6270   -1.7340    8.3360 ca        1 ME4     -0.053200
      7 C13         0.7340   -1.3790    9.4180 ca        1 ME4     -0.067800
      8 C14         1.5610   -1.2910   10.6020 cc        1 ME4     -0.056800
      9 C15         2.8740   -1.5850   10.2240 cd        1 ME4     -0.089100
     10 C19        -1.0910   -1.3850    7.8670 ca        1 ME4     -0.109000
     11 C24         0.3250    4.6880    2.9420 ca        1 ME4     -0.081500
     12 C27         3.0380    4.0150    2.9870 ca        1 ME4     -0.137500
     13 N29         3.6360    6.3890    2.6990 n         1 ME4     -0.263200
     14 C30         3.4350    7.5880    3.3660 cc        1 ME4      0.012600
     15 C31         4.3040    8.6410    3.2650 cd        1 ME4     -0.244000
     16 C32         5.4650    8.5170    2.4410 cd        1 ME4     -0.038000
     17 C33         5.7000    7.3570    1.7800 cc        1 ME4     -0.253200
     18 C34         4.7900    6.2120    1.8840 c         1 ME4      0.691700
     19 C4         -0.2720   -1.9680    0.6500 c3        1 ME4     -0.079400
     20 C5          0.3710   -1.8770    2.0170 c3        1 ME4     -0.086400
     21 C6         -0.6360   -1.3460    3.0500 c3        1 ME4      0.091700
     22 N7         -0.0990   -1.3650    4.3890 n         1 ME4     -0.558900
     23 O9         -1.8750   -2.5160    5.2840 o         1 ME4     -0.600100
     24 N16         2.9210   -1.8450    8.8550 na        1 ME4     -0.187400
     25 CL17        1.0420   -0.9080   12.1410 cl        1 ME4     -0.056400
     26 C18        -0.6270   -1.2090    9.1610 ca        1 ME4     -0.082000
     27 N20        -0.1280    1.0780    2.6890 n         1 ME4     -0.559900
     28 O22        -1.4110    2.5780    3.8700 o         1 ME4     -0.595100
     29 C23         0.7120    3.3510    3.0920 ca        1 ME4     -0.146600
     30 C25         1.2810    5.6870    2.8000 ca        1 ME4     -0.137500
     31 C26         2.6550    5.3630    2.8260 ca        1 ME4      0.054600
     32 C28         2.0690    3.0240    3.1150 ca        1 ME4     -0.081500
     33 O35         4.9870    5.1270    1.3050 o         1 ME4     -0.630500
     34 H1         -1.9780    0.3680    3.3420 h1        1 ME4      0.099700
     35 H21        -2.1720    0.9250    0.8820 hc        1 ME4      0.055700
     36 H22        -2.6810   -0.7520    1.3250 hc        1 ME4      0.055700
     37 H31A        0.0040    0.0860    0.0200 hc        1 ME4      0.041700
     38 H32A       -1.3710   -0.7690   -0.7740 hc        1 ME4      0.041700
     39 H11         1.8290   -2.1820    6.2120 ha        1 ME4      0.139000
     40 H15         3.7780   -1.6220   10.8360 h4        1 ME4      0.178000
     41 H19        -2.1640   -1.2760    7.6410 ha        1 ME4      0.156000
     42 H24        -0.7480    4.9420    2.9430 ha        1 ME4      0.150000
     43 H27         4.1050    3.7370    2.9880 ha        1 ME4      0.155000
     44 H30         2.5310    7.6430    4.0020 h4        1 ME4      0.160000
     45 H31         4.1160    9.5720    3.8140 ha        1 ME4      0.154000
     46 H32         6.1510    9.3740    2.3600 ha        1 ME4      0.143000
     47 H33         6.5730    7.1970    1.1320 ha        1 ME4      0.165000
     48 H41        -1.0960   -2.7310    0.6760 hc        1 ME4      0.046700
     49 H42         0.4890   -2.3230   -0.0930 hc        1 ME4      0.046700
     50 H51         0.7210   -2.8970    2.3270 hc        1 ME4      0.044200
     51 H52         1.2750   -1.2170    1.9720 hc        1 ME4      0.044200
     52 H6         -1.5440   -2.0260    3.0340 h1        1 ME4      0.097700
     53 HN7         0.6510   -0.7460    4.5830 hn        1 ME4      0.310500
     54 HN16        3.7190   -2.1190    8.3480 hn        1 ME4      0.303700
     55 H18        -1.3140   -0.9450    9.9780 ha        1 ME4      0.149000
     56 HN20        0.6230    0.9860    2.0460 hn        1 ME4      0.306500
     57 H25         0.9510    6.7280    2.6600 ha        1 ME4      0.155000
     58 H28         2.3950    1.9810    3.2510 ha        1 ME4      0.150000
     59 C8         -0.8060   -1.8970    5.4550 c         1 ME4      0.671700
     60 C21        -0.3620    2.3250    3.2450 c         1 ME4      0.666700
@<TRIPOS>BOND
     1    1    2 1   
     2    1   21 1   
     3    1   27 1   
     4    1   34 1   
     5    2    3 1   
     6    2   35 1   
     7    2   36 1   
     8    3   19 1   
     9    3   37 1   
    10    3   38 1   
    11    4    5 ar  
    12    4   10 ar  
    13    4   59 1   
    14    5    6 ar  
    15    5   39 1   
    16    6    7 ar  
    17    6   24 1   
    18    7    8 1   
    19    7   26 ar  
    20    8    9 2   
    21    8   25 1   
    22    9   24 1   
    23    9   40 1   
    24   10   26 ar  
    25   10   41 1   
    26   11   29 ar  
    27   11   30 ar  
    28   11   42 1   
    29   12   31 ar  
    30   12   32 ar  
    31   12   43 1   
    32   13   14 1   
    33   13   18 1   
    34   13   31 1   
    35   14   15 2   
    36   14   44 1   
    37   15   16 1   
    38   15   45 1   
    39   16   17 2   
    40   16   46 1   
    41   17   18 1   
    42   17   47 1   
    43   18   33 2   
    44   19   20 1   
    45   19   48 1   
    46   19   49 1   
    47   20   21 1   
    48   20   50 1   
    49   20   51 1   
    50   21   22 1   
    51   21   52 1   
    52   22   53 1   
    53   22   59 1   
    54   23   59 2   
    55   24   54 1   
    56   26   55 1   
    57   27   56 1   
    58   27   60 1   
    59   28   60 2   
    60   29   32 ar  
    61   29   60 1   
    62   30   31 ar  
    63   30   57 1   
    64   32   58 1   
@<TRIPOS>SUBSTRUCTURE
     1 ME4         1 TEMP              0 ****  ****    0 ROOT
