@<TRIPOS>MOLECULE
ME4
   62    61     1     0     0
SMALL
bcc


@<TRIPOS>ATOM
      1 C1         -1.0230    1.1910   -0.8880 c3        1 ME4      0.041000
      2 C2         -0.3190   -0.0990   -1.3070 c3        1 ME4     -0.244000
      3 C3          1.4020    1.0490    1.0620 c3        1 ME4     -0.043000
      4 C10        -4.7990   -0.7390    0.4790 c2        1 ME4     -0.395000
      5 C11        -5.0030   -0.7590    1.8370 c2        1 ME4      0.103000
      6 C12        -5.9550   -1.5180    2.5250 c2        1 ME4     -0.314000
      7 C13        -7.0900   -2.1360    2.0190 c2        1 ME4      0.261000
      8 C14        -7.8350   -3.0820    2.8090 c2        1 ME4     -0.312000
      9 C15        -7.5630   -3.4840    4.0620 c1        1 ME4      0.230000
     10 C19        -8.7860   -2.5660    0.3250 c1        1 ME4      0.242000
     11 C24         2.5090    4.4680   -0.8020 c1        1 ME4     -0.291000
     12 C27        -0.5710    5.4910    1.0010 c1        1 ME4     -0.232000
     13 N29        -3.0250    6.0110    1.4620 n         1 ME4     -0.228000
     14 C30        -3.3920    7.4310    1.6380 c3        1 ME4     -0.109000
     15 C31        -3.4740    8.0190    2.9430 c1        1 ME4     -0.038000
     16 C32        -6.4270    4.5840    1.6500 c1        1 ME4      0.370000
     17 C33        -5.3480    5.3120    1.8950 c2        1 ME4     -0.561000
     18 C34        -3.9690    4.9830    1.5180 c2        1 ME4      0.439000
     19 C4          0.3190    0.5060    1.9610 c3        1 ME4     -0.188000
     20 C5         -1.1010    0.7260    1.6360 c2        1 ME4     -0.056000
     21 C6         -1.7000    1.0280    0.4660 c2        1 ME4     -0.156000
     22 N7         -3.1560    1.2100    0.4350 n4        1 ME4     -0.075000
     23 O9         -3.6060   -0.0190   -1.4720 o         1 ME4     -0.278000
     24 N16        -7.2200   -4.0010    5.0860 n2        1 ME4     -0.152000
     25 CL17       -9.1880   -3.7730    2.0000 cl        1 ME4      0.243000
     26 C18        -7.6830   -1.8950    0.7340 c2        1 ME4     -0.491000
     27 N20        -0.2540    2.4310   -0.9860 n3        1 ME4     -0.250000
     28 O22         1.2920    2.4710    0.8520 os        1 ME4     -0.148000
     29 C23         1.1200    4.4590   -0.4550 c3        1 ME4      0.067000
     30 C25         3.6650    4.5350   -1.1070 c1        1 ME4     -0.034000
     31 C26        -1.7280    5.7280    1.2200 c1        1 ME4     -0.009000
     32 C28         0.8280    5.2900    0.8040 c3        1 ME4     -0.031000
     33 O35        -3.6350    3.8020    1.2460 o         1 ME4     -0.478000
     34 H1         -1.8320    1.3410   -1.6880 h1        1 ME4      0.168000
     35 H21         0.0330   -0.6920   -0.4280 hc        1 ME4      0.123000
     36 H22         0.5380    0.0950   -1.9960 hc        1 ME4      0.123000
     37 H31A       -1.0680   -0.7290   -1.8570 hc        1 ME4      0.123000
     38 H32A        1.5050    0.5200    0.0830 h1        1 ME4      0.152000
     39 H11        -4.3240   -0.1820    2.4990 ha        1 ME4      0.094000
     40 H15        -7.3760   -3.9040    6.0590 hn        1 ME4      0.321000
     41 H19        -5.3570   -1.4440   -0.1700 ha        1 ME4      0.204000
     42 H24         0.5240    4.8900   -1.3170 hc        1 ME4      0.149000
     43 H27         1.2910    4.7930    1.7030 hc        1 ME4      0.147500
     44 H30        -2.6270    8.0700    1.0790 h1        1 ME4      0.185000
     45 H31        -4.3820    7.6070    1.1080 h1        1 ME4      0.185000
     46 H32        -3.2160    7.4870    3.8630 ha        1 ME4      0.095000
     47 H33        -5.5250    6.2530    2.4690 ha        1 ME4      0.225000
     48 H41         3.0030   -0.4170    3.8270 ha        1 ME4      0.000500
     49 H42         2.4860   -0.2470    3.4220 ha        1 ME4      0.000500
     50 H51         0.4870   -0.6110    2.0420 hc        1 ME4      0.159500
     51 H52         0.4920    0.9280    2.9970 hc        1 ME4      0.159500
     52 H6         -1.7350    0.5950    2.5440 ha        1 ME4      0.160000
     53 HN7        -3.5180    1.3430    1.3850 hn        1 ME4      0.261000
     54 HN16       -5.7690   -1.6350    3.6090 ha        1 ME4      0.139000
     55 H18        -7.2730   -1.1060    0.0800 ha        1 ME4      0.195000
     56 HN20        2.3950    0.9920    1.6100 h1        1 ME4      0.152000
     57 H25         4.6940    4.5980   -1.3830 ha        1 ME4      0.260000
     58 H28         1.3350    6.2920    0.6780 hc        1 ME4      0.147500
     59 C8         -3.8890    0.0420   -0.2750 c2        1 ME4      0.327000
     60 C21         0.6680    2.9980   -0.2090 c2        1 ME4      0.315000
     61 H72        -3.3610    2.0810   -0.0800 hn        1 ME4      0.261000
     62 H202       -0.5280    2.9900   -1.7830 hn        1 ME4      0.285000
@<TRIPOS>BOND
     1    1    2 1   
     2    1   21 1   
     3    1   27 1   
     4    1   34 1   
     5    2   35 1   
     6    2   36 1   
     7    2   37 1   
     8    3   19 1   
     9    3   28 1   
    10    3   38 1   
    11    3   56 1   
    12    4    5 1   
    13    4   41 1   
    14    4   59 1   
    15    5    6 1   
    16    5   39 1   
    17    6    7 1   
    18    6   54 1   
    19    7    8 1   
    20    7   26 1   
    21    8    9 1   
    22    8   25 1   
    23    9   24 1   
    24   10   26 1   
    25   11   29 1   
    26   11   30 1   
    27   12   31 1   
    28   12   32 1   
    29   13   14 1   
    30   13   18 1   
    31   13   31 1   
    32   14   15 1   
    33   14   44 1   
    34   14   45 1   
    35   15   46 1   
    36   16   17 1   
    37   17   18 1   
    38   17   47 1   
    39   18   33 1   
    40   19   20 1   
    41   19   50 1   
    42   19   51 1   
    43   20   21 1   
    44   20   52 1   
    45   21   22 1   
    46   22   53 1   
    47   22   59 1   
    48   22   61 1   
    49   23   59 1   
    50   24   40 1   
    51   26   55 1   
    52   27   60 1   
    53   27   62 1   
    54   28   60 1   
    55   29   32 1   
    56   29   42 1   
    57   29   60 1   
    58   30   57 1   
    59   32   43 1   
    60   32   58 1   
    61   48   49 1   
@<TRIPOS>SUBSTRUCTURE
     1 ME4         1 TEMP              0 ****  ****    0 ROOT
