@<TRIPOS>MOLECULE
ME5
   50    45     1     0     0
SMALL
bcc


@<TRIPOS>ATOM
      1 C1          0.0870    2.5550   -3.6290 c1        1 ME5      0.382000
      2 C2          2.2960    2.6930   -5.0710 c1        1 ME5     -0.076000
      3 C3          1.5980    2.5210   -3.7130 c2        1 ME5     -0.440000
      4 C7         -0.8350   -0.8520    0.8830 c1        1 ME5     -0.127000
      5 C8         -2.4040    3.8650   -1.3160 c3        1 ME5     -0.170000
      6 C10        -3.6410    3.6120   -0.8640 c3        1 ME5     -0.164000
      7 C12        -3.7640    2.0490   -0.8700 c3        1 ME5     -0.183000
      8 C13        -2.4940    1.5180   -1.7040 c3        1 ME5     -0.007000
      9 C14         1.3170   -1.7250    2.0980 c1        1 ME5     -0.118000
     10 C15         1.6580   -5.1110    2.7790 c1        1 ME5     -0.126250
     11 C16         0.5280   -2.8880    2.6580 c1        1 ME5      0.063000
     12 C19        -1.9930    2.5860   -2.2780 c3        1 ME5      0.007000
     13 C21         1.6620   -3.5540    4.7810 c1        1 ME5      0.330000
     14 C22        -1.6230   -2.0160    1.4430 c1        1 ME5     -0.069000
     15 C24         2.4110   -4.5900    5.5900 c1        1 ME5     -0.126250
     16 C17        -1.8460   -0.2400   -0.0600 c2        1 ME5      0.342000
     17 C44         0.6390   -0.7160    1.1980 c1        1 ME5     -0.094000
     18 N2          1.2760   -3.8410    3.3990 n1        1 ME5     -0.201000
     19 C18        -0.9420   -3.0320    2.3340 c2        1 ME5     -0.157000
     20 C23         2.4070   -6.1510    3.5830 c1        1 ME5     -0.126250
     21 C26         2.7950   -5.8650    4.9710 c1        1 ME5     -0.126250
     22 O1          1.3440   -2.4990    5.2920 o         1 ME5     -0.355000
     23 N4         -1.5110    0.9190   -0.8040 n         1 ME5     -0.371000
     24 O2         -2.9500   -0.7350   -0.1700 o         1 ME5     -0.354000
     25 N1         -0.5540    2.4740   -2.3660 n2        1 ME5     -0.360000
     26 O3         -0.5730    2.7190   -4.6360 o         1 ME5     -0.352000
     27 C4          3.6570    3.4810   -4.8860 c1        1 ME5     -0.160000
     28 S1          2.5440    3.2460   -2.4750 ss        1 ME5      0.600000
     29 C5          3.8650    3.8340   -3.4040 c2        1 ME5     -0.364000
     30 CL1         5.4710    3.8430   -2.7280 cl        1 ME5      0.056000
     31 H2          2.2250    1.9940   -5.7480 ha        1 ME5      0.181000
     32 H81        -1.7790    3.9350   -0.5640 hc        1 ME5      0.089500
     33 H82        -2.3990    4.6940   -1.8370 hc        1 ME5      0.089500
     34 H101       -3.7490    3.9580    0.0460 hc        1 ME5      0.085500
     35 H102       -4.3090    4.0080   -1.4610 hc        1 ME5      0.085500
     36 H121       -3.7360    1.7040    0.0450 hc        1 ME5      0.096000
     37 H122       -4.5940    1.7760   -1.3090 hc        1 ME5      0.096000
     38 H13        -2.7770    0.8710   -2.3800 h1        1 ME5      0.143000
     39 H14         2.2670   -1.6370    2.3010 ha        1 ME5      0.167000
     40 H15         1.4000   -5.3000    1.8580 ha        1 ME5      0.155750
     41 H19        -2.3770    2.7000   -3.1710 h1        1 ME5      0.140000
     42 H22        -2.5720   -2.1080    1.2340 ha        1 ME5      0.160000
     43 H24         2.6680   -4.3980    6.5110 ha        1 ME5      0.155750
     44 H44         1.1470    0.0350    0.8360 ha        1 ME5      0.139000
     45 H18        -1.4510   -3.7830    2.6950 ha        1 ME5      0.144000
     46 H23         2.6610   -6.9980    3.1690 ha        1 ME5      0.155750
     47 H26         3.2790   -6.5350    5.4910 ha        1 ME5      0.155750
     48 HN4        -0.6960    1.3100   -0.6950 hn        1 ME5      0.219000
     49 HN1        -0.0560    2.4070   -1.6060 hn        1 ME5      0.217000
     50 H4          4.4250    3.2680   -5.4500 ha        1 ME5      0.171000
@<TRIPOS>BOND
     1    1    3 1   
     2    1   26 1   
     3    2    3 1   
     4    2   31 1   
     5    3   28 1   
     6    4   16 1   
     7    4   17 1   
     8    5    6 1   
     9    5   12 1   
    10    5   32 1   
    11    5   33 1   
    12    6    7 1   
    13    6   34 1   
    14    6   35 1   
    15    7    8 1   
    16    7   36 1   
    17    7   37 1   
    18    8   12 1   
    19    8   23 1   
    20    8   38 1   
    21    9   11 1   
    22    9   39 1   
    23   10   20 1   
    24   10   40 1   
    25   11   19 1   
    26   12   25 1   
    27   12   41 1   
    28   13   18 1   
    29   13   22 1   
    30   14   19 1   
    31   14   42 1   
    32   15   21 1   
    33   15   43 1   
    34   16   23 1   
    35   16   24 1   
    36   17   44 1   
    37   19   45 1   
    38   20   46 1   
    39   21   47 1   
    40   23   48 1   
    41   25   49 1   
    42   27   29 1   
    43   27   50 1   
    44   28   29 1   
    45   29   30 1   
@<TRIPOS>SUBSTRUCTURE
     1 ME5         1 TEMP              0 ****  ****    0 ROOT
