@<TRIPOS>MOLECULE
ME5
   52    74     1     0     0
SMALL
bcc


@<TRIPOS>ATOM
      1 C1          0.0000    0.0000    0.0000 c3        1 ME5      0.215000
      2 C2          2.2890    0.0000    1.0750 c2        1 ME5     -0.056000
      3 C3          1.4850    0.0000    0.0000 c3        1 ME5     -0.644000
      4 C7         -2.0000    3.7080    1.3880 DU        1 ME5     -0.282000
      5 C8         -2.4590   -0.6430   -2.7230 DU        1 ME5      0.304000
      6 C10        -2.2980    0.4440   -3.7880 DU        1 ME5     -0.157000
      7 C12        -2.3300    1.7830   -3.0470 DU        1 ME5      0.045000
      8 C13        -2.6110    1.4380   -1.5850 DU        1 ME5      0.103000
      9 C14        -0.0270    4.9100    1.9960 c2        1 ME5      0.012500
     10 C15        -0.6010    6.9680    4.9990 c2        1 ME5     -0.208000
     11 C16        -0.7720    5.6470    2.9170 c2        1 ME5     -0.217000
     12 C19        -2.0480    0.0250   -1.4150 DU        1 ME5      0.247000
     13 C21         0.9830    7.3810    3.1990 c3        1 ME5      0.363000
     14 C22        -2.7580    4.4210    2.2930 c3        1 ME5     -0.244500
     15 C24         1.6180    8.3830    4.1100 c3        1 ME5      0.121000
     16 C44        -0.6480    3.9300    1.2220 c3        1 ME5     -0.244500
     17 N2         -0.1250    6.6670    3.7210 n3        1 ME5      0.421000
     18 C18        -2.1370    5.4030    3.0650 c2        1 ME5      0.012500
     19 C23        -0.0350    7.8910    5.7830 c2        1 ME5      0.318000
     20 C26         1.1120    8.6140    5.3240 c2        1 ME5      0.471000
     21 N4         -2.0740    2.4010   -0.6650 ny        1 ME5     -0.059000
     22 N1         -0.6140   -0.0000   -1.2480 ny        1 ME5      0.430000
     23 O3         -0.6010    0.0210    1.0710 o         1 ME5     -0.221000
     24 C4          3.6540   -0.0020    0.6640 c2        1 ME5     -0.145000
     25 S1          2.2620   -0.0030   -1.4950 ss        1 ME5      0.281000
     26 C5          3.7820   -0.0040   -0.7070 c2        1 ME5     -0.192000
     27 Cl1         5.2290   -0.0080   -1.6270 cl        1 ME5      0.335000
     28 H2          1.3930    0.4930    0.7170 DU        1 ME5      0.292000
     29 H81        -2.0130    0.2120   -2.2280 DU        1 ME5     -0.445000
     30 H82        -1.6540   -0.0350   -2.3280 DU        1 ME5     -0.445000
     31 H101       -1.6590    0.4410   -2.9140 ha        1 ME5      0.276000
     32 H102       -2.0560   -0.5280   -3.3760 DU        1 ME5      0.130000
     33 H121       -2.7420    0.7900   -2.9110 DU        1 ME5      0.188500
     34 H122       -2.7180    1.0790   -3.7730 DU        1 ME5      0.188500
     35 H13        -2.1850    1.0610   -2.5070 DU        1 ME5     -0.339000
     36 H14        -0.2760    4.4340    1.0550 DU        1 ME5      0.210500
     37 H19        -2.4040    0.8030   -2.0790 DU        1 ME5     -0.119000
     38 H22        -2.9570    3.7530    1.4640 DU        1 ME5      0.387500
     39 H24         1.4630    7.4960    3.5080 DU        1 ME5      0.041000
     40 H44        -1.0510    2.9970    0.8470 DU        1 ME5      0.387500
     41 H18        -2.9800    4.8140    2.7230 DU        1 ME5      0.210500
     42 H23         0.7840    8.2080    5.1480 DU        1 ME5     -0.297000
     43 H26         0.9360    7.8260    4.6020 DU        1 ME5     -0.216000
     44 HN4        -2.1880    3.0300    0.1050 DU        1 ME5     -0.261000
     45 HN1        -0.5980    0.7110   -0.5440 DU        1 ME5      0.167000
     46 H4          3.4470    0.9220    1.1890 ha        1 ME5      0.192000
     47 C17        -2.6620    2.6650    0.5620 c3        1 ME5      0.451000
     48 O1          1.4480    7.2930    2.0620 o         1 ME5     -0.231000
     49 O2         -3.6780    2.1200    0.9860 o         1 ME5     -0.265000
     50 H42        -2.2060    3.2600   -1.1620 hn        1 ME5      0.121000
     51 H12        -0.0650   -0.3150   -2.0240 hn        1 ME5      0.146000
     52 H15        -1.4800    6.4430    5.3540 h4        1 ME5      0.217000
@<TRIPOS>BOND
     1    1    3 1   
     2    1   22 1   
     3    1   23 1   
     4    1   45 1   
     5    2    3 1   
     6    2   24 1   
     7    2   28 1   
     8    3   25 1   
     9    3   28 1   
    10    4   14 1   
    11    4   16 1   
    12    4   38 1   
    13    4   40 1   
    14    4   47 1   
    15    5    6 1   
    16    5   12 1   
    17    5   29 1   
    18    5   30 1   
    19    5   32 1   
    20    6    7 1   
    21    6   31 1   
    22    6   32 1   
    23    6   33 1   
    24    6   34 1   
    25    7    8 1   
    26    7   33 1   
    27    7   34 1   
    28    7   35 1   
    29    8   12 1   
    30    8   21 1   
    31    8   35 1   
    32    8   37 1   
    33    9   11 1   
    34    9   16 1   
    35    9   36 1   
    36   10   17 1   
    37   10   19 1   
    38   10   52 1   
    39   11   17 1   
    40   11   18 1   
    41   12   22 1   
    42   12   29 1   
    43   12   30 1   
    44   12   37 1   
    45   13   15 1   
    46   13   17 1   
    47   13   39 1   
    48   13   48 1   
    49   14   18 1   
    50   14   38 1   
    51   14   41 1   
    52   15   20 1   
    53   15   39 1   
    54   15   43 1   
    55   16   36 1   
    56   16   40 1   
    57   18   41 1   
    58   19   20 1   
    59   19   42 1   
    60   20   43 1   
    61   21   44 1   
    62   21   47 1   
    63   21   50 1   
    64   22   45 1   
    65   22   51 1   
    66   24   26 1   
    67   24   46 1   
    68   25   26 1   
    69   26   27 1   
    70   29   30 1   
    71   35   37 1   
    72   42   43 1   
    73   44   47 1   
    74   47   49 1   
@<TRIPOS>SUBSTRUCTURE
     1 ME5         1 TEMP              0 ****  ****    0 ROOT
