@<TRIPOS>MOLECULE
ME5
   50    49     1     0     0
SMALL
bcc


@<TRIPOS>ATOM
      1 C1          0.3800   -1.7050    0.1900 c2        1 ME5      0.374000
      2 C2          2.3900   -3.0020   -0.5570 c2        1 ME5     -0.082000
      3 C3          1.5580   -1.8990   -0.6750 c2        1 ME5     -0.440000
      4 C7         -0.6220    4.5970    0.7130 ca        1 ME5     -0.143000
      5 C8         -2.7990   -0.0720    0.3320 c1        1 ME5     -0.076000
      6 C10        -3.3330    0.0730   -3.4450 c3        1 ME5     -0.272000
      7 C12        -0.7930    2.7770   -3.8200 c1        1 ME5     -0.212000
      8 C13        -0.7630    3.4360   -2.8190 c1        1 ME5     -0.071000
      9 C14        -0.0400    6.7030    1.7550 ca        1 ME5     -0.146500
     10 C15        -0.7180    6.6330    5.3210 c2        1 ME5     -0.316000
     11 C16        -0.7450    6.3320    2.9210 ca        1 ME5      0.089000
     12 C19        -1.4680   -0.2190    0.8780 c3        1 ME5     -0.109000
     13 C21        -1.0170    8.5910    3.9030 c2        1 ME5      0.330000
     14 C22        -1.3110    4.2140    1.8690 ca        1 ME5     -0.073000
     15 C24        -1.2590    9.3670    5.1860 c3        1 ME5     -0.284000
     16 C44         0.0110    5.8410    0.6640 ca        1 ME5     -0.073000
     17 N2         -0.8100    7.1990    4.0430 n         1 ME5     -0.227000
     18 C18        -1.3830    5.0720    2.9600 ca        1 ME5     -0.146500
     19 C23        -0.8370    7.1950    6.5250 c1        1 ME5      0.128000
     20 C26        -1.8560   10.6720    4.9380 c1        1 ME5      0.016000
     21 N4         -0.7290    4.1800   -1.6980 n         1 ME5     -0.252000
     22 N1         -0.3700   -0.5600    0.0040 n         1 ME5     -0.395000
     23 O3          0.0520   -2.5600    1.0410 o         1 ME5     -0.376000
     24 C4          3.4550   -2.9650   -1.5010 c2        1 ME5     -0.163000
     25 S1          2.0690   -0.8720   -1.8970 ss        1 ME5      0.620000
     26 C5          3.3840   -1.8340   -2.2980 c2        1 ME5     -0.373000
     27 CL1         4.4590   -1.4470   -3.5180 cl        1 ME5      0.051000
     28 H2          2.2420   -3.8030    0.1740 ha        1 ME5      0.180000
     29 H81        -1.2370    0.7740    1.3880 h1        1 ME5      0.162500
     30 H82        -4.1100    0.3960   -2.7190 hc        1 ME5      0.068250
     31 H101       -3.8070   -0.1200   -4.4320 hc        1 ME5      0.068250
     32 H102       -2.9730   -0.2590   -0.7380 ha        1 ME5      0.059000
     33 H121       -2.8480   -0.8590   -3.0790 hc        1 ME5      0.068250
     34 H122       -2.5670    0.8740   -3.5500 hc        1 ME5      0.068250
     35 H13        -0.8180    2.2040   -4.7100 ha        1 ME5      0.241000
     36 H14         0.4580    7.6850    1.6920 ha        1 ME5      0.158500
     37 H15        -0.4750    5.5400    5.3400 h4        1 ME5      0.202000
     38 H19        -1.5520   -1.0030    1.7020 h1        1 ME5      0.162500
     39 H22        -1.9530    4.7580    3.8490 ha        1 ME5      0.158500
     40 H24        -2.0630    8.8600    5.8210 hc        1 ME5      0.152000
     41 H44         0.5770    6.1500   -0.2300 ha        1 ME5      0.151500
     42 H18        -1.7980    3.2260    1.9090 ha        1 ME5      0.151500
     43 H23        -1.6420   11.4250    5.7150 ha        1 ME5      0.046000
     44 H26        -0.2950    9.3780    5.7750 hc        1 ME5      0.152000
     45 HN4        -0.9280    5.1520   -1.7940 hn        1 ME5      0.253000
     46 HN1        -0.0200    0.1700   -0.5740 hn        1 ME5      0.236000
     47 H4          4.2230   -3.7390   -1.5760 ha        1 ME5      0.168000
     48 C17        -0.5690    3.6370   -0.4220 c2        1 ME5      0.372000
     49 O1         -0.9550    9.1250    2.7890 o         1 ME5     -0.290000
     50 O2         -0.4040    2.4150   -0.2510 o         1 ME5     -0.363000
@<TRIPOS>BOND
     1    1    3 1   
     2    1   22 1   
     3    1   23 1   
     4    2    3 1   
     5    2   24 1   
     6    2   28 1   
     7    3   25 1   
     8    4   14 1   
     9    4   16 1   
    10    4   48 1   
    11    5   12 1   
    12    5   32 1   
    13    6   30 1   
    14    6   31 1   
    15    6   33 1   
    16    6   34 1   
    17    7    8 1   
    18    7   35 1   
    19    8   21 1   
    20    9   11 1   
    21    9   16 1   
    22    9   36 1   
    23   10   17 1   
    24   10   19 1   
    25   10   37 1   
    26   11   17 1   
    27   11   18 1   
    28   12   22 1   
    29   12   29 1   
    30   12   38 1   
    31   13   15 1   
    32   13   17 1   
    33   13   49 1   
    34   14   18 1   
    35   14   42 1   
    36   15   20 1   
    37   15   40 1   
    38   15   44 1   
    39   16   41 1   
    40   18   39 1   
    41   20   43 1   
    42   21   45 1   
    43   21   48 1   
    44   22   46 1   
    45   24   26 1   
    46   24   47 1   
    47   25   26 1   
    48   26   27 1   
    49   48   50 1   
@<TRIPOS>SUBSTRUCTURE
     1 ME5         1 TEMP              0 ****  ****    0 ROOT
