@<TRIPOS>MOLECULE
ME5
   50    53     1     0     0
SMALL
bcc


@<TRIPOS>ATOM
      1 C1          3.4290   -3.9430   -1.8520 c         1 ME5      0.702700
      2 C2          5.6800   -4.3750   -2.8640 cc        1 ME5     -0.074000
      3 C3          4.8880   -3.7420   -1.9190 cd        1 ME5     -0.199700
      4 C7          1.6120   -6.2600    2.7270 ca        1 ME5     -0.142600
      5 C8          0.6630   -1.8190   -1.3870 c3        1 ME5     -0.106400
      6 C10         0.4780   -0.9480   -0.1530 c3        1 ME5     -0.084400
      7 C12         0.6570   -1.8330    1.0720 c3        1 ME5     -0.096400
      8 C13         0.7010   -3.2850    0.5480 c3        1 ME5      0.088700
      9 C14         3.6560   -7.5130    3.0670 ca        1 ME5     -0.136500
     10 C15         3.2640  -10.0760    5.5780 cc        1 ME5      0.014600
     11 C16         3.1350   -8.0520    4.2620 ca        1 ME5      0.052600
     12 C19         1.2840   -3.1510   -0.9090 c3        1 ME5      0.074700
     13 C21         5.2840   -8.7470    5.2940 c         1 ME5      0.691700
     14 C22         1.0850   -6.7990    3.9050 ca        1 ME5     -0.082000
     15 C24         5.9560   -9.7270    6.1520 cc        1 ME5     -0.254200
     16 C44         2.8960   -6.6230    2.3130 ca        1 ME5     -0.082000
     17 N2          3.8990   -8.9670    5.0420 n         1 ME5     -0.263200
     18 C18         1.8370   -7.6790    4.6750 ca        1 ME5     -0.136500
     19 C23         3.9140  -10.9860    6.3690 cd        1 ME5     -0.245000
     20 C26         5.2980  -10.7960    6.6650 cd        1 ME5     -0.038000
     21 N4          1.3800   -4.2090    1.4070 n         1 ME5     -0.552900
     22 N1          2.7250   -3.1590   -0.9480 n         1 ME5     -0.564900
     23 O3          2.8600   -4.8070   -2.5470 o         1 ME5     -0.587100
     24 C4          7.0530   -4.0230   -2.7270 cc        1 ME5     -0.162000
     25 S1          5.8020   -2.7660   -0.9050 ss        1 ME5      0.059200
     26 C5          7.2460   -3.1380   -1.6790 cd        1 ME5     -0.011700
     27 CL1         8.7180   -2.5020   -1.2110 cl        1 ME5     -0.017400
     28 H2          5.2950   -5.0650   -3.6220 ha        1 ME5      0.181000
     29 H81        -0.3270   -2.0430   -1.8580 hc        1 ME5      0.056700
     30 H82         1.2930   -1.3110   -2.1560 hc        1 ME5      0.056700
     31 H101       -0.5380   -0.4790   -0.1560 hc        1 ME5      0.045200
     32 H102        1.2260   -0.1150   -0.1430 hc        1 ME5      0.045200
     33 H121        1.6030   -1.5690    1.6080 hc        1 ME5      0.050200
     34 H122       -0.1860   -1.7090    1.7940 hc        1 ME5      0.050200
     35 H13        -0.3650   -3.6460    0.4220 h1        1 ME5      0.098700
     36 H14         4.6760   -7.7730    2.7380 ha        1 ME5      0.154500
     37 H15         2.1950  -10.1940    5.3180 h4        1 ME5      0.160000
     38 H19         0.9100   -4.0090   -1.5390 h1        1 ME5      0.103700
     39 H22         0.0650   -6.5220    4.2160 ha        1 ME5      0.152000
     40 H24         7.0200   -9.5250    6.3400 ha        1 ME5      0.165000
     41 H44         3.3170   -6.2280    1.3750 ha        1 ME5      0.152000
     42 H18         1.4100   -8.0740    5.6100 ha        1 ME5      0.154500
     43 H23         3.3800  -11.8560    6.7700 ha        1 ME5      0.154000
     44 H26         5.8080  -11.5300    7.3090 ha        1 ME5      0.142000
     45 HN4         2.3580   -4.0990    1.5280 hn        1 ME5      0.314500
     46 HN1         3.1760   -2.3680   -0.5520 hn        1 ME5      0.300500
     47 H4          7.8430   -4.4120   -3.3740 ha        1 ME5      0.172000
     48 C17         0.7610   -5.3270    1.9330 c         1 ME5      0.676700
     49 O1          5.8620   -7.7640    4.7950 o         1 ME5     -0.630500
     50 O2         -0.4630   -5.5270    1.7870 o         1 ME5     -0.604100
@<TRIPOS>BOND
     1    1    3 1   
     2    1   22 1   
     3    1   23 2   
     4    2    3 2   
     5    2   24 1   
     6    2   28 1   
     7    3   25 1   
     8    4   14 ar  
     9    4   16 ar  
    10    4   48 1   
    11    5    6 1   
    12    5   12 1   
    13    5   29 1   
    14    5   30 1   
    15    6    7 1   
    16    6   31 1   
    17    6   32 1   
    18    7    8 1   
    19    7   33 1   
    20    7   34 1   
    21    8   12 1   
    22    8   21 1   
    23    8   35 1   
    24    9   11 ar  
    25    9   16 ar  
    26    9   36 1   
    27   10   17 1   
    28   10   19 2   
    29   10   37 1   
    30   11   17 1   
    31   11   18 ar  
    32   12   22 1   
    33   12   38 1   
    34   13   15 1   
    35   13   17 1   
    36   13   49 2   
    37   14   18 ar  
    38   14   39 1   
    39   15   20 2   
    40   15   40 1   
    41   16   41 1   
    42   18   42 1   
    43   19   20 1   
    44   19   43 1   
    45   20   44 1   
    46   21   45 1   
    47   21   48 1   
    48   22   46 1   
    49   24   26 2   
    50   24   47 1   
    51   25   26 1   
    52   26   27 1   
    53   48   50 2   
@<TRIPOS>SUBSTRUCTURE
     1 ME5         1 TEMP              0 ****  ****    0 ROOT
