@<TRIPOS>MOLECULE
ME7
   24    25     1     0     0
SMALL
bcc


@<TRIPOS>ATOM
      1 OAA         0.3020    1.0980   -0.0770 o         1 ME7     -0.288000
      2 OAB         3.5360   -1.2580   -2.4140 o         1 ME7     -0.233000
      3 OAD         1.5850    2.5970   -5.7490 o         1 ME7     -0.233000
      4 CAE         2.4510    0.1500    0.7020 c3        1 ME7     -0.324500
      5 CAF         3.5010   -0.5910   -0.0280 c1        1 ME7      0.143000
      6 CAG        -1.7390    1.3060   -6.1500 c3        1 ME7     -0.324500
      7 CAH        -0.5870    1.9890   -6.7770 c1        1 ME7      0.143000
      8 CAI         0.9100   -0.0080   -2.7400 c3        1 ME7     -0.038000
      9 CAJ         0.6480    1.4410   -3.2290 c3        1 ME7     -0.038000
     10 CAK         1.3410    0.4730   -0.3030 c2        1 ME7      0.283000
     11 CAL         2.9830   -0.7050   -1.4630 c2        1 ME7      0.204000
     12 CAM        -1.3530    1.0020   -4.6990 c2        1 ME7      0.283000
     13 CAN         0.4660    2.0880   -5.6700 c2        1 ME7      0.204000
     14 NAO         1.7160   -0.0650   -1.5550 n         1 ME7     -0.361000
     15 NAP        -0.0460    1.4960   -4.4830 n         1 ME7     -0.361000
     16 HAE         2.8690    1.0930    1.1510 hc        1 ME7      0.187500
     17 HAF         2.0490   -0.4660    1.5530 hc        1 ME7      0.187500
     18 HAG        -1.9880    0.3590   -6.7020 hc        1 ME7      0.187500
     19 HAH        -2.6540    1.9580   -6.1890 hc        1 ME7      0.187500
     20 HAI         1.4420   -0.5960   -3.5420 h1        1 ME7      0.119250
     21 HAIA       -0.0880   -0.4930   -2.5290 h1        1 ME7      0.119250
     22 HAJ         1.6260    1.9890   -3.3570 h1        1 ME7      0.119250
     23 HAJA        0.0300    1.9700   -2.4450 h1        1 ME7      0.119250
     24 OAC        -2.0450    0.4240   -3.8590 o         1 ME7     -0.288000
@<TRIPOS>BOND
     1    1   10 1   
     2    2   11 1   
     3    3   13 1   
     4    4    5 1   
     5    4   10 1   
     6    4   16 1   
     7    4   17 1   
     8    5   11 1   
     9    6    7 1   
    10    6   12 1   
    11    6   18 1   
    12    6   19 1   
    13    7   13 1   
    14    8    9 1   
    15    8   14 1   
    16    8   20 1   
    17    8   21 1   
    18    9   15 1   
    19    9   22 1   
    20    9   23 1   
    21   10   14 1   
    22   11   14 1   
    23   12   15 1   
    24   12   24 1   
    25   13   15 1   
@<TRIPOS>SUBSTRUCTURE
     1 ME7         1 TEMP              0 ****  ****    0 ROOT
