@<TRIPOS>MOLECULE
ME7
   24    24     1     0     0
SMALL
bcc


@<TRIPOS>ATOM
      1 OAA        -0.5350   -0.9650   -0.6000 o         1 ME7     -0.315000
      2 OAB         3.4580    0.7690   -2.1110 o         1 ME7     -0.294000
      3 OAD         1.4890    0.2470   -5.8890 o         1 ME7     -0.232000
      4 CAE         3.7850    0.1150    1.2330 c1        1 ME7     -0.093000
      5 CAF         3.2820    0.1870    0.1490 c1        1 ME7     -0.227000
      6 CAG        -1.7060    1.8520   -6.1820 c3        1 ME7     -0.323000
      7 CAH        -0.6090    1.1300   -6.8610 c1        1 ME7      0.139000
      8 CAI         0.9520   -0.0760   -2.7900 c3        1 ME7     -0.056000
      9 CAJ         0.6630    1.3640   -3.2870 c3        1 ME7     -0.036000
     10 CAK         0.6210   -0.5810   -0.3950 c2        1 ME7      0.268000
     11 CAL         2.7690    0.3080   -1.1860 c2        1 ME7      0.426000
     12 CAM        -1.3040    2.0060   -4.7120 c2        1 ME7      0.285000
     13 CAN         0.4220    0.8500   -5.7660 c2        1 ME7      0.201000
     14 NAO         1.4470   -0.1170   -1.4280 n         1 ME7     -0.342000
     15 NAP        -0.0400    1.3970   -4.5380 n         1 ME7     -0.359000
     16 HAE         1.0910   -0.5780    0.6160 h5        1 ME7      0.146000
     17 HAF         4.2280    0.0500    2.1970 ha        1 ME7      0.237000
     18 HAG        -2.6710    1.2820   -6.2720 hc        1 ME7      0.186500
     19 HAH        -1.8730    2.8570   -6.6560 hc        1 ME7      0.186500
     20 HAI         1.7280   -0.5330   -3.4710 h1        1 ME7      0.126000
     21 HAIA        0.0120   -0.6970   -2.8380 h1        1 ME7      0.126000
     22 HAJ         1.6520    1.8940   -3.4140 h1        1 ME7      0.119000
     23 HAJA        0.0430    1.9210   -2.5270 h1        1 ME7      0.119000
     24 OAC        -1.9490    2.5690   -3.8250 o         1 ME7     -0.289000
@<TRIPOS>BOND
     1    1   10 1   
     2    2   11 1   
     3    3   13 1   
     4    4    5 1   
     5    4   17 1   
     6    5   11 1   
     7    6    7 1   
     8    6   12 1   
     9    6   18 1   
    10    6   19 1   
    11    7   13 1   
    12    8    9 1   
    13    8   14 1   
    14    8   20 1   
    15    8   21 1   
    16    9   15 1   
    17    9   22 1   
    18    9   23 1   
    19   10   14 1   
    20   10   16 1   
    21   11   14 1   
    22   12   15 1   
    23   12   24 1   
    24   13   15 1   
@<TRIPOS>SUBSTRUCTURE
     1 ME7         1 TEMP              0 ****  ****    0 ROOT
