@<TRIPOS>MOLECULE
ME7
   24    21     1     0     0
SMALL
bcc


@<TRIPOS>ATOM
      1 OAA        -0.9350    1.1470    3.1420 o         1 ME7     -0.277000
      2 OAB         3.3090    0.4340    1.0380 o         1 ME7     -0.277000
      3 OAC         0.9120   -1.1610   -3.1720 o         1 ME7     -0.277000
      4 OAD        -3.2290   -1.0120   -0.8830 o         1 ME7     -0.277000
      5 CAE         1.3440    1.1470    3.7690 c1        1 ME7     -0.152000
      6 CAF         2.5050    1.1470    3.1420 c1        1 ME7     -0.152000
      7 CAG        -1.3720   -1.1080   -3.7770 c1        1 ME7     -0.152000
      8 CAH        -2.5260   -1.0650   -3.1390 c1        1 ME7     -0.152000
      9 CAI         0.1860    0.7300    0.2360 c3        1 ME7     -0.032000
     10 CAJ        -0.1670   -0.6730   -0.2620 c3        1 ME7     -0.032000
     11 CAK         0.2240    0.8520    2.9220 c1        1 ME7      0.326500
     12 CAL         2.4110    0.8510    1.7410 c1        1 ME7      0.326500
     13 CAM        -0.2360   -0.8320   -2.9450 c1        1 ME7      0.326500
     14 CAN        -2.4100   -0.7530   -1.7430 c1        1 ME7      0.326500
     15 NAO         0.8700    0.6340    1.5030 n3        1 ME7     -0.362000
     16 NAP        -0.8610   -0.5760   -1.5230 n3        1 ME7     -0.362000
     17 HAE         1.3040    0.9380    4.7220 ha        1 ME7      0.182000
     18 HAF         3.2410    1.6930    3.4770 ha        1 ME7      0.182000
     19 HAG        -1.2720   -1.6690   -4.5690 ha        1 ME7      0.182000
     20 HAH        -3.3430   -0.8410   -3.6230 ha        1 ME7      0.182000
     21 HAI        -0.6310    1.2520    0.3470 h1        1 ME7      0.118000
     22 HAIA        0.7670    1.1700   -0.4140 h1        1 ME7      0.118000
     23 HAJ         0.6510   -1.1920   -0.3800 h1        1 ME7      0.118000
     24 HAJA       -0.7410   -1.1150    0.3920 h1        1 ME7      0.118000
@<TRIPOS>BOND
     1    1   11 1   
     2    2   12 1   
     3    3   13 1   
     4    4   14 1   
     5    5    6 1   
     6    5   17 1   
     7    6   18 1   
     8    7    8 1   
     9    7   19 1   
    10    8   20 1   
    11    9   10 1   
    12    9   15 1   
    13    9   21 1   
    14    9   22 1   
    15   10   16 1   
    16   10   23 1   
    17   10   24 1   
    18   11   15 1   
    19   12   15 1   
    20   13   16 1   
    21   14   16 1   
@<TRIPOS>SUBSTRUCTURE
     1 ME7         1 TEMP              0 ****  ****    0 ROOT
