@<TRIPOS>MOLECULE
ME7
   24    25     1     0     0
SMALL
bcc


@<TRIPOS>ATOM
      1 OAA         2.4310    2.0600    1.2060 o         1 ME7     -0.552500
      2 OAB         2.0950   -2.0710   -0.8990 o         1 ME7     -0.552500
      3 OAD        -2.0970   -2.0680    0.9020 o         1 ME7     -0.552500
      4 CAE         4.0990    0.6620    0.0380 cc        1 ME7     -0.171200
      5 CAF         4.0020   -0.5390   -0.5650 cd        1 ME7     -0.171200
      6 CAG        -4.0980    0.6670   -0.0380 cc        1 ME7     -0.171200
      7 CAH        -4.0020   -0.5350    0.5670 cd        1 ME7     -0.171200
      8 CAI         0.4720   -0.0810    0.6170 c3        1 ME7      0.084000
      9 CAJ        -0.4720   -0.0820   -0.6160 c3        1 ME7      0.084000
     10 CAK         2.7390    1.0420    0.5880 c         1 ME7      0.688200
     11 CAL         2.5710   -1.0260   -0.4560 c         1 ME7      0.688200
     12 CAM        -2.7380    1.0440   -0.5880 c         1 ME7      0.688200
     13 CAN        -2.5710   -1.0220    0.4580 c         1 ME7      0.688200
     14 NAO         1.8580   -0.0260    0.2620 n         1 ME7     -0.533400
     15 NAP        -1.8580   -0.0250   -0.2610 n         1 ME7     -0.533400
     16 HAE         4.9550    1.3250    0.1660 ha        1 ME7      0.182000
     17 HAF         4.7560   -1.1410   -1.0720 ha        1 ME7      0.182000
     18 HAG        -4.9530    1.3300   -0.1660 ha        1 ME7      0.182000
     19 HAH        -4.7570   -1.1350    1.0740 ha        1 ME7      0.182000
     20 HAI         0.2500    0.8080    1.2730 h1        1 ME7      0.078700
     21 HAIA        0.2840   -1.0280    1.2040 h1        1 ME7      0.078700
     22 HAJ        -0.2490    0.8070   -1.2730 h1        1 ME7      0.078700
     23 HAJA       -0.2840   -1.0290   -1.2020 h1        1 ME7      0.078700
     24 OAC        -2.4280    2.0620   -1.2070 o         1 ME7     -0.552500
@<TRIPOS>BOND
     1    1   10 2   
     2    2   11 2   
     3    3   13 2   
     4    4    5 2   
     5    4   10 1   
     6    4   16 1   
     7    5   11 1   
     8    5   17 1   
     9    6    7 2   
    10    6   12 1   
    11    6   18 1   
    12    7   13 1   
    13    7   19 1   
    14    8    9 1   
    15    8   14 1   
    16    8   20 1   
    17    8   21 1   
    18    9   15 1   
    19    9   22 1   
    20    9   23 1   
    21   10   14 1   
    22   11   14 1   
    23   12   15 1   
    24   12   24 2   
    25   13   15 1   
@<TRIPOS>SUBSTRUCTURE
     1 ME7         1 TEMP              0 ****  ****    0 ROOT
