@<TRIPOS>MOLECULE
ME8
   55    57     1     0     0
SMALL
bcc


@<TRIPOS>ATOM
      1 O           1.4530   -3.6170   -0.5070 o         1 ME8     -0.494000
      2 N1          5.7090   -6.2770   -8.8350 nb        1 ME8     -0.686000
      3 O1          2.3790   -2.2850   -2.0210 os        1 ME8     -0.569500
      4 P1          1.6340   -1.2900   -3.1710 p5        1 ME8      1.538800
      5 C2          6.0450   -5.0280   -9.2570 ca        1 ME8      0.661900
      6 N2          0.8160   -0.7220    0.4840 n4        1 ME8     -0.848600
      7 N3          5.4930   -3.8310   -8.9130 nb        1 ME8     -0.617000
      8 C4          4.4760   -3.9260   -8.0280 ca        1 ME8      0.460800
      9 C5          4.0010   -5.2240   -7.4840 ca        1 ME8     -0.123200
     10 C6          4.6800   -6.3600   -7.9490 ca        1 ME8      0.494200
     11 N6          4.2510   -7.6800   -7.4520 n4        1 ME8     -0.811300
     12 N7          2.9420   -5.0160   -6.6010 nc        1 ME8     -0.609100
     13 C8          2.7590   -3.6780   -6.5840 cd        1 ME8      0.521700
     14 C9          1.9310   -2.5220   -0.7970 c         1 ME8      0.714100
     15 N9          3.6370   -2.9670   -7.4340 na        1 ME8     -0.266000
     16 CA          2.1210   -1.4220    0.2770 c3        1 ME8      0.036500
     17 CB          2.6550   -2.0660    1.5550 c3        1 ME8     -0.098400
     18 SD          3.8680   -1.9190    3.8790 ss        1 ME8     -0.242200
     19 CE          4.3140   -0.6360    4.9820 c3        1 ME8     -0.052000
     20 CG          2.9890   -1.0520    2.6170 c3        1 ME8     -0.047300
     21 C1'         3.7700   -1.5290   -7.6240 c3        1 ME8      0.208800
     22 O1S         1.3500   -2.0490   -4.3920 o         1 ME8     -0.837500
     23 C2'         2.4130   -0.7560   -7.5510 c3        1 ME8      0.091100
     24 O2'         2.2180   -0.0270   -8.7340 oh        1 ME8     -0.575800
     25 O2S         0.7300   -0.5800   -2.2450 o         1 ME8     -0.837500
     26 C3'         2.5450    0.1460   -6.3030 c3        1 ME8      0.091100
     27 O3'         2.5250    1.5070   -6.6860 oh        1 ME8     -0.586800
     28 C4'         3.9300   -0.1500   -5.7040 c3        1 ME8      0.107100
     29 O4'         4.6460   -0.9660   -6.6500 os        1 ME8     -0.404600
     30 C5'         3.8930   -0.9020   -4.3650 c3        1 ME8      0.176400
     31 O5'         2.9340   -0.3720   -3.4930 os        1 ME8     -0.575200
     32 HN2         0.5390   -0.2430   -0.4080 hn        1 ME8      0.473800
     33 HN2A        0.0960   -1.4070    0.7250 hn        1 ME8      0.473800
     34 HN6         4.2450   -7.6520   -6.4250 hn        1 ME8      0.474133
     35 HN6A        3.2960   -7.8570   -7.7880 hn        1 ME8      0.474133
     36 HA          2.8600   -0.6490   -0.0930 hx        1 ME8      0.125700
     37 HB          3.5850   -2.6350    1.2670 hc        1 ME8      0.104200
     38 HBA         1.9230   -2.8260    1.9430 hc        1 ME8      0.104200
     39 HE          4.8900   -1.1300    5.8010 h1        1 ME8      0.074033
     40 HEA         4.9600    0.1300    4.4990 h1        1 ME8      0.074033
     41 HEB         3.4260   -0.1300    5.4220 h1        1 ME8      0.074033
     42 HG          3.6190   -0.2270    2.2000 h1        1 ME8      0.055700
     43 HGA         2.0680   -0.5880    3.0480 h1        1 ME8      0.055700
     44 H1'         4.2820   -1.3690   -8.6230 h2        1 ME8      0.128700
     45 H2'         1.5220   -1.4370   -7.4750 h1        1 ME8      0.113700
     46 HO2'        2.8210    0.7340   -8.7250 ho        1 ME8      0.429000
     47 H3'         1.7330   -0.0860   -5.5600 h1        1 ME8      0.084700
     48 HO3'        1.6050    1.7340   -6.8750 ho        1 ME8      0.424000
     49 H4'         4.5340    0.7950   -5.6110 h1        1 ME8      0.114700
     50 H5'         4.9000   -0.7860   -3.8730 h1        1 ME8      0.051700
     51 H5'A        3.6880   -1.9940   -4.5500 h1        1 ME8      0.051700
     52 H8          1.9860   -3.1620   -5.9610 h5        1 ME8      0.175800
     53 H23         0.9050   -0.0410    1.2360 hn        1 ME8      0.473800
     54 H63         4.8780   -8.4240   -7.7800 hn        1 ME8      0.474133
     55 H2          6.8910   -4.9820   -9.9820 h5        1 ME8      0.093100
@<TRIPOS>BOND
     1    1   14 2   
     2    2    5 ar  
     3    2   10 ar  
     4    3    4 1   
     5    3   14 1   
     6    4   22 1   
     7    4   25 1   
     8    4   31 1   
     9    5    7 ar  
    10    5   55 1   
    11    6   16 1   
    12    6   32 1   
    13    6   33 1   
    14    6   53 1   
    15    7    8 ar  
    16    8    9 ar  
    17    8   15 1   
    18    9   10 ar  
    19    9   12 1   
    20   10   11 1   
    21   11   34 1   
    22   11   35 1   
    23   11   54 1   
    24   12   13 2   
    25   13   15 1   
    26   13   52 1   
    27   14   16 1   
    28   15   21 1   
    29   16   17 1   
    30   16   36 1   
    31   17   20 1   
    32   17   37 1   
    33   17   38 1   
    34   18   19 1   
    35   18   20 1   
    36   19   39 1   
    37   19   40 1   
    38   19   41 1   
    39   20   42 1   
    40   20   43 1   
    41   21   23 1   
    42   21   29 1   
    43   21   44 1   
    44   23   24 1   
    45   23   26 1   
    46   23   45 1   
    47   24   46 1   
    48   26   27 1   
    49   26   28 1   
    50   26   47 1   
    51   27   48 1   
    52   28   29 1   
    53   28   30 1   
    54   28   49 1   
    55   30   31 1   
    56   30   50 1   
    57   30   51 1   
@<TRIPOS>SUBSTRUCTURE
     1 ME8         1 TEMP              0 ****  ****    0 ROOT
