@<TRIPOS>MOLECULE
ME8
   53    55     1     0     0
SMALL
bcc


@<TRIPOS>ATOM
      1 O           2.9980   -1.8340   -1.8660 o         1 ME8     -0.596000
      2 N1         -3.5400    4.0050    0.0260 nb        1 ME8     -0.796000
      3 O1          2.4000   -1.5510    0.2000 os        1 ME8     -0.532500
      4 P1          1.4710   -2.9430   -0.1050 p5        1 ME8      1.453800
      5 C2         -4.2890    3.0780    0.6840 ca        1 ME8      0.658900
      6 N2          4.9370    0.2790   -1.7690 n3        1 ME8     -0.898800
      7 N3         -4.1450    1.7360    0.7660 nb        1 ME8     -0.719000
      8 C4         -3.0650    1.2770    0.0660 ca        1 ME8      0.451800
      9 C5         -2.1790    2.1480   -0.7030 ca        1 ME8     -0.209200
     10 C6         -2.4690    3.5480   -0.7010 ca        1 ME8      0.717200
     11 N6         -1.7100    4.4140   -1.4760 nh        1 ME8     -0.932500
     12 N7         -1.1680    1.3850   -1.3080 nc        1 ME8     -0.575100
     13 C8         -1.4060    0.1190   -0.9360 cd        1 ME8      0.435700
     14 C9          3.1340   -1.1550   -0.8340 c         1 ME8      0.634100
     15 N9         -2.5620   -0.0220   -0.1190 na        1 ME8     -0.277000
     16 CA          4.0640    0.0340   -0.6370 c3        1 ME8      0.118500
     17 CB          3.2130    1.2530   -0.2500 c3        1 ME8     -0.066400
     18 SD          3.0200    3.7370    0.6760 ss        1 ME8     -0.301200
     19 CE          4.1840    4.9410    1.1880 c3        1 ME8     -0.043000
     20 CG          4.0810    2.3890    0.2230 c3        1 ME8      0.000700
     21 C1'        -3.0330   -1.1940    0.5800 c3        1 ME8      0.249800
     22 O1S         0.3380   -2.5010   -0.9460 o         1 ME8     -0.810000
     23 C2'        -2.7870   -2.5300   -0.1870 c3        1 ME8      0.078100
     24 O2'        -4.0670   -3.0910   -0.4220 oh        1 ME8     -0.610800
     25 O2S         2.3560   -4.1030   -0.2120 o         1 ME8     -0.810000
     26 C3'        -1.9470   -3.3990    0.7750 c3        1 ME8      0.090100
     27 O3'        -2.7070   -4.4890    1.2540 oh        1 ME8     -0.595800
     28 C4'        -1.5030   -2.4410    1.8920 c3        1 ME8      0.080100
     29 O4'        -2.4120   -1.3270    1.8690 os        1 ME8     -0.426600
     30 C5'        -0.0640   -1.9230    1.7260 c3        1 ME8      0.190400
     31 O5'         0.8210   -2.9490    1.4150 os        1 ME8     -0.563200
     32 HN2         5.3670   -0.5830   -2.0520 hn        1 ME8      0.355300
     33 HN2A        4.4050    0.6300   -2.5440 hn        1 ME8      0.355300
     34 HN6        -0.8150    4.0710   -1.7410 hn        1 ME8      0.420800
     35 HN6A       -1.7590    5.3820   -1.2580 hn        1 ME8      0.420800
     36 HA          4.7280   -0.2290    0.2430 h1        1 ME8      0.083700
     37 HB          2.5870    1.5790   -1.1220 hc        1 ME8      0.077700
     38 HBA         2.5130    0.9310    0.5690 hc        1 ME8      0.077700
     39 HE          4.7930    4.5890    2.0500 h1        1 ME8      0.055367
     40 HEA         4.8750    5.2290    0.3640 h1        1 ME8      0.055367
     41 HEB         3.5970    5.8360    1.5000 h1        1 ME8      0.055367
     42 HG          4.6930    2.0740    1.1030 h1        1 ME8      0.062200
     43 HGA         4.7850    2.7160   -0.5810 h1        1 ME8      0.062200
     44 H1'        -4.1340   -1.0440    0.7980 h2        1 ME8      0.113700
     45 H2'        -2.2390   -2.3930   -1.1590 h1        1 ME8      0.110700
     46 HO2'       -3.9220   -4.0270   -0.6180 ho        1 ME8      0.420000
     47 H3'        -1.0550   -3.8490    0.2510 h1        1 ME8      0.138700
     48 HO3'       -3.4490   -4.1210    1.7510 ho        1 ME8      0.399000
     49 H4'        -1.6360   -2.9090    2.9030 h1        1 ME8      0.076700
     50 H5'        -0.0460   -1.1280    0.9280 h1        1 ME8      0.036200
     51 H5'A        0.2540   -1.4700    2.7070 h1        1 ME8      0.036200
     52 H2         -5.1500    3.4970    1.2470 h5        1 ME8      0.037100
     53 H8         -0.7940   -0.7640   -1.2300 h5        1 ME8      0.153800
@<TRIPOS>BOND
     1    1   14 2   
     2    2    5 ar  
     3    2   10 ar  
     4    3    4 1   
     5    3   14 1   
     6    4   22 1   
     7    4   25 1   
     8    4   31 1   
     9    5    7 ar  
    10    5   52 1   
    11    6   16 1   
    12    6   32 1   
    13    6   33 1   
    14    7    8 ar  
    15    8    9 ar  
    16    8   15 1   
    17    9   10 ar  
    18    9   12 1   
    19   10   11 1   
    20   11   34 1   
    21   11   35 1   
    22   12   13 2   
    23   13   15 1   
    24   13   53 1   
    25   14   16 1   
    26   15   21 1   
    27   16   17 1   
    28   16   36 1   
    29   17   20 1   
    30   17   37 1   
    31   17   38 1   
    32   18   19 1   
    33   18   20 1   
    34   19   39 1   
    35   19   40 1   
    36   19   41 1   
    37   20   42 1   
    38   20   43 1   
    39   21   23 1   
    40   21   29 1   
    41   21   44 1   
    42   23   24 1   
    43   23   26 1   
    44   23   45 1   
    45   24   46 1   
    46   26   27 1   
    47   26   28 1   
    48   26   47 1   
    49   27   48 1   
    50   28   29 1   
    51   28   30 1   
    52   28   49 1   
    53   30   31 1   
    54   30   50 1   
    55   30   51 1   
@<TRIPOS>SUBSTRUCTURE
     1 ME8         1 TEMP              0 ****  ****    0 ROOT
