@<TRIPOS>MOLECULE
ME8
   54    56     1     0     0
SMALL
bcc


@<TRIPOS>ATOM
      1 O          -0.6860   -1.7390    0.3170 o         1 ME8     -0.465000
      2 N1          4.6180   -5.8120  -10.0280 nb        1 ME8     -0.795000
      3 O1          0.5360   -1.8700   -1.5080 os        1 ME8     -0.635500
      4 P1          0.5780   -0.9970   -2.8530 p5        1 ME8      1.704500
      5 C2          4.3260   -4.5080  -10.2730 ca        1 ME8      0.693900
      6 N2          1.8800    0.3280    0.3040 n8        1 ME8     -0.923800
      7 N3          4.2940   -3.4470   -9.4310 nb        1 ME8     -0.762000
      8 C4          4.6130   -3.7900   -8.1460 ca        1 ME8      0.453800
      9 C5          4.9530   -5.1440   -7.7260 ca        1 ME8     -0.229200
     10 C6          4.9420   -6.1640   -8.7370 ca        1 ME8      0.768200
     11 N6          5.2590   -7.4550   -8.4180 nv        1 ME8     -0.958500
     12 N7          5.2380   -5.1620   -6.3520 nc        1 ME8     -0.545100
     13 C8          5.0850   -3.8940   -5.9450 cd        1 ME8      0.420700
     14 C9          0.4070   -1.5400   -0.1960 c         1 ME8      0.723100
     15 N9          4.6950   -3.0120   -6.9820 na        1 ME8     -0.292000
     16 CA          1.6880   -1.0920    0.5160 c3        1 ME8      0.096500
     17 CB          1.5990   -1.5560    1.9780 c3        1 ME8     -0.105400
     18 SD          2.7500   -2.0550    4.2990 ss        1 ME8     -0.269200
     19 CE          4.2800   -1.6410    5.0400 c3        1 ME8     -0.048000
     20 CG          2.8780   -1.2720    2.7190 c3        1 ME8     -0.024300
     21 C1'         4.5430   -1.5760   -6.9310 c3        1 ME8      0.223800
     22 O1S         0.2320    0.4510   -2.3250 oh        1 ME8     -0.763400
     23 C2'         3.1890   -1.0620   -7.5270 c3        1 ME8      0.085100
     24 O2'         3.4710   -0.1000   -8.5180 oh        1 ME8     -0.593800
     25 O2S        -0.1010   -1.5640   -3.9980 o         1 ME8     -0.781300
     26 C3'         2.4640   -0.3670   -6.3530 c3        1 ME8      0.119100
     27 O3'         2.2230    1.0020   -6.5620 oh        1 ME8     -0.573800
     28 C4'         3.3730   -0.5910   -5.1260 c3        1 ME8      0.073100
     29 O4'         4.6300   -1.1160   -5.5790 os        1 ME8     -0.410600
     30 C5'         2.7860   -1.5620   -4.0940 c3        1 ME8      0.161400
     31 O5'         2.1610   -0.8310   -3.0640 os        1 ME8     -0.602200
     32 HN2         1.2160    0.8620    0.8320 hn        1 ME8      0.368300
     33 HN2A        0.9520    0.9990   -2.0110 ho        1 ME8      0.504000
     34 HN6         5.4530   -7.6820   -7.4740 hn        1 ME8      0.451300
     35 HN6A        5.2250   -8.1700   -9.1010 hn        1 ME8      0.451300
     36 HA          2.5540   -1.6330    0.0240 h1        1 ME8      0.091700
     37 HB          0.7310   -1.0530    2.4830 hc        1 ME8      0.081700
     38 HBA         1.3880   -2.6590    1.9840 hc        1 ME8      0.081700
     39 HE          4.2700   -2.1110    6.0510 h1        1 ME8      0.065367
     40 HEA         5.1450   -2.0390    4.4650 h1        1 ME8      0.065367
     41 HEB         4.4060   -0.5410    5.1550 h1        1 ME8      0.065367
     42 HG          3.7590   -1.6730    2.1590 h1        1 ME8      0.056700
     43 HGA         3.0340   -0.1730    2.8480 h1        1 ME8      0.056700
     44 H1'         5.4190   -1.1010   -7.4710 h2        1 ME8      0.102700
     45 H2'         2.5580   -1.8930   -7.9380 h1        1 ME8      0.090700
     46 HO2'        3.6240   -0.5830   -9.3420 ho        1 ME8      0.437000
     47 H3'         1.4410   -0.8150   -6.2010 h1        1 ME8      0.119700
     48 HO3'        3.0040    1.3900   -6.9810 ho        1 ME8      0.423000
     49 H4'         3.6240    0.3870   -4.6270 h1        1 ME8      0.102700
     50 H5'         2.0460   -2.2660   -4.5650 h1        1 ME8      0.067200
     51 H5'A        3.6310   -2.1440   -3.6270 h1        1 ME8      0.067200
     52 H8          5.2370   -3.5200   -4.9240 h5        1 ME8      0.081800
     53 H23         2.8070    0.5940    0.5710 hn        1 ME8      0.368300
     54 H2          4.0740   -4.2820  -11.3320 h5        1 ME8      0.052100
@<TRIPOS>BOND
     1    1   14 2   
     2    2    5 ar  
     3    2   10 ar  
     4    3    4 1   
     5    3   14 1   
     6    4   22 1   
     7    4   25 2   
     8    4   31 1   
     9    5    7 ar  
    10    5   54 1   
    11    6   16 1   
    12    6   32 1   
    13    6   53 1   
    14    7    8 ar  
    15    8    9 ar  
    16    8   15 1   
    17    9   10 ar  
    18    9   12 1   
    19   10   11 1   
    20   11   34 1   
    21   11   35 1   
    22   12   13 2   
    23   13   15 1   
    24   13   52 1   
    25   14   16 1   
    26   15   21 1   
    27   16   17 1   
    28   16   36 1   
    29   17   20 1   
    30   17   37 1   
    31   17   38 1   
    32   18   19 1   
    33   18   20 1   
    34   19   39 1   
    35   19   40 1   
    36   19   41 1   
    37   20   42 1   
    38   20   43 1   
    39   21   23 1   
    40   21   29 1   
    41   21   44 1   
    42   22   33 1   
    43   23   24 1   
    44   23   26 1   
    45   23   45 1   
    46   24   46 1   
    47   26   27 1   
    48   26   28 1   
    49   26   47 1   
    50   27   48 1   
    51   28   29 1   
    52   28   30 1   
    53   28   49 1   
    54   30   31 1   
    55   30   50 1   
    56   30   51 1   
@<TRIPOS>SUBSTRUCTURE
     1 ME8         1 TEMP              0 ****  ****    0 ROOT
