@<TRIPOS>MOLECULE
ME8
   54    56     1     0     0
SMALL
bcc


@<TRIPOS>ATOM
      1 O          -0.6880   -1.6520    0.3100 o         1 ME8     -0.465000
      2 N1          4.5610   -5.8630  -10.0210 nb        1 ME8     -0.795000
      3 O1          0.5380   -1.8170   -1.5100 os        1 ME8     -0.635500
      4 P1          0.5990   -0.9540   -2.8610 p5        1 ME8      1.704500
      5 C2          4.2970   -4.5530  -10.2680 ca        1 ME8      0.693900
      6 N2          1.9150    0.3690    0.2900 n3        1 ME8     -0.923800
      7 N3          4.2840   -3.4910   -9.4280 nb        1 ME8     -0.762000
      8 C4          4.5900   -3.8400   -8.1410 ca        1 ME8      0.453800
      9 C5          4.9000   -5.2000   -7.7180 ca        1 ME8     -0.229200
     10 C6          4.8720   -6.2200   -8.7280 ca        1 ME8      0.768200
     11 N6          5.1620   -7.5180   -8.4060 nh        1 ME8     -0.958500
     12 N7          5.1790   -5.2230   -6.3430 nc        1 ME8     -0.545100
     13 C8          5.0510   -3.9510   -5.9380 cd        1 ME8      0.420700
     14 C9          0.4110   -1.4750   -0.2010 c         1 ME8      0.723100
     15 N9          4.6840   -3.0620   -6.9770 na        1 ME8     -0.292000
     16 CA          1.6970   -1.0460    0.5120 c3        1 ME8      0.096500
     17 CB          1.5950   -1.4980    1.9770 c3        1 ME8     -0.105400
     18 SD          2.7290   -2.0010    4.3050 ss        1 ME8     -0.269200
     19 CE          4.2640   -1.6090    5.0480 c3        1 ME8     -0.048000
     20 CG          2.8760   -1.2310    2.7200 c3        1 ME8     -0.024300
     21 C1'         4.5610   -1.6230   -6.9290 c3        1 ME8      0.223800
     22 O1S         0.2780    0.5040   -2.3430 oh        1 ME8     -0.763400
     23 C2'         3.2200   -1.0820   -7.5290 c3        1 ME8      0.085100
     24 O2'         3.5240   -0.1270   -8.5200 oh        1 ME8     -0.593800
     25 O2S        -0.0880   -1.5160   -4.0040 o         1 ME8     -0.781300
     26 C3'         2.5050   -0.3720   -6.3580 c3        1 ME8      0.120100
     27 O3'         2.2900    1.0010   -6.5690 oh        1 ME8     -0.573800
     28 C4'         3.4070   -0.6110   -5.1280 c3        1 ME8      0.073100
     29 O4'         4.6540   -1.1630   -5.5770 os        1 ME8     -0.410600
     30 C5'         2.7980   -1.5660   -4.0950 c3        1 ME8      0.161400
     31 O5'         2.1850   -0.8190   -3.0690 os        1 ME8     -0.602200
     32 HN2         1.0070    1.0400   -2.0310 ho        1 ME8      0.504000
     33 HN2A        1.2590    0.9190    0.8120 hn        1 ME8      0.368300
     34 HN6         5.1150   -8.2320   -9.0890 hn        1 ME8      0.451300
     35 HN6A        5.3470   -7.7470   -7.4620 hn        1 ME8      0.451300
     36 HA          2.5540   -1.6060    0.0270 h1        1 ME8      0.091700
     37 HB          1.3650   -2.5980    1.9900 hc        1 ME8      0.081700
     38 HBA         0.7340   -0.9770    2.4760 hc        1 ME8      0.081700
     39 HE          4.4080   -0.5110    5.1570 h1        1 ME8      0.065367
     40 HEA         4.2440   -2.0740    6.0620 h1        1 ME8      0.065367
     41 HEB         5.1240   -2.0250    4.4780 h1        1 ME8      0.065367
     42 HG          3.0500   -0.1340    2.8430 h1        1 ME8      0.056700
     43 HGA         3.7520   -1.6510    2.1660 h1        1 ME8      0.056700
     44 H1'         5.4480   -1.1670   -7.4670 h2        1 ME8      0.102700
     45 H2'         2.5730   -1.9010   -7.9420 h1        1 ME8      0.091700
     46 HO2'        3.6700   -0.6130   -9.3430 ho        1 ME8      0.437000
     47 H3'         1.4740   -0.8010   -6.2070 h1        1 ME8      0.119700
     48 HO3'        3.0780    1.3740   -6.9870 ho        1 ME8      0.423000
     49 H4'         3.6770    0.3630   -4.6320 h1        1 ME8      0.102700
     50 H5'         3.6300   -2.1630   -3.6230 h1        1 ME8      0.067700
     51 H5'A        2.0450   -2.2570   -4.5650 h1        1 ME8      0.067700
     52 H8          5.2060   -3.5790   -4.9170 h5        1 ME8      0.081800
     53 H23         2.8460    0.6200    0.5600 hn        1 ME8      0.368300
     54 H2          4.0540   -4.3240  -11.3280 h5        1 ME8      0.052100
@<TRIPOS>BOND
     1    1   14 2   
     2    2    5 ar  
     3    2   10 ar  
     4    3    4 1   
     5    3   14 1   
     6    4   22 1   
     7    4   25 2   
     8    4   31 1   
     9    5    7 ar  
    10    5   54 1   
    11    6   16 1   
    12    6   33 1   
    13    6   53 1   
    14    7    8 ar  
    15    8    9 ar  
    16    8   15 1   
    17    9   10 ar  
    18    9   12 1   
    19   10   11 1   
    20   11   34 1   
    21   11   35 1   
    22   12   13 2   
    23   13   15 1   
    24   13   52 1   
    25   14   16 1   
    26   15   21 1   
    27   16   17 1   
    28   16   36 1   
    29   17   20 1   
    30   17   37 1   
    31   17   38 1   
    32   18   19 1   
    33   18   20 1   
    34   19   39 1   
    35   19   40 1   
    36   19   41 1   
    37   20   42 1   
    38   20   43 1   
    39   21   23 1   
    40   21   29 1   
    41   21   44 1   
    42   22   32 1   
    43   23   24 1   
    44   23   26 1   
    45   23   45 1   
    46   24   46 1   
    47   26   27 1   
    48   26   28 1   
    49   26   47 1   
    50   27   48 1   
    51   28   29 1   
    52   28   30 1   
    53   28   49 1   
    54   30   31 1   
    55   30   50 1   
    56   30   51 1   
@<TRIPOS>SUBSTRUCTURE
     1 ME8         1 TEMP              0 ****  ****    0 ROOT
