@<TRIPOS>MOLECULE
ME9
   30    29     1     0     0
SMALL
bcc


@<TRIPOS>ATOM
      1 OAA         0.0750    0.8580    0.4390 o         1 ME9     -0.294000
      2 OAB         3.5500   -0.9430   -2.0430 o         1 ME9     -0.240000
      3 OAD        -1.5010    1.8190   -6.5970 o         1 ME9     -0.214000
      4 CAE         2.5210    1.0270    0.7720 c3        1 ME9     -0.325000
      5 CAF         3.6420    0.4480    0.0010 c1        1 ME9      0.132000
      6 CAG        -3.7530    4.0470   -7.9480 c1        1 ME9     -0.071000
      7 CAH        -2.7270    3.5820   -7.5440 c1        1 ME9     -0.246000
      8 CAI         0.2680    0.2040   -3.1340 c3        1 ME9     -0.177000
      9 CAJ        -0.7270   -0.4600   -4.0490 c3        1 ME9     -0.215000
     10 CAK         0.6190   -0.7320   -1.9760 c3        1 ME9     -0.020000
     11 CAL         0.3910    3.8170   -5.8970 c1        1 ME9     -0.046000
     12 CAM         1.2240    0.5900    0.0800 c2        1 ME9      0.283000
     13 CAN         2.9810   -0.3100   -1.1510 c2        1 ME9      0.202000
     14 CAO        -0.1140    4.5980   -8.1730 c2        1 ME9      0.214000
     15 CAP        -1.5420    2.9760   -7.0130 c2        1 ME9      0.444000
     16 NAQ         1.5700   -0.2020   -1.0360 n         1 ME9     -0.354000
     17 NAR        -0.3580    3.8180   -6.9950 n         1 ME9     -0.264000
     18 HAE         2.5950    2.1480    0.7980 hc        1 ME9      0.184000
     19 HAF         2.5440    0.6710    1.8380 hc        1 ME9      0.184000
     20 HAG        -0.8490    4.4610   -8.9980 h5        1 ME9      0.148000
     21 HAH        -4.6630    4.4600   -8.3120 ha        1 ME9      0.240000
     22 HAI        -0.9830    0.2260   -4.8940 hc        1 ME9      0.080333
     23 HAIA       -0.1630    1.1600   -2.7370 hc        1 ME9      0.093500
     24 HAJ         1.1940    0.4660   -3.7100 hc        1 ME9      0.093500
     25 HAJA       -1.6670   -0.7100   -3.4980 hc        1 ME9      0.080333
     26 HAK         1.0550   -1.6850   -2.3950 h1        1 ME9      0.105500
     27 HAKA       -0.3240   -0.9790   -1.4080 h1        1 ME9      0.105500
     28 HAL        -0.3070   -1.4040   -4.4740 hc        1 ME9      0.080333
     29 HALA        1.2820    4.4830   -5.9370 ha        1 ME9      0.068000
     30 OAC         0.8560    5.3530   -8.2370 o         1 ME9     -0.273000
@<TRIPOS>BOND
     1    1   12 1   
     2    2   13 1   
     3    3   15 1   
     4    4    5 1   
     5    4   12 1   
     6    4   18 1   
     7    4   19 1   
     8    5   13 1   
     9    6    7 1   
    10    6   21 1   
    11    7   15 1   
    12    8    9 1   
    13    8   10 1   
    14    8   23 1   
    15    8   24 1   
    16    9   22 1   
    17    9   25 1   
    18    9   28 1   
    19   10   16 1   
    20   10   26 1   
    21   10   27 1   
    22   11   17 1   
    23   11   29 1   
    24   12   16 1   
    25   13   16 1   
    26   14   17 1   
    27   14   20 1   
    28   14   30 1   
    29   15   17 1   
@<TRIPOS>SUBSTRUCTURE
     1 ME9         1 TEMP              0 ****  ****    0 ROOT
