@<TRIPOS>MOLECULE
ME9
   30    27     1     0     0
SMALL
bcc


@<TRIPOS>ATOM
      1 OAA         3.5030    2.2590    1.5470 o         1 ME9     -0.280000
      2 OAB        -0.5910    1.7090    3.9580 o         1 ME9     -0.280000
      3 OAC        -3.0760   -2.9230   -1.2730 o         1 ME9     -0.280000
      4 OAD         0.3190   -1.2810   -4.1410 o         1 ME9     -0.280000
      5 CAE         2.8510    1.7580    3.7580 c1        1 ME9     -0.154000
      6 CAF         1.7210    1.8000    4.4560 c1        1 ME9     -0.154000
      7 CAG        -2.7810   -2.7200   -3.6020 c1        1 ME9     -0.154000
      8 CAH        -1.8260   -2.2660   -4.4100 c1        1 ME9     -0.154000
      9 CAI         0.4050    0.4570    0.5710 c3        1 ME9     -0.181000
     10 CAJ        -0.4420    0.2330   -0.6950 c3        1 ME9     -0.181000
     11 CAK         0.3380    1.8900    0.9710 c3        1 ME9     -0.008000
     12 CAL        -0.4010   -1.2670   -1.0770 c3        1 ME9     -0.008000
     13 CAM         2.6660    1.9050    2.3340 c1        1 ME9      0.325000
     14 CAN         0.5340    1.9930    3.6440 c1        1 ME9      0.325000
     15 CAO        -2.5980   -2.3600   -2.2180 c1        1 ME9      0.325000
     16 CAP        -0.8020   -1.4900   -3.7330 c1        1 ME9      0.325000
     17 NAQ         1.0910    2.0850    2.1700 n3        1 ME9     -0.361000
     18 NAR        -1.2530   -1.5030   -2.2180 n3        1 ME9     -0.361000
     19 HAE         3.6990    2.0410    4.1760 ha        1 ME9      0.181000
     20 HAF         1.6580    1.3310    5.3200 ha        1 ME9      0.181000
     21 HAG        -3.2770   -3.5230   -3.8360 ha        1 ME9      0.181000
     22 HAH        -1.6110   -2.7490   -5.2230 ha        1 ME9      0.181000
     23 HAI         0.0490   -0.1190    1.3200 hc        1 ME9      0.094000
     24 HAIA        1.3510    0.2100    0.3840 hc        1 ME9      0.094000
     25 HAJ        -1.3430    0.4940   -0.5250 hc        1 ME9      0.094000
     26 HAJA       -0.0830    0.7640   -1.4240 hc        1 ME9      0.094000
     27 HAK         0.7030    2.4350    0.2730 h1        1 ME9      0.109000
     28 HAKA       -0.6020    2.1440    1.1290 h1        1 ME9      0.109000
     29 HAL        -0.7060   -1.7900   -0.3410 h1        1 ME9      0.109000
     30 HALA        0.5010   -1.5170   -1.2940 h1        1 ME9      0.109000
@<TRIPOS>BOND
     1    1   13 1   
     2    2   14 1   
     3    3   15 1   
     4    4   16 1   
     5    5    6 1   
     6    5   19 1   
     7    6   20 1   
     8    7    8 1   
     9    7   21 1   
    10    8   22 1   
    11    9   10 1   
    12    9   11 1   
    13    9   23 1   
    14    9   24 1   
    15   10   12 1   
    16   10   25 1   
    17   10   26 1   
    18   11   17 1   
    19   11   27 1   
    20   11   28 1   
    21   12   18 1   
    22   12   29 1   
    23   12   30 1   
    24   13   17 1   
    25   14   17 1   
    26   15   18 1   
    27   16   18 1   
@<TRIPOS>SUBSTRUCTURE
     1 ME9         1 TEMP              0 ****  ****    0 ROOT
