@<TRIPOS>MOLECULE
ME9
   30    29     1     0     0
SMALL
bcc


@<TRIPOS>ATOM
      1 OAA         0.0520    0.9110    0.3910 o         1 ME9     -0.294000
      2 OAB         3.5440   -0.9820   -1.9950 o         1 ME9     -0.240000
      3 OAD        -1.4660    1.7980   -6.6210 o         1 ME9     -0.214000
      4 CAE         2.4930    1.0580    0.7620 c3        1 ME9     -0.325000
      5 CAF         3.6200    0.4500    0.0210 c1        1 ME9      0.132000
      6 CAG        -3.7600    4.0490   -7.8600 c1        1 ME9     -0.071000
      7 CAH        -2.7220    3.5790   -7.4940 c1        1 ME9     -0.246000
      8 CAI         0.2820    0.1890   -3.1540 c3        1 ME9     -0.177000
      9 CAJ        -0.7060   -0.4830   -4.0720 c3        1 ME9     -0.215000
     10 CAK         0.6160   -0.7350   -1.9810 c3        1 ME9     -0.020000
     11 CAL         0.4360    3.7880   -5.9230 c1        1 ME9     -0.046000
     12 CAM         1.2030    0.6220    0.0580 c2        1 ME9      0.283000
     13 CAN         2.9680   -0.3240   -1.1260 c2        1 ME9      0.202000
     14 CAO        -0.1290    4.6170   -8.1680 c2        1 ME9      0.214000
     15 CAP        -1.5220    2.9650   -7.0080 c2        1 ME9      0.444000
     16 NAQ         1.5570   -0.1970   -1.0370 n         1 ME9     -0.354000
     17 NAR        -0.3410    3.8110   -7.0020 n         1 ME9     -0.264000
     18 HAE         2.5810    2.1790    0.7660 hc        1 ME9      0.184000
     19 HAF         2.4950    0.7240    1.8340 hc        1 ME9      0.184000
     20 HAG        -0.8850    4.4970   -8.9770 h5        1 ME9      0.148000
     21 HAH        -4.6810    4.4680   -8.1890 ha        1 ME9      0.240000
     22 HAI        -0.9510    0.1950   -4.9280 hc        1 ME9      0.080333
     23 HAIA       -0.1500    1.1510   -2.7730 hc        1 ME9      0.093500
     24 HAJ         1.2150    0.4400   -3.7230 hc        1 ME9      0.093500
     25 HAJA       -1.6520   -0.7230   -3.5290 hc        1 ME9      0.080333
     26 HAK         1.0520   -1.6940   -2.3840 h1        1 ME9      0.106000
     27 HAKA       -0.3350   -0.9710   -1.4210 h1        1 ME9      0.106000
     28 HAL        -0.2850   -1.4320   -4.4820 hc        1 ME9      0.080333
     29 HALA        1.3230    4.4580   -5.9710 ha        1 ME9      0.068000
     30 OAC         0.8370    5.3770   -8.2410 o         1 ME9     -0.273000
@<TRIPOS>BOND
     1    1   12 1   
     2    2   13 1   
     3    3   15 1   
     4    4    5 1   
     5    4   12 1   
     6    4   18 1   
     7    4   19 1   
     8    5   13 1   
     9    6    7 1   
    10    6   21 1   
    11    7   15 1   
    12    8    9 1   
    13    8   10 1   
    14    8   23 1   
    15    8   24 1   
    16    9   22 1   
    17    9   25 1   
    18    9   28 1   
    19   10   16 1   
    20   10   26 1   
    21   10   27 1   
    22   11   17 1   
    23   11   29 1   
    24   12   16 1   
    25   13   16 1   
    26   14   17 1   
    27   14   20 1   
    28   14   30 1   
    29   15   17 1   
@<TRIPOS>SUBSTRUCTURE
     1 ME9         1 TEMP              0 ****  ****    0 ROOT
