@<TRIPOS>MOLECULE
ME9
   30    31     1     0     0
SMALL
bcc


@<TRIPOS>ATOM
      1 OAA        -3.4860   -2.3240    0.2070 o         1 ME9     -0.555500
      2 OAB        -3.4870    2.3240    0.2040 o         1 ME9     -0.555500
      3 OAD         3.4870   -2.3240   -0.2020 o         1 ME9     -0.555500
      4 CAE        -5.2060   -0.6750   -0.4390 cc        1 ME9     -0.173200
      5 CAF        -5.2070    0.6730   -0.4400 cd        1 ME9     -0.173200
      6 CAG         5.2060    0.6750    0.4380 cc        1 ME9     -0.173200
      7 CAH         5.2070   -0.6730    0.4400 cd        1 ME9     -0.173200
      8 CAI        -0.6940   -0.0010   -0.3020 c3        1 ME9     -0.102400
      9 CAJ         0.6940    0.0000    0.3020 c3        1 ME9     -0.102400
     10 CAK        -1.7380    0.0010    0.8180 c3        1 ME9      0.108000
     11 CAL         1.7380   -0.0010   -0.8180 c3        1 ME9      0.108000
     12 CAM        -3.8620   -1.1600    0.0660 c         1 ME9      0.686700
     13 CAN        -3.8630    1.1600    0.0640 c         1 ME9      0.686700
     14 CAO         3.8620    1.1610   -0.0670 c         1 ME9      0.686700
     15 CAP         3.8620   -1.1600   -0.0640 c         1 ME9      0.686700
     16 NAQ        -3.1010    0.0000    0.3720 n         1 ME9     -0.532400
     17 NAR         3.1000   -0.0000   -0.3720 n         1 ME9     -0.532400
     18 HAE        -5.9820   -1.3840   -0.7270 ha        1 ME9      0.181000
     19 HAF        -5.9820    1.3820   -0.7290 ha        1 ME9      0.181000
     20 HAG         5.9820    1.3850    0.7260 ha        1 ME9      0.181000
     21 HAH         5.9820   -1.3810    0.7300 ha        1 ME9      0.181000
     22 HAI        -0.8270    0.9040   -0.9510 hc        1 ME9      0.054700
     23 HAIA       -0.8270   -0.9070   -0.9490 hc        1 ME9      0.054700
     24 HAJ         0.8270    0.9070    0.9490 hc        1 ME9      0.054700
     25 HAJA        0.8270   -0.9050    0.9510 hc        1 ME9      0.054700
     26 HAK        -1.5870   -0.9170    1.4570 h1        1 ME9      0.069700
     27 HAKA       -1.5870    0.9200    1.4550 h1        1 ME9      0.069700
     28 HAL         1.5870   -0.9210   -1.4540 h1        1 ME9      0.069700
     29 HALA        1.5870    0.9170   -1.4570 h1        1 ME9      0.069700
     30 OAC         3.4860    2.3240   -0.2090 o         1 ME9     -0.555500
@<TRIPOS>BOND
     1    1   12 2   
     2    2   13 2   
     3    3   15 2   
     4    4    5 2   
     5    4   12 1   
     6    4   18 1   
     7    5   13 1   
     8    5   19 1   
     9    6    7 2   
    10    6   14 1   
    11    6   20 1   
    12    7   15 1   
    13    7   21 1   
    14    8    9 1   
    15    8   10 1   
    16    8   22 1   
    17    8   23 1   
    18    9   11 1   
    19    9   24 1   
    20    9   25 1   
    21   10   16 1   
    22   10   26 1   
    23   10   27 1   
    24   11   17 1   
    25   11   28 1   
    26   11   29 1   
    27   12   16 1   
    28   13   16 1   
    29   14   17 1   
    30   14   30 2   
    31   15   17 1   
@<TRIPOS>SUBSTRUCTURE
     1 ME9         1 TEMP              0 ****  ****    0 ROOT
