@<TRIPOS>MOLECULE
ME9
   30    30     1     0     0
SMALL
bcc


@<TRIPOS>ATOM
      1 OAA         1.7140   -0.6350   -0.5220 o         1 ME9     -0.275000
      2 OAB         1.6080    1.8450   -4.4410 o         1 ME9     -0.310000
      3 OAD        -1.9380    2.3790   -4.7730 o         1 ME9     -0.180000
      4 CAE         3.5420    0.5160   -1.7270 c3        1 ME9     -0.328000
      5 CAF         3.5260    1.2940   -2.9830 c1        1 ME9      0.139000
      6 CAG         0.6910    1.7010   -7.1110 c3        1 ME9     -0.313000
      7 CAH        -0.1580    1.2120   -6.0070 c1        1 ME9      0.132000
      8 CAI        -0.9450    1.0930   -1.5330 c3        1 ME9     -0.175000
      9 CAJ        -2.4160    0.8570   -1.7550 c3        1 ME9     -0.215000
     10 CAK        -0.1370    0.3370   -2.5890 c3        1 ME9     -0.030000
     11 CAL        -1.6290    4.5620   -6.6450 c1        1 ME9     -0.035000
     12 CAM         2.1040    0.0530   -1.4650 c2        1 ME9      0.282000
     13 CAN         2.0570    1.2910   -3.4270 c2        1 ME9      0.227000
     14 CAO         0.1680    3.0730   -7.5140 c2        1 ME9      0.228000
     15 CAP        -1.1150    2.3580   -5.6810 c2        1 ME9      0.224000
     16 NAQ         1.2870    0.5450   -2.5150 n         1 ME9     -0.339000
     17 NAR        -0.9240    3.4480   -6.6310 n         1 ME9     -0.262000
     18 HAE         3.9180    1.1470   -0.8750 hc        1 ME9      0.189500
     19 HAF         4.2360   -0.3640   -1.8120 hc        1 ME9      0.189500
     20 HAG         1.7580    1.7840   -6.7490 hc        1 ME9      0.194500
     21 HAH         0.6890    0.9910   -7.9800 hc        1 ME9      0.194500
     22 HAI        -3.0090    1.3880   -0.9720 hc        1 ME9      0.082667
     23 HAIA       -0.6460    0.7430   -0.5100 hc        1 ME9      0.089500
     24 HAJ        -0.7290    2.1920   -1.5940 hc        1 ME9      0.089500
     25 HAJA       -2.6560   -0.2330   -1.7020 hc        1 ME9      0.082667
     26 HAK        -0.4760    0.6550   -3.6210 h1        1 ME9      0.118000
     27 HAKA       -0.3310   -0.7680   -2.4690 h1        1 ME9      0.118000
     28 HAL        -2.7280    1.2420   -2.7580 hc        1 ME9      0.082667
     29 HALA       -1.3410    5.2950   -7.4330 ha        1 ME9      0.060000
     30 OAC         0.5700    3.7830   -8.4340 o         1 ME9     -0.259000
@<TRIPOS>BOND
     1    1   12 1   
     2    2   13 1   
     3    3   15 1   
     4    4    5 1   
     5    4   12 1   
     6    4   18 1   
     7    4   19 1   
     8    5   13 1   
     9    6    7 1   
    10    6   14 1   
    11    6   20 1   
    12    6   21 1   
    13    7   15 1   
    14    8    9 1   
    15    8   10 1   
    16    8   23 1   
    17    8   24 1   
    18    9   22 1   
    19    9   25 1   
    20    9   28 1   
    21   10   16 1   
    22   10   26 1   
    23   10   27 1   
    24   11   17 1   
    25   11   29 1   
    26   12   16 1   
    27   13   16 1   
    28   14   17 1   
    29   14   30 1   
    30   15   17 1   
@<TRIPOS>SUBSTRUCTURE
     1 ME9         1 TEMP              0 ****  ****    0 ROOT
