@<TRIPOS>MOLECULE
MEA
   25    25     1     0     0
SMALL
bcc


@<TRIPOS>ATOM
      1 C1          1.7480   -2.3340   -0.8980 c3        1 MEA      0.146100
      2 N           1.0130   -1.4980    0.0110 n3        1 MEA     -0.799200
      3 CA          1.1490   -0.0690   -0.2540 c3        1 MEA      0.050500
      4 C           2.6150    0.4540   -0.0390 c         1 MEA      0.928600
      5 O           3.4740    0.1200   -0.9020 o         1 MEA     -0.836800
      6 CB          0.2050    0.7660    0.6230 c3        1 MEA     -0.042100
      7 CG         -1.2310    0.5060    0.3400 ca        1 MEA     -0.046300
      8 CD1        -1.9410   -0.4560    1.0720 ca        1 MEA     -0.137500
      9 CE1        -3.2890   -0.6930    0.8090 ca        1 MEA     -0.138500
     10 CZ         -3.9470    0.0270   -0.1880 ca        1 MEA     -0.160000
     11 CE2        -3.2480    0.9850   -0.9230 ca        1 MEA     -0.138500
     12 CD2        -1.9010    1.2230   -0.6620 ca        1 MEA     -0.137500
     13 OXT         2.8380    1.2140    0.9410 o         1 MEA     -0.836800
     14 HC1         2.8110   -1.9710   -0.9570 h1        1 MEA      0.025367
     15 HC2         1.7290   -3.3850   -0.5040 h1        1 MEA      0.025367
     16 HC3         1.3260   -2.3490   -1.9430 h1        1 MEA      0.025367
     17 H           0.0360   -1.7390   -0.0220 hn        1 MEA      0.317800
     18 HA          0.8960    0.1560   -1.3370 h1        1 MEA      0.000700
     19 HB1         0.4400    0.5650    1.7020 hc        1 MEA      0.070200
     20 HB2         0.4500    1.8450    0.4310 hc        1 MEA      0.070200
     21 HD1        -1.4200   -1.0270    1.8550 ha        1 MEA      0.137000
     22 HE1        -3.8350   -1.4500    1.3890 ha        1 MEA      0.114000
     23 HZ         -5.0090   -0.1590   -0.3940 ha        1 MEA      0.111000
     24 HE2        -3.7620    1.5520   -1.7120 ha        1 MEA      0.114000
     25 HD2        -1.3480    1.9740   -1.2460 ha        1 MEA      0.137000
@<TRIPOS>BOND
     1    1    2 1   
     2    1   14 1   
     3    1   15 1   
     4    1   16 1   
     5    2    3 1   
     6    2   17 1   
     7    3    4 1   
     8    3    6 1   
     9    3   18 1   
    10    4    5 1   
    11    4   13 1   
    12    6    7 1   
    13    6   19 1   
    14    6   20 1   
    15    7    8 ar  
    16    7   12 ar  
    17    8    9 ar  
    18    8   21 1   
    19    9   10 ar  
    20    9   22 1   
    21   10   11 ar  
    22   10   23 1   
    23   11   12 ar  
    24   11   24 1   
    25   12   25 1   
@<TRIPOS>SUBSTRUCTURE
     1 MEA         1 TEMP              0 ****  ****    0 ROOT
