@<TRIPOS>MOLECULE
MEB
   12    11     1     0     0
SMALL
bcc


@<TRIPOS>ATOM
      1 C1          0.0330    0.0030    0.0000 c2        1 MEB     -0.115400
      2 C2          1.3690    0.0030    0.0000 c2        1 MEB     -0.228000
      3 C3         -0.7630   -0.1390    1.2440 c3        1 MEB     -0.061900
      4 C1'        -0.7620    0.1440   -1.2440 c3        1 MEB     -0.061900
      5 H2          1.9570   -0.1020    0.9210 ha        1 MEB      0.111000
      6 H21         1.9580    0.1080   -0.9200 ha        1 MEB      0.111000
      7 H3         -0.1060   -0.2410    2.1430 hc        1 MEB      0.040700
      8 H31        -1.4180   -1.0430    1.1800 hc        1 MEB      0.040700
      9 H32        -1.4180    0.7570    1.3850 hc        1 MEB      0.040700
     10 H1'1       -1.4170   -0.7520   -1.3850 hc        1 MEB      0.040700
     11 H1'2       -0.1060    0.2460   -2.1420 hc        1 MEB      0.040700
     12 H1'3       -1.4180    1.0480   -1.1800 hc        1 MEB      0.040700
@<TRIPOS>BOND
     1    1    2 2   
     2    1    3 1   
     3    1    4 1   
     4    2    5 1   
     5    2    6 1   
     6    3    7 1   
     7    3    8 1   
     8    3    9 1   
     9    4   10 1   
    10    4   11 1   
    11    4   12 1   
@<TRIPOS>SUBSTRUCTURE
     1 MEB         1 TEMP              0 ****  ****    0 ROOT
