@<TRIPOS>MOLECULE
MEB
   12    11     1     0     0
SMALL
bcc


@<TRIPOS>ATOM
      1 C1          0.0330    0.0010    0.0020 c2        1 MEB     -0.115400
      2 C2          1.3690   -0.0080    0.0140 c2        1 MEB     -0.228000
      3 C3         -0.7750   -0.1650    1.2350 c3        1 MEB     -0.061900
      4 C1'        -0.7500    0.1780   -1.2460 c3        1 MEB     -0.061900
      5 H2          1.9480   -0.1390    0.9370 ha        1 MEB      0.111000
      6 H21         1.9670    0.1150   -0.8980 ha        1 MEB      0.111000
      7 H3         -0.1280   -0.2930    2.1370 hc        1 MEB      0.040700
      8 H31        -1.4360   -1.0620    1.1430 hc        1 MEB      0.040700
      9 H32        -1.4250    0.7320    1.3920 hc        1 MEB      0.040700
     10 H1'1       -1.4090   -0.7100   -1.4140 hc        1 MEB      0.040700
     11 H1'2       -0.0840    0.2970   -2.1350 hc        1 MEB      0.040700
     12 H1'3       -1.4000    1.0840   -1.1660 hc        1 MEB      0.040700
@<TRIPOS>BOND
     1    1    2 2   
     2    1    3 1   
     3    1    4 1   
     4    2    5 1   
     5    2    6 1   
     6    3    7 1   
     7    3    8 1   
     8    3    9 1   
     9    4   10 1   
    10    4   11 1   
    11    4   12 1   
@<TRIPOS>SUBSTRUCTURE
     1 MEB         1 TEMP              0 ****  ****    0 ROOT
