@<TRIPOS>MOLECULE
MEB
   12    11     1     0     0
SMALL
bcc


@<TRIPOS>ATOM
      1 C1          0.0000   -0.1080   -0.0010 c2        1 MEB     -0.115400
      2 C2         -0.0000   -1.4440   -0.0010 c2        1 MEB     -0.228000
      3 C3          1.2480    0.6870    0.1070 c3        1 MEB     -0.061900
      4 C1'        -1.2480    0.6880   -0.1070 c3        1 MEB     -0.061900
      5 H2         -0.9230   -2.0320   -0.0800 ha        1 MEB      0.111000
      6 H21         0.9230   -2.0320    0.0780 ha        1 MEB      0.111000
      7 H3          1.3640    1.3430   -0.7920 hc        1 MEB      0.040700
      8 H31         1.2090    1.3420    1.0130 hc        1 MEB      0.040700
      9 H32         2.1480    0.0310    0.1840 hc        1 MEB      0.040700
     10 H1'1       -1.3630    1.3430    0.7920 hc        1 MEB      0.040700
     11 H1'2       -1.2090    1.3430   -1.0130 hc        1 MEB      0.040700
     12 H1'3       -2.1480    0.0310   -0.1850 hc        1 MEB      0.040700
@<TRIPOS>BOND
     1    1    2 2   
     2    1    3 1   
     3    1    4 1   
     4    2    5 1   
     5    2    6 1   
     6    3    7 1   
     7    3    8 1   
     8    3    9 1   
     9    4   10 1   
    10    4   11 1   
    11    4   12 1   
@<TRIPOS>SUBSTRUCTURE
     1 MEB         1 TEMP              0 ****  ****    0 ROOT
