@<TRIPOS>MOLECULE
MEC
   16    15     1     0     0
SMALL
bcc


@<TRIPOS>ATOM
      1 C2         -0.2820   -0.2970   -2.7060 c3        1 MEC      0.138700
      2 O1         -0.6890    0.2870   -1.4670 os        1 MEC     -0.448900
      3 C3          0.2020    0.1300   -0.4210 c         1 MEC      0.719100
      4 O2          1.2120   -0.5690   -0.6050 o         1 MEC     -0.581000
      5 N1         -0.1470    0.8660    0.7000 n         1 MEC     -0.513900
      6 C4          0.4250    0.5180    1.9770 c3        1 MEC      0.077000
      7 C5         -0.4090   -0.4220    2.8330 c3        1 MEC     -0.131100
      8 H23        -0.1670   -1.4010   -2.5870 h1        1 MEC      0.051700
      9 H22        -1.1220   -0.0430   -3.3990 h1        1 MEC      0.051700
     10 H21         0.6810    0.1540   -3.0440 h1        1 MEC      0.051700
     11 H1         -1.0780    1.2200    0.7120 hn        1 MEC      0.311500
     12 H42         0.5710    1.4890    2.5340 h1        1 MEC      0.069200
     13 H41         1.4400    0.0580    1.8000 h1        1 MEC      0.069200
     14 H53         0.1120   -0.5800    3.8080 hc        1 MEC      0.044700
     15 H52        -1.4200    0.0040    3.0380 hc        1 MEC      0.044700
     16 H51        -0.5360   -1.4130    2.3350 hc        1 MEC      0.044700
@<TRIPOS>BOND
     1    1    2 1   
     2    1    8 1   
     3    1    9 1   
     4    1   10 1   
     5    2    3 1   
     6    3    4 2   
     7    3    5 1   
     8    5    6 1   
     9    5   11 1   
    10    6    7 1   
    11    6   12 1   
    12    6   13 1   
    13    7   14 1   
    14    7   15 1   
    15    7   16 1   
@<TRIPOS>SUBSTRUCTURE
     1 MEC         1 TEMP              0 ****  ****    0 ROOT
