@<TRIPOS>MOLECULE
MEC
   17    16     1     0     0
SMALL
bcc


@<TRIPOS>ATOM
      1 C2          0.0180   -0.2870    0.1920 c3        1 MEC      0.131700
      2 O1          1.4690   -0.3000    0.1850 os        1 MEC     -0.395900
      3 C3          2.0660    0.4640    1.1220 c         1 MEC      0.608100
      4 O2          1.5040    1.1490    1.9630 o         1 MEC     -0.406000
      5 N1          3.5540    0.3790    1.0060 n4        1 MEC     -0.640800
      6 C4          4.1620   -0.1760    2.2640 c3        1 MEC      0.117800
      7 C5          5.6730   -0.1590    2.2200 c3        1 MEC     -0.142100
      8 H23        -0.3500   -0.6760    1.1710 h1        1 MEC      0.093033
      9 H22        -0.3430    0.7520    0.0050 h1        1 MEC      0.093033
     10 H21        -0.2190   -0.9790   -0.6570 h1        1 MEC      0.093033
     11 H1          3.8040   -0.2160    0.2040 hn        1 MEC      0.475800
     12 H42         3.7820    0.4510    3.1240 hx        1 MEC      0.118700
     13 H41         3.7800   -1.2300    2.3840 hx        1 MEC      0.118700
     14 H53         6.0750   -0.7870    1.3860 hc        1 MEC      0.086367
     15 H52         6.0470   -0.5870    3.1870 hc        1 MEC      0.086367
     16 H51         6.0770    0.8790    2.1240 hc        1 MEC      0.086367
     17 H12         3.9180    1.3270    0.8410 hn        1 MEC      0.475800
@<TRIPOS>BOND
     1    1    2 1   
     2    1    8 1   
     3    1    9 1   
     4    1   10 1   
     5    2    3 1   
     6    3    4 2   
     7    3    5 1   
     8    5    6 1   
     9    5   11 1   
    10    5   17 1   
    11    6    7 1   
    12    6   12 1   
    13    6   13 1   
    14    7   14 1   
    15    7   15 1   
    16    7   16 1   
@<TRIPOS>SUBSTRUCTURE
     1 MEC         1 TEMP              0 ****  ****    0 ROOT
