@<TRIPOS>MOLECULE
MEC
   17    16     1     0     0
SMALL
bcc


@<TRIPOS>ATOM
      1 C2         -0.0330   -0.0020    0.0490 c3        1 MEC      0.131700
      2 O1          1.4180   -0.0030    0.0210 os        1 MEC     -0.399900
      3 C3          2.0270    0.0020    1.2250 c         1 MEC      0.606100
      4 O2          1.4730    0.0070    2.3130 o         1 MEC     -0.403000
      5 N1          3.5120    0.0010    1.0520 n4        1 MEC     -0.638800
      6 C4          4.2330   -0.0000    2.3690 c3        1 MEC      0.118800
      7 C5          5.7340   -0.0000    2.1930 c3        1 MEC     -0.141100
      8 H23        -0.3920    0.9220    0.5610 h1        1 MEC      0.092700
      9 H22        -0.2810   -0.0060   -1.0440 h1        1 MEC      0.092700
     10 H21        -0.3930   -0.9220    0.5690 h1        1 MEC      0.092700
     11 H1          3.7760   -0.8310    0.5050 hn        1 MEC      0.474800
     12 H42         3.8930   -0.9150    2.9380 hx        1 MEC      0.120700
     13 H41         3.8940    0.9140    2.9390 hx        1 MEC      0.120700
     14 H53         6.0920   -0.9110    1.6520 hc        1 MEC      0.085367
     15 H52         6.0930    0.9100    1.6540 hc        1 MEC      0.085367
     16 H51         6.1950   -0.0010    3.2160 hc        1 MEC      0.085367
     17 H12         3.7780    0.8330    0.5060 hn        1 MEC      0.474800
@<TRIPOS>BOND
     1    1    2 1   
     2    1    8 1   
     3    1    9 1   
     4    1   10 1   
     5    2    3 1   
     6    3    4 2   
     7    3    5 1   
     8    5    6 1   
     9    5   11 1   
    10    5   17 1   
    11    6    7 1   
    12    6   12 1   
    13    6   13 1   
    14    7   14 1   
    15    7   15 1   
    16    7   16 1   
@<TRIPOS>SUBSTRUCTURE
     1 MEC         1 TEMP              0 ****  ****    0 ROOT
