@<TRIPOS>MOLECULE
MED
   19    18     1     0     0
SMALL
bcc


@<TRIPOS>ATOM
      1 N          -1.1620    1.9300    0.1300 n3        1 MED     -0.894800
      2 CA         -1.1290    0.4970    0.3950 c3        1 MED      0.018500
      3 C          -2.4110   -0.2770   -0.0650 c         1 MED      0.889600
      4 O          -3.3450    0.3890   -0.5950 o         1 MED     -0.840800
      5 CB          0.0920   -0.2010   -0.2110 c3        1 MED     -0.059400
      6 CG          1.3730    0.2830    0.4160 c3        1 MED      0.018700
      7 SD          2.7300   -0.6110   -0.3140 ss        1 MED     -0.339200
      8 CE          4.1080    0.1460    0.4590 c3        1 MED     -0.037000
      9 OXT        -2.4450   -1.5200    0.1450 o         1 MED     -0.840800
     10 H          -1.0590    2.0720   -0.8600 hn        1 MED      0.331800
     11 H2         -2.0880    2.2520    0.3630 hn        1 MED      0.331800
     12 HA         -1.0770    0.3820    1.5180 h1        1 MED      0.040700
     13 HB2        -0.0400   -1.3040   -0.0360 hc        1 MED      0.062200
     14 HB3         0.1200   -0.0340   -1.3190 hc        1 MED      0.062200
     15 HG2         1.5150    1.3760    0.2430 h1        1 MED      0.055200
     16 HG3         1.3600    0.1060    1.5180 h1        1 MED      0.055200
     17 HE1         4.1540    1.2370    0.2430 h1        1 MED      0.048367
     18 HE2         4.0880    0.0090    1.5630 h1        1 MED      0.048367
     19 HE3         5.0190   -0.3450    0.0480 h1        1 MED      0.048367
@<TRIPOS>BOND
     1    1    2 1   
     2    1   10 1   
     3    1   11 1   
     4    2    3 1   
     5    2    5 1   
     6    2   12 1   
     7    3    4 1   
     8    3    9 1   
     9    5    6 1   
    10    5   13 1   
    11    5   14 1   
    12    6    7 1   
    13    6   15 1   
    14    6   16 1   
    15    7    8 1   
    16    8   17 1   
    17    8   18 1   
    18    8   19 1   
@<TRIPOS>SUBSTRUCTURE
     1 MED         1 TEMP              0 ****  ****    0 ROOT
