@<TRIPOS>MOLECULE
MEE
    6     5     1     0     0
SMALL
bcc


@<TRIPOS>ATOM
      1 C          -0.4940    0.1600   -0.0930 c3        1 MEE     -0.024000
      2 S           1.2790    0.1600   -0.0930 sh        1 MEE     -0.362900
      3 H1         -0.8190    0.1600    0.8280 h1        1 MEE      0.063700
      4 H2         -0.8190    0.9570   -0.5530 h1        1 MEE      0.063700
      5 H3         -0.8190   -0.6370   -0.5530 h1        1 MEE      0.063700
      6 HS          1.6720   -0.8010    0.4630 hs        1 MEE      0.195800
@<TRIPOS>BOND
     1    1    2 1   
     2    1    3 1   
     3    1    4 1   
     4    1    5 1   
     5    2    6 1   
@<TRIPOS>SUBSTRUCTURE
     1 MEE         1 TEMP              0 ****  ****    0 ROOT
