@<TRIPOS>MOLECULE
MEE
    6     5     1     0     0
SMALL
bcc


@<TRIPOS>ATOM
      1 C           0.0530    0.0260    0.0150 c3        1 MEE     -0.024000
      2 S           1.8040   -0.0600   -0.0350 sh        1 MEE     -0.362900
      3 H1         -0.3370    0.0220    1.0570 h1        1 MEE      0.063700
      4 H2         -0.3140   -0.8860   -0.5120 h1        1 MEE      0.063700
      5 H3         -0.3360    0.9260   -0.5090 h1        1 MEE      0.063700
      6 HS          2.0980    1.0550    0.6090 hs        1 MEE      0.195800
@<TRIPOS>BOND
     1    1    2 1   
     2    1    3 1   
     3    1    4 1   
     4    1    5 1   
     5    2    6 1   
@<TRIPOS>SUBSTRUCTURE
     1 MEE         1 TEMP              0 ****  ****    0 ROOT
