@<TRIPOS>MOLECULE
MEE
    6     5     1     0     0
SMALL
bcc


@<TRIPOS>ATOM
      1 C           0.2870    0.8270    0.6400 c3        1 MEE     -0.024000
      2 S          -0.4090    2.3300    0.0640 sh        1 MEE     -0.362900
      3 H1          1.3960    0.8780    0.7060 h1        1 MEE      0.063700
      4 H2          0.0060   -0.0370   -0.0020 h1        1 MEE      0.063700
      5 H3         -0.1290    0.6690    1.6620 h1        1 MEE      0.063700
      6 HS          0.1560    2.3920   -1.1280 hs        1 MEE      0.195800
@<TRIPOS>BOND
     1    1    2 1   
     2    1    3 1   
     3    1    4 1   
     4    1    5 1   
     5    2    6 1   
@<TRIPOS>SUBSTRUCTURE
     1 MEE         1 TEMP              0 ****  ****    0 ROOT
