@<TRIPOS>MOLECULE
MEF
   56    59     1     0     0
SMALL
bcc


@<TRIPOS>ATOM
      1 OE2         0.9540    2.3060   -1.5140 oh        1 MEF     -0.590100
      2 CD          0.1580    1.5400   -2.3200 c         1 MEF      0.629100
      3 OE1        -0.8040    1.0440   -1.7330 o         1 MEF     -0.502000
      4 CG          0.5210    1.3730   -3.7640 c3        1 MEF     -0.179400
      5 CB          0.5630    2.6980   -4.4990 c3        1 MEF     -0.075400
      6 CA          1.8980    2.9200   -5.2200 c3        1 MEF      0.001700
      7 CT          1.7360    4.1160   -6.1790 c         1 MEF      0.891600
      8 O1          1.7380    3.9370   -7.4330 o         1 MEF     -0.862300
      9 O2          1.6520    5.3060   -5.7170 o         1 MEF     -0.862300
     10 N           3.0020    3.1560   -4.3010 n         1 MEF     -0.541900
     11 C           4.2320    2.5290   -4.5460 c         1 MEF      0.657700
     12 O           4.2920    1.3480   -4.9300 o         1 MEF     -0.567100
     13 N10         8.3110    6.4860   -4.4300 nh        1 MEF     -0.583000
     14 CM          7.4910    7.7310   -4.4320 c3        1 MEF      0.362000
     15 N5          7.2330    8.1510   -5.8380 nh        1 MEF     -0.565400
     16 C9          9.1650    6.6610   -5.6110 c3        1 MEF      0.131800
     17 C6          8.4250    7.6620   -6.5770 c3        1 MEF      0.099500
     18 C7          8.1640    6.9970   -7.9400 c3        1 MEF      0.162800
     19 N8          6.9580    7.3890   -8.6250 nh        1 MEF     -0.684000
     20 C8A         5.8330    7.4890   -7.7570 cc        1 MEF      0.263600
     21 C4A         5.9840    7.8070   -6.3960 cd        1 MEF     -0.040200
     22 N1          4.5960    7.1540   -8.3230 nc        1 MEF     -0.575300
     23 C2          3.5640    7.0320   -7.4930 cd        1 MEF      0.545800
     24 NA2         2.3030    6.4700   -8.0460 n4        1 MEF     -0.829600
     25 N3          3.5700    7.3910   -6.1460 n         1 MEF     -0.459400
     26 C4          4.7590    7.8700   -5.5590 c         1 MEF      0.704700
     27 O4          4.6710    8.3220   -4.4060 o         1 MEF     -0.591500
     28 C11         5.4490    3.3670   -4.3440 ca        1 MEF     -0.166600
     29 C12         6.4200    3.3590   -5.3490 ca        1 MEF     -0.077000
     30 C13         6.5990    5.1970   -3.2660 ca        1 MEF     -0.163000
     31 C16         5.5920    4.2390   -3.2620 ca        1 MEF     -0.077000
     32 C15         7.4180    4.3290   -5.3720 ca        1 MEF     -0.163000
     33 C14         7.4680    5.3280   -4.3790 ca        1 MEF      0.099600
     34 HG         -0.2350    0.6930   -4.2390 hc        1 MEF      0.087700
     35 HGA         1.5170    0.8520   -3.8150 hc        1 MEF      0.087700
     36 HB         -0.2420    2.7180   -5.2810 hc        1 MEF      0.066200
     37 HBA         0.3640    3.5540   -3.8010 hc        1 MEF      0.066200
     38 HA          2.1300    2.0020   -5.8410 h1        1 MEF      0.101700
     39 HN          3.0590    4.1130   -4.0140 hn        1 MEF      0.297500
     40 HM          6.5600    7.6220   -3.8140 h2        1 MEF      0.104700
     41 HMA         8.1340    8.5470   -3.9870 h2        1 MEF      0.104700
     42 H9          9.4350    5.7060   -6.1220 h1        1 MEF      0.075200
     43 H9A        10.1140    7.1410   -5.2470 h1        1 MEF      0.075200
     44 H6          9.0710    8.5730   -6.7260 h1        1 MEF      0.086700
     45 H7          8.0970    5.8790   -7.7980 h1        1 MEF      0.071700
     46 H7A         9.0420    7.2090   -8.6120 h1        1 MEF      0.071700
     47 HN8         7.0540    8.2010   -9.2040 hn        1 MEF      0.407800
     48 HNA2        2.4790    5.4860   -8.3730 hn        1 MEF      0.493800
     49 HNAA        1.9580    7.0520   -8.8050 hn        1 MEF      0.493800
     50 HN3         2.8000    7.1460   -5.5400 hn        1 MEF      0.391500
     51 H12         6.3670    2.5990   -6.1460 ha        1 MEF      0.153500
     52 H13         6.6940    5.8800   -2.4070 ha        1 MEF      0.144000
     53 H16         4.9010    4.1840   -2.4060 ha        1 MEF      0.153500
     54 H15         8.1400    4.3000   -6.2010 ha        1 MEF      0.144000
     55 H2          1.6960    2.6550   -2.0290 ho        1 MEF      0.434000
     56 HA23        1.5850    6.3460   -7.2740 hn        1 MEF      0.493800
@<TRIPOS>BOND
     1    1    2 1   
     2    1   55 1   
     3    2    3 2   
     4    2    4 1   
     5    4    5 1   
     6    4   34 1   
     7    4   35 1   
     8    5    6 1   
     9    5   36 1   
    10    5   37 1   
    11    6    7 1   
    12    6   10 1   
    13    6   38 1   
    14    7    8 1   
    15    7    9 1   
    16   10   11 1   
    17   10   39 1   
    18   11   12 2   
    19   11   28 1   
    20   13   14 1   
    21   13   16 1   
    22   13   33 1   
    23   14   15 1   
    24   14   40 1   
    25   14   41 1   
    26   15   17 1   
    27   15   21 1   
    28   16   17 1   
    29   16   42 1   
    30   16   43 1   
    31   17   18 1   
    32   17   44 1   
    33   18   19 1   
    34   18   45 1   
    35   18   46 1   
    36   19   20 1   
    37   19   47 1   
    38   20   21 2   
    39   20   22 1   
    40   21   26 1   
    41   22   23 2   
    42   23   24 1   
    43   23   25 1   
    44   24   48 1   
    45   24   49 1   
    46   24   56 1   
    47   25   26 1   
    48   25   50 1   
    49   26   27 2   
    50   28   29 ar  
    51   28   31 ar  
    52   29   32 ar  
    53   29   51 1   
    54   30   31 ar  
    55   30   33 ar  
    56   30   52 1   
    57   31   53 1   
    58   32   33 ar  
    59   32   54 1   
@<TRIPOS>SUBSTRUCTURE
     1 MEF         1 TEMP              0 ****  ****    0 ROOT
