@<TRIPOS>MOLECULE
MEF
   56    59     1     0     0
SMALL
bcc


@<TRIPOS>ATOM
      1 OE2         1.2560    1.2840   -0.0180 oh        1 MEF     -0.583100
      2 CD          1.0560    0.1080   -0.6890 c         1 MEF      0.625100
      3 OE1         0.5410   -0.7710   -0.0000 o         1 MEF     -0.484000
      4 CG          1.4700    0.0110   -2.1260 c3        1 MEF     -0.183400
      5 CB          0.5360    0.8060   -3.0140 c3        1 MEF     -0.091400
      6 CA          1.1720    1.0300   -4.4010 c3        1 MEF      0.072700
      7 CT          0.0290    1.2430   -5.3870 c         1 MEF      0.617100
      8 O1         -0.5450    0.3820   -6.0540 o         1 MEF     -0.529000
      9 O2         -0.4150    2.5240   -5.5110 oh        1 MEF     -0.613100
     10 N           2.1400    2.0940   -4.4340 ns        1 MEF     -0.580900
     11 C           3.5050    1.8460   -4.4360 c         1 MEF      0.685700
     12 O           3.9250    0.6780   -4.2960 o         1 MEF     -0.613100
     13 N10         7.2150    6.1370   -5.0840 nh        1 MEF     -0.646000
     14 CM          6.7560    7.5380   -5.1320 c3        1 MEF      0.413000
     15 N5          7.6170    8.3250   -6.0500 nh        1 MEF     -0.550400
     16 C9          8.3580    5.9970   -5.9780 c3        1 MEF      0.171800
     17 C6          8.5980    7.3920   -6.6340 c3        1 MEF      0.150500
     18 C7          8.5660    7.2530   -8.1710 c3        1 MEF      0.176800
     19 N8          8.3680    8.5210   -8.8270 nu        1 MEF     -0.714000
     20 C8A         7.3220    9.3060   -8.3160 cc        1 MEF      0.371600
     21 C4A         6.9260    9.1520   -6.9720 cd        1 MEF     -0.165200
     22 N1          6.7700   10.2700   -9.1620 nc        1 MEF     -0.705300
     23 C2          5.8120   11.0730   -8.6660 cd        1 MEF      0.679800
     24 NA2         5.1710   11.9930   -9.5290 nv        1 MEF     -0.888800
     25 N3          5.3570   10.9950   -7.3410 ns        1 MEF     -0.494400
     26 C4          5.8640   10.0210   -6.4550 c         1 MEF      0.724700
     27 O4          5.3520    9.9760   -5.3190 o         1 MEF     -0.643500
     28 C11         4.4230    2.9990   -4.6020 ca        1 MEF     -0.199600
     29 C12         5.6930    2.7450   -5.1380 ca        1 MEF     -0.048000
     30 C13         4.9970    5.3440   -4.4090 ca        1 MEF     -0.202000
     31 C16         4.0950    4.3050   -4.2280 ca        1 MEF     -0.048000
     32 C15         6.6040    3.7730   -5.3300 ca        1 MEF     -0.202000
     33 C14         6.2740    5.1090   -4.9830 ca        1 MEF      0.192600
     34 HG          2.5290    0.3760   -2.2360 hc        1 MEF      0.094200
     35 HGA         1.4600   -1.0710   -2.4310 hc        1 MEF      0.094200
     36 HB         -0.4240    0.2380   -3.1480 hc        1 MEF      0.067200
     37 HBA         0.2820    1.7890   -2.5390 hc        1 MEF      0.067200
     38 HA          1.6880    0.0640   -4.7110 h1        1 MEF      0.122700
     39 HN          1.7990    3.0140   -4.5860 hn        1 MEF      0.328500
     40 HM          5.6640    7.6140   -5.4130 h2        1 MEF      0.079200
     41 HMA         6.9040    7.9830   -4.1040 h2        1 MEF      0.079200
     42 H9          8.1980    5.2120   -6.7660 h1        1 MEF      0.059700
     43 H9A         9.2500    5.7050   -5.3600 h1        1 MEF      0.059700
     44 H6          9.6100    7.7850   -6.3290 h1        1 MEF      0.092700
     45 H7          9.5550    6.8400   -8.5150 h1        1 MEF      0.049200
     46 H7A         7.7590    6.5160   -8.4590 h1        1 MEF      0.049200
     47 HN8         8.4730    8.5070   -9.8190 hn        1 MEF      0.430800
     48 HNA2        5.6030   12.0870  -10.4240 hn        1 MEF      0.419300
     49 HNAA        4.9200   12.8610   -9.1100 hn        1 MEF      0.419300
     50 HN3         4.6200   11.5810   -7.0130 hn        1 MEF      0.339500
     51 H12         5.9670    1.7090   -5.4000 ha        1 MEF      0.144000
     52 H13         4.7110    6.3540   -4.0760 ha        1 MEF      0.144000
     53 H16         3.1230    4.5360   -3.7640 ha        1 MEF      0.144000
     54 H15         7.5970    3.5260   -5.7330 ha        1 MEF      0.144000
     55 H2          1.6840    1.9250   -0.6010 ho        1 MEF      0.424000
     56 HA23       -1.1460    2.5570   -6.1510 ho        1 MEF      0.452000
@<TRIPOS>BOND
     1    1    2 1   
     2    1   55 1   
     3    2    3 2   
     4    2    4 1   
     5    4    5 1   
     6    4   34 1   
     7    4   35 1   
     8    5    6 1   
     9    5   36 1   
    10    5   37 1   
    11    6    7 1   
    12    6   10 1   
    13    6   38 1   
    14    7    8 2   
    15    7    9 1   
    16    9   56 1   
    17   10   11 1   
    18   10   39 1   
    19   11   12 2   
    20   11   28 1   
    21   13   14 1   
    22   13   16 1   
    23   13   33 1   
    24   14   15 1   
    25   14   40 1   
    26   14   41 1   
    27   15   17 1   
    28   15   21 1   
    29   16   17 1   
    30   16   42 1   
    31   16   43 1   
    32   17   18 1   
    33   17   44 1   
    34   18   19 1   
    35   18   45 1   
    36   18   46 1   
    37   19   20 1   
    38   19   47 1   
    39   20   21 2   
    40   20   22 1   
    41   21   26 1   
    42   22   23 2   
    43   23   24 1   
    44   23   25 1   
    45   24   48 1   
    46   24   49 1   
    47   25   26 1   
    48   25   50 1   
    49   26   27 2   
    50   28   29 ar  
    51   28   31 ar  
    52   29   32 ar  
    53   29   51 1   
    54   30   31 ar  
    55   30   33 ar  
    56   30   52 1   
    57   31   53 1   
    58   32   33 ar  
    59   32   54 1   
@<TRIPOS>SUBSTRUCTURE
     1 MEF         1 TEMP              0 ****  ****    0 ROOT
