@<TRIPOS>MOLECULE
MEF
   54    57     1     0     0
SMALL
bcc


@<TRIPOS>ATOM
      1 OE2        -0.7530    2.5610   -0.4060 o         1 MEF     -0.891800
      2 CD         -1.7470    2.4710   -1.2050 c         1 MEF      0.903600
      3 OE1        -1.6180    2.8920   -2.3980 o         1 MEF     -0.891800
      4 CG         -3.0600    1.8820   -0.7170 c3        1 MEF     -0.167400
      5 CB         -3.5550    0.7410   -1.5820 c3        1 MEF     -0.078400
      6 CA         -4.1220   -0.4580   -0.7980 c3        1 MEF     -0.038300
      7 CT         -4.7630   -1.4380   -1.8420 c         1 MEF      0.919600
      8 O1         -6.0070   -1.3280   -2.0290 o         1 MEF     -0.847300
      9 O2         -4.0220   -2.2650   -2.4430 o         1 MEF     -0.847300
     10 N          -3.1140   -1.1350   -0.0040 n         1 MEF     -0.499900
     11 C          -2.8400   -0.8020    1.2980 c         1 MEF      0.662700
     12 O          -3.6930   -0.3590    2.0990 o         1 MEF     -0.644100
     13 N10         2.7120   -1.4430    2.6630 nh        1 MEF     -0.602000
     14 CM          3.5850   -0.2550    2.5050 c3        1 MEF      0.353000
     15 N5          4.2310   -0.2360    1.1610 nh        1 MEF     -0.528400
     16 C9          3.3540   -2.4480    1.8000 c3        1 MEF      0.132800
     17 C6          4.3170   -1.6810    0.8200 c3        1 MEF      0.133500
     18 C7          4.0480   -2.1010   -0.6330 c3        1 MEF      0.175800
     19 N8          4.1480   -1.0180   -1.5890 nh        1 MEF     -0.691000
     20 C8A         3.4560    0.1530   -1.1710 cc        1 MEF      0.365600
     21 C4A         3.5540    0.5510    0.1770 cd        1 MEF     -0.205200
     22 N1          2.7280    0.8370   -2.1270 nc        1 MEF     -0.760300
     23 C2          2.0020    1.9160   -1.7150 cd        1 MEF      0.721800
     24 NA2         1.1920    2.5990   -2.6280 nh        1 MEF     -0.870800
     25 N3          2.1310    2.4540   -0.4240 n         1 MEF     -0.467400
     26 C4          2.9740    1.8530    0.5290 c         1 MEF      0.723700
     27 O4          3.1670    2.4810    1.5950 o         1 MEF     -0.687500
     28 C11        -1.4200   -1.0080    1.7400 ca        1 MEF     -0.148600
     29 C12        -0.9010   -2.2430    2.1210 ca        1 MEF     -0.084000
     30 C13         0.4510   -2.3740    2.4330 ca        1 MEF     -0.173000
     31 C16        -0.5870    0.1150    1.7230 ca        1 MEF     -0.084000
     32 C15         0.7550   -0.0060    2.0620 ca        1 MEF     -0.173000
     33 C14         1.3190   -1.2590    2.3770 ca        1 MEF      0.085600
     34 HG         -2.9300    1.5510    0.3470 hc        1 MEF      0.031700
     35 HGA        -3.8190    2.7070   -0.7130 hc        1 MEF      0.031700
     36 HB         -4.3800    1.1050   -2.2500 hc        1 MEF      0.050700
     37 HBA        -2.7300    0.3850   -2.2540 hc        1 MEF      0.050700
     38 HA         -4.9330   -0.1000   -0.1030 h1        1 MEF      0.067700
     39 HN         -2.3840   -1.5380   -0.5490 hn        1 MEF      0.309500
     40 HM          3.0780    0.7090    2.7720 h2        1 MEF      0.083200
     41 HMA         4.4360   -0.4110    3.2340 h2        1 MEF      0.083200
     42 H9          3.9630   -3.1180    2.4620 h1        1 MEF      0.050200
     43 H9A         2.6080   -3.0750    1.2470 h1        1 MEF      0.050200
     44 H6          5.3790   -1.9630    1.0710 h1        1 MEF      0.056700
     45 H7          4.8200   -2.8670   -0.9280 h1        1 MEF      0.033200
     46 H7A         3.0370   -2.6020   -0.6950 h1        1 MEF      0.033200
     47 HN8         3.8910   -1.3210   -2.5110 hn        1 MEF      0.394800
     48 HNA2        0.9340    2.0590   -3.4280 hn        1 MEF      0.453800
     49 HNAA        0.3850    3.0730   -2.2200 hn        1 MEF      0.453800
     50 HN3         1.4270    3.0950   -0.0970 hn        1 MEF      0.378500
     51 H12        -1.5560   -3.1260    2.1560 ha        1 MEF      0.165000
     52 H13         0.8410   -3.3630    2.7130 ha        1 MEF      0.131000
     53 H16        -0.9760    1.0980    1.3810 ha        1 MEF      0.165000
     54 H15         1.3580    0.9150    2.0400 ha        1 MEF      0.131000
@<TRIPOS>BOND
     1    1    2 1   
     2    2    3 1   
     3    2    4 1   
     4    4    5 1   
     5    4   34 1   
     6    4   35 1   
     7    5    6 1   
     8    5   36 1   
     9    5   37 1   
    10    6    7 1   
    11    6   10 1   
    12    6   38 1   
    13    7    8 1   
    14    7    9 1   
    15   10   11 1   
    16   10   39 1   
    17   11   12 2   
    18   11   28 1   
    19   13   14 1   
    20   13   16 1   
    21   13   33 1   
    22   14   15 1   
    23   14   40 1   
    24   14   41 1   
    25   15   17 1   
    26   15   21 1   
    27   16   17 1   
    28   16   42 1   
    29   16   43 1   
    30   17   18 1   
    31   17   44 1   
    32   18   19 1   
    33   18   45 1   
    34   18   46 1   
    35   19   20 1   
    36   19   47 1   
    37   20   21 2   
    38   20   22 1   
    39   21   26 1   
    40   22   23 2   
    41   23   24 1   
    42   23   25 1   
    43   24   48 1   
    44   24   49 1   
    45   25   26 1   
    46   25   50 1   
    47   26   27 2   
    48   28   29 ar  
    49   28   31 ar  
    50   29   30 ar  
    51   29   51 1   
    52   30   33 ar  
    53   30   52 1   
    54   31   32 ar  
    55   31   53 1   
    56   32   33 ar  
    57   32   54 1   
@<TRIPOS>SUBSTRUCTURE
     1 MEF         1 TEMP              0 ****  ****    0 ROOT
