@<TRIPOS>MOLECULE
MEG
   20    19     1     0     0
SMALL
bcc


@<TRIPOS>ATOM
      1 N           1.2080    2.0290   -0.1150 n3        1 MEG     -0.910800
      2 CA          1.0930    0.6890    0.4500 c3        1 MEG      0.039500
      3 CB         -0.1650   -0.0890   -0.0060 c3        1 MEG     -0.054700
      4 CG         -1.4320    0.5110    0.5880 c3        1 MEG     -0.179400
      5 CD         -2.7100    0.0470   -0.1220 c         1 MEG      0.903600
      6 OE1        -3.0870    0.6580   -1.1680 o         1 MEG     -0.877300
      7 OE2        -3.3850   -0.9030    0.3830 o         1 MEG     -0.877300
      8 C           2.3810   -0.1500    0.1790 c         1 MEG      0.912600
      9 O           2.9270   -0.0840   -0.9640 o         1 MEG     -0.867300
     10 C1         -0.0500   -1.5460    0.3890 c3        1 MEG     -0.081100
     11 H           1.8730    2.0010   -0.8700 hn        1 MEG      0.329300
     12 H2          0.3260    2.3050   -0.5080 hn        1 MEG      0.329300
     13 HA          1.0150    0.8230    1.5690 h1        1 MEG      0.035700
     14 HB         -0.2390   -0.0300   -1.1280 hc        1 MEG      0.044700
     15 HG2        -1.4980    0.2310    1.6700 hc        1 MEG      0.015200
     16 HG3        -1.3990    1.6280    0.5260 hc        1 MEG      0.015200
     17 H11        -1.0320   -2.0560    0.2370 hc        1 MEG      0.029367
     18 H12         0.7370   -2.0500   -0.2220 hc        1 MEG      0.029367
     19 H13         0.2450   -1.6330    1.4630 hc        1 MEG      0.029367
     20 OXT         2.8540   -0.8400    1.1280 o         1 MEG     -0.867300
@<TRIPOS>BOND
     1    1    2 1   
     2    1   11 1   
     3    1   12 1   
     4    2    3 1   
     5    2    8 1   
     6    2   13 1   
     7    3    4 1   
     8    3   10 1   
     9    3   14 1   
    10    4    5 1   
    11    4   15 1   
    12    4   16 1   
    13    5    6 1   
    14    5    7 1   
    15    8    9 1   
    16    8   20 1   
    17   10   17 1   
    18   10   18 1   
    19   10   19 1   
@<TRIPOS>SUBSTRUCTURE
     1 MEG         1 TEMP              0 ****  ****    0 ROOT
