@<TRIPOS>MOLECULE
MEI
   46    45     1     0     0
SMALL
bcc


@<TRIPOS>ATOM
      1 C1          0.3070   -0.5360    0.4930 c3        1 MEI      0.119700
      2 O1          1.6900   -0.2490    0.5000 os        1 MEI     -0.418600
      3 C2          2.2220    0.1850    1.7640 c3        1 MEI      0.148800
      4 C3          1.4010    1.3200    2.3580 c3        1 MEI     -0.117600
      5 C4          2.2720   -0.9910    2.7360 c3        1 MEI     -0.117600
      6 C5          3.6560    0.6360    1.4500 c3        1 MEI     -0.066400
      7 C6          3.7190    1.8620    0.5670 c3        1 MEI     -0.078400
      8 C7          5.1530    2.2000    0.2160 c3        1 MEI     -0.077400
      9 C8          5.2590    3.4690   -0.6190 c3        1 MEI     -0.064700
     10 C9          4.8950    3.1990   -2.0650 c3        1 MEI     -0.088100
     11 C10         6.6700    4.0470   -0.5380 c3        1 MEI     -0.027200
     12 C11         6.9640    4.6570    0.7770 c2        1 MEI     -0.248200
     13 C12         8.0750    5.3070    1.1460 ce        1 MEI     -0.072000
     14 C13         9.2870    5.5740    0.3900 ce        1 MEI     -0.150200
     15 C14         9.6320    4.6840   -0.7490 c3        1 MEI     -0.041900
     16 C15        10.1060    6.5900    0.7250 cf        1 MEI     -0.154200
     17 C16         9.9120    7.5960    1.8370 c         1 MEI      0.893800
     18 O2          9.5170    7.2070    2.9740 o         1 MEI     -0.836300
     19 O3         10.1970    8.7990    1.5680 o         1 MEI     -0.836300
     20 H11A        0.1180   -0.9500   -0.5300 h1        1 MEI      0.026367
     21 H12A       -0.2940    0.3940    0.6480 h1        1 MEI      0.026367
     22 H13         0.0410   -1.2930    1.2710 h1        1 MEI      0.026367
     23 H31         0.4450    0.9330    2.7840 hc        1 MEI      0.041033
     24 H32         1.9810    1.8160    3.1720 hc        1 MEI      0.041033
     25 H33         1.1630    2.0750    1.5720 hc        1 MEI      0.041033
     26 H41         2.7850   -1.8570    2.2560 hc        1 MEI      0.041033
     27 H42         2.8340   -0.6960    3.6540 hc        1 MEI      0.041033
     28 H43         1.2440   -1.3040    3.0340 hc        1 MEI      0.041033
     29 H51         4.1870   -0.2140    0.9460 hc        1 MEI      0.048700
     30 H52         4.1750    0.8410    2.4220 hc        1 MEI      0.048700
     31 H61         3.2500    2.7340    1.0950 hc        1 MEI      0.043700
     32 H62         3.1240    1.6760   -0.3660 hc        1 MEI      0.043700
     33 H71         5.6170    1.3450   -0.3430 hc        1 MEI      0.043200
     34 H72         5.7410    2.3370    1.1620 hc        1 MEI      0.043200
     35 H8          4.5390    4.2310   -0.2070 hc        1 MEI      0.047700
     36 H91         3.8750    2.7510   -2.1360 hc        1 MEI      0.026367
     37 H92         5.6250    2.4920   -2.5270 hc        1 MEI      0.026367
     38 H93         4.9070    4.1500   -2.6510 hc        1 MEI      0.026367
     39 H101        6.7850    4.8240   -1.3430 hc        1 MEI      0.038200
     40 H102        7.4070    3.2290   -0.7610 hc        1 MEI      0.038200
     41 H11         6.1470    4.5720    1.5160 ha        1 MEI      0.101000
     42 H12         8.1150    5.7450    2.1720 ha        1 MEI      0.177000
     43 H141       10.6840    4.8530   -1.0890 hc        1 MEI      0.018700
     44 H142        8.9550    4.8730   -1.6190 hc        1 MEI      0.018700
     45 H143        9.5330    3.6100   -0.4520 hc        1 MEI      0.018700
     46 H15        11.0200    6.7730    0.1360 ha        1 MEI      0.098000
@<TRIPOS>BOND
     1    1    2 1   
     2    1   20 1   
     3    1   21 1   
     4    1   22 1   
     5    2    3 1   
     6    3    4 1   
     7    3    5 1   
     8    3    6 1   
     9    4   23 1   
    10    4   24 1   
    11    4   25 1   
    12    5   26 1   
    13    5   27 1   
    14    5   28 1   
    15    6    7 1   
    16    6   29 1   
    17    6   30 1   
    18    7    8 1   
    19    7   31 1   
    20    7   32 1   
    21    8    9 1   
    22    8   33 1   
    23    8   34 1   
    24    9   10 1   
    25    9   11 1   
    26    9   35 1   
    27   10   36 1   
    28   10   37 1   
    29   10   38 1   
    30   11   12 1   
    31   11   39 1   
    32   11   40 1   
    33   12   13 2   
    34   12   41 1   
    35   13   14 1   
    36   13   42 1   
    37   14   15 1   
    38   14   16 2   
    39   15   43 1   
    40   15   44 1   
    41   15   45 1   
    42   16   17 1   
    43   16   46 1   
    44   17   18 1   
    45   17   19 1   
@<TRIPOS>SUBSTRUCTURE
     1 MEI         1 TEMP              0 ****  ****    0 ROOT
