@<TRIPOS>MOLECULE
MEI
   46    45     1     0     0
SMALL
bcc


@<TRIPOS>ATOM
      1 C1          0.4520    1.2330    0.5090 c3        1 MEI      0.126700
      2 O1          1.7700    0.7760    0.7180 os        1 MEI     -0.433600
      3 C2          2.4780    1.4190    1.8000 c3        1 MEI      0.153800
      4 C3          2.2530    2.9200    1.8270 c3        1 MEI     -0.122100
      5 C4          2.0260    0.7960    3.1200 c3        1 MEI     -0.122100
      6 C5          3.9530    1.0650    1.5600 c3        1 MEI     -0.057400
      7 C6          4.6070    1.9210    0.4980 c3        1 MEI     -0.100400
      8 C7          6.0120    1.4350    0.2070 c3        1 MEI     -0.063400
      9 C8          6.7200    2.3380   -0.7940 c3        1 MEI     -0.072700
     10 C9          6.4360    1.9010   -2.2160 c3        1 MEI     -0.084100
     11 C10         8.2260    2.3680   -0.5460 c3        1 MEI     -0.024200
     12 C11         8.5720    2.9500    0.7730 c2        1 MEI     -0.217200
     13 C12         8.2950    4.1880    1.1990 ce        1 MEI     -0.068000
     14 C13         7.6200    5.2500    0.4580 ce        1 MEI     -0.154200
     15 C14         8.2430    5.6810   -0.8190 c3        1 MEI     -0.037900
     16 C15         6.5020    5.8230    0.9290 cf        1 MEI     -0.165200
     17 C16         5.7820    5.4140    2.1920 c         1 MEI      0.899800
     18 O2          6.3610    5.5560    3.3050 o         1 MEI     -0.841800
     19 O3          4.6040    4.9630    2.0620 o         1 MEI     -0.841800
     20 H11A       -0.1510    1.1980    1.4500 h1        1 MEI      0.019700
     21 H12A        0.4500    2.2750    0.1010 h1        1 MEI      0.019700
     22 H13         0.0270    0.5250   -0.2470 h1        1 MEI      0.019700
     23 H31         1.2400    3.1560    2.2300 hc        1 MEI      0.047033
     24 H32         2.3430    3.3460    0.7990 hc        1 MEI      0.047033
     25 H33         3.0310    3.4190    2.4640 hc        1 MEI      0.047033
     26 H41         2.2190   -0.3020    3.1120 hc        1 MEI      0.047033
     27 H42         0.9350    0.9650    3.2800 hc        1 MEI      0.047033
     28 H43         2.5880    1.2630    3.9630 hc        1 MEI      0.047033
     29 H51         4.5010    1.1980    2.5290 hc        1 MEI      0.039700
     30 H52         4.0130   -0.0170    1.2710 hc        1 MEI      0.039700
     31 H61         3.9910    1.8940   -0.4370 hc        1 MEI      0.072200
     32 H62         4.6490    2.9910    0.8580 hc        1 MEI      0.072200
     33 H71         5.9850    0.3830   -0.1800 hc        1 MEI      0.030700
     34 H72         6.5950    1.4230    1.1670 hc        1 MEI      0.030700
     35 H8          6.3360    3.3920   -0.6560 hc        1 MEI      0.083700
     36 H91         6.8730    0.8930   -2.4160 hc        1 MEI      0.021367
     37 H92         6.8770    2.6270   -2.9410 hc        1 MEI      0.021367
     38 H93         5.3340    1.8490   -2.3880 hc        1 MEI      0.021367
     39 H101        8.7140    2.9680   -1.3630 hc        1 MEI      0.022200
     40 H102        8.6300    1.3230   -0.6170 hc        1 MEI      0.022200
     41 H11         9.0820    2.2530    1.4590 ha        1 MEI      0.099000
     42 H12         8.5330    4.4740    2.2430 ha        1 MEI      0.145000
     43 H141        7.9310    6.7200   -1.0870 hc        1 MEI      0.020700
     44 H142        7.9330    4.9990   -1.6510 hc        1 MEI      0.020700
     45 H143        9.3580    5.6560   -0.7470 hc        1 MEI      0.020700
     46 H15         6.0090    6.6340    0.3710 ha        1 MEI      0.100000
@<TRIPOS>BOND
     1    1    2 1   
     2    1   20 1   
     3    1   21 1   
     4    1   22 1   
     5    2    3 1   
     6    3    4 1   
     7    3    5 1   
     8    3    6 1   
     9    4   23 1   
    10    4   24 1   
    11    4   25 1   
    12    5   26 1   
    13    5   27 1   
    14    5   28 1   
    15    6    7 1   
    16    6   29 1   
    17    6   30 1   
    18    7    8 1   
    19    7   31 1   
    20    7   32 1   
    21    8    9 1   
    22    8   33 1   
    23    8   34 1   
    24    9   10 1   
    25    9   11 1   
    26    9   35 1   
    27   10   36 1   
    28   10   37 1   
    29   10   38 1   
    30   11   12 1   
    31   11   39 1   
    32   11   40 1   
    33   12   13 2   
    34   12   41 1   
    35   13   14 1   
    36   13   42 1   
    37   14   15 1   
    38   14   16 2   
    39   15   43 1   
    40   15   44 1   
    41   15   45 1   
    42   16   17 1   
    43   16   46 1   
    44   17   18 1   
    45   17   19 1   
@<TRIPOS>SUBSTRUCTURE
     1 MEI         1 TEMP              0 ****  ****    0 ROOT
