@<TRIPOS>MOLECULE
MEI
   46    45     1     0     0
SMALL
bcc


@<TRIPOS>ATOM
      1 C1          6.7890    0.8590    1.1530 c3        1 MEI      0.118700
      2 O1          5.7760    0.0330    0.6170 os        1 MEI     -0.418600
      3 C2          5.2980    0.4120   -0.6860 c3        1 MEI      0.148800
      4 C3          4.9460    1.8910   -0.7490 c3        1 MEI     -0.117600
      5 C4          6.3510    0.0790   -1.7390 c3        1 MEI     -0.117600
      6 C5          4.0610   -0.4680   -0.9180 c3        1 MEI     -0.066400
      7 C6          2.9100   -0.1360    0.0060 c3        1 MEI     -0.079400
      8 C7          1.7750   -1.1230   -0.1680 c3        1 MEI     -0.075400
      9 C8          0.5290   -0.7160    0.6070 c3        1 MEI     -0.064700
     10 C9          0.7590   -0.8240    2.1000 c3        1 MEI     -0.086100
     11 C10        -0.6550   -1.5790    0.1780 c3        1 MEI     -0.028200
     12 C11        -1.9550   -0.9590    0.5280 c2        1 MEI     -0.242200
     13 C12        -2.9490   -0.7850   -0.3560 ce        1 MEI     -0.076000
     14 C13        -4.2480   -0.2000   -0.0600 ce        1 MEI     -0.149200
     15 C14        -4.4810    0.2830    1.3230 c3        1 MEI     -0.048900
     16 C15        -5.1820   -0.1140   -1.0270 cf        1 MEI     -0.146200
     17 C16        -6.5930    0.4100   -0.8880 c         1 MEI      0.893800
     18 O2         -7.5020   -0.2670   -1.4540 o         1 MEI     -0.834300
     19 O3         -6.8080    1.4840   -0.2580 o         1 MEI     -0.834300
     20 H11A        6.3900    1.8760    1.3910 h1        1 MEI      0.027700
     21 H12A        7.0980    0.3370    2.0940 h1        1 MEI      0.027700
     22 H13         7.6580    0.9470    0.4560 h1        1 MEI      0.027700
     23 H31         5.8710    2.5140   -0.7910 hc        1 MEI      0.041200
     24 H32         4.3350    2.0930   -1.6600 hc        1 MEI      0.041200
     25 H33         4.3570    2.1850    0.1530 hc        1 MEI      0.041200
     26 H41         6.6720   -0.9840   -1.6310 hc        1 MEI      0.041200
     27 H42         5.9250    0.2310   -2.7590 hc        1 MEI      0.041200
     28 H43         7.2460    0.7350   -1.6270 hc        1 MEI      0.041200
     29 H51         3.7420   -0.3430   -1.9850 hc        1 MEI      0.046700
     30 H52         4.3610   -1.5390   -0.7690 hc        1 MEI      0.046700
     31 H61         3.2750   -0.1500    1.0670 hc        1 MEI      0.046700
     32 H62         2.5400    0.9010   -0.2080 hc        1 MEI      0.046700
     33 H71         1.5200   -1.1950   -1.2590 hc        1 MEI      0.035200
     34 H72         2.1060   -2.1410    0.1640 hc        1 MEI      0.035200
     35 H8          0.2900    0.3570    0.3590 hc        1 MEI      0.055700
     36 H91        -0.1760   -0.5680    2.6540 hc        1 MEI      0.030033
     37 H92         1.0600   -1.8630    2.3780 hc        1 MEI      0.030033
     38 H93         1.5650   -0.1230    2.4240 hc        1 MEI      0.030033
     39 H101       -0.5990   -1.7580   -0.9300 hc        1 MEI      0.031700
     40 H102       -0.5770   -2.5830    0.6770 hc        1 MEI      0.031700
     41 H11        -2.0670   -0.6520    1.5790 ha        1 MEI      0.119000
     42 H12        -2.8070   -1.1040   -1.4060 ha        1 MEI      0.100000
     43 H141       -5.4840    0.7780    1.4000 hc        1 MEI      0.036700
     44 H142       -4.4370   -0.5700    2.0460 hc        1 MEI      0.036700
     45 H143       -3.6970    1.0260    1.6120 hc        1 MEI      0.036700
     46 H15        -4.9600   -0.4870   -2.0420 ha        1 MEI      0.096000
@<TRIPOS>BOND
     1    1    2 1   
     2    1   20 1   
     3    1   21 1   
     4    1   22 1   
     5    2    3 1   
     6    3    4 1   
     7    3    5 1   
     8    3    6 1   
     9    4   23 1   
    10    4   24 1   
    11    4   25 1   
    12    5   26 1   
    13    5   27 1   
    14    5   28 1   
    15    6    7 1   
    16    6   29 1   
    17    6   30 1   
    18    7    8 1   
    19    7   31 1   
    20    7   32 1   
    21    8    9 1   
    22    8   33 1   
    23    8   34 1   
    24    9   10 1   
    25    9   11 1   
    26    9   35 1   
    27   10   36 1   
    28   10   37 1   
    29   10   38 1   
    30   11   12 1   
    31   11   39 1   
    32   11   40 1   
    33   12   13 2   
    34   12   41 1   
    35   13   14 1   
    36   13   42 1   
    37   14   15 1   
    38   14   16 2   
    39   15   43 1   
    40   15   44 1   
    41   15   45 1   
    42   16   17 1   
    43   16   46 1   
    44   17   18 1   
    45   17   19 1   
@<TRIPOS>SUBSTRUCTURE
     1 MEI         1 TEMP              0 ****  ****    0 ROOT
