@<TRIPOS>MOLECULE
MEJ
   44    46     1     0     0
SMALL
bcc


@<TRIPOS>ATOM
      1 CAI         0.2820    0.0050    0.0810 ca        1 MEJ     -0.103000
      2 CAE         1.5900   -0.4150    0.3090 ca        1 MEJ     -0.116000
      3 CAD         1.9420   -0.9730    1.5410 ca        1 MEJ     -0.078000
      4 CAF         0.9820   -1.1070    2.5460 ca        1 MEJ     -0.116000
      5 CAJ        -0.3280   -0.6840    2.3240 ca        1 MEJ     -0.103000
      6 CAS        -0.6820   -0.1300    1.0880 ca        1 MEJ     -0.191300
      7 CAX        -2.1010    0.2890    0.8540 c3        1 MEJ      0.203800
      8 CAA        -2.6820   -0.3320   -0.4060 c3        1 MEJ     -0.129100
      9 NAP        -2.1610    1.8110    0.8080 ny        1 MEJ     -0.691800
     10 CAR        -3.5790    2.3280    0.9060 c         1 MEJ      0.542100
     11 OAB        -4.1090    2.2170    2.0020 o         1 MEJ     -0.413100
     12 CAM        -4.1390    2.9160   -0.3540 c3        1 MEJ     -0.142400
     13 CAN        -5.5680    3.3770   -0.1340 c3        1 MEJ     -0.118700
     14 CAT        -6.1780    3.9770   -1.3920 cc        1 MEJ      0.479900
     15 NAO        -5.4760    4.0240   -2.5080 nd        1 MEJ     -0.646100
     16 CAV        -6.0730    4.5850   -3.6470 ca        1 MEJ      0.167400
     17 CAK        -5.3540    4.6570   -4.8630 ca        1 MEJ     -0.121000
     18 CAG        -5.9500    5.2130   -5.9870 ca        1 MEJ     -0.087000
     19 CAH        -7.2580    5.7080   -5.9400 ca        1 MEJ     -0.133000
     20 CAL        -7.9840    5.6480   -4.7570 ca        1 MEJ     -0.054000
     21 CAW        -7.4000    5.0910   -3.6130 ca        1 MEJ     -0.177600
     22 CAU        -8.1610    5.0240   -2.3520 c         1 MEJ      0.711100
     23 OAC        -9.3220    5.4260   -2.1830 o         1 MEJ     -0.587500
     24 NAQ        -7.4860    4.4460   -1.2550 ns        1 MEJ     -0.498400
     25 H1          0.0110    0.4250   -0.8990 ha        1 MEJ      0.138500
     26 H2          2.3470   -0.3130   -0.4850 ha        1 MEJ      0.161000
     27 H3          2.9760   -1.3100    1.7180 ha        1 MEJ      0.163000
     28 H4          1.2570   -1.5520    3.5160 ha        1 MEJ      0.161000
     29 H5         -1.0800   -0.8020    3.1200 ha        1 MEJ      0.138500
     30 H6         -2.7420   -0.0070    1.7430 hx        1 MEJ      0.116700
     31 H7         -2.1290   -0.0180   -1.3240 hc        1 MEJ      0.078033
     32 H8         -3.7640   -0.0760   -0.5220 hc        1 MEJ      0.078033
     33 H9         -2.5920   -1.4460   -0.3120 hc        1 MEJ      0.078033
     34 H10        -1.7270    2.1340   -0.0610 hn        1 MEJ      0.458800
     35 H11        -3.5000    3.7860   -0.6760 hc        1 MEJ      0.119700
     36 H12        -4.1010    2.1420   -1.1720 hc        1 MEJ      0.119700
     37 H13        -5.5930    4.1460    0.6860 hc        1 MEJ      0.088200
     38 H14        -6.2000    2.5060    0.1940 hc        1 MEJ      0.088200
     39 H15        -4.3240    4.2720   -4.9170 ha        1 MEJ      0.146000
     40 H16        -5.3840    5.2650   -6.9310 ha        1 MEJ      0.148000
     41 H17        -7.7120    6.1450   -6.8430 ha        1 MEJ      0.154000
     42 H18        -9.0160    6.0330   -4.7000 ha        1 MEJ      0.169000
     43 H19        -7.9570    4.3800   -0.3800 hn        1 MEJ      0.340500
     44 HAP2       -1.6130    2.1660    1.6020 hn        1 MEJ      0.458800
@<TRIPOS>BOND
     1    1    2 ar  
     2    1    6 ar  
     3    1   25 1   
     4    2    3 ar  
     5    2   26 1   
     6    3    4 ar  
     7    3   27 1   
     8    4    5 ar  
     9    4   28 1   
    10    5    6 ar  
    11    5   29 1   
    12    6    7 1   
    13    7    8 1   
    14    7    9 1   
    15    7   30 1   
    16    8   31 1   
    17    8   32 1   
    18    8   33 1   
    19    9   10 1   
    20    9   34 1   
    21    9   44 1   
    22   10   11 2   
    23   10   12 1   
    24   12   13 1   
    25   12   35 1   
    26   12   36 1   
    27   13   14 1   
    28   13   37 1   
    29   13   38 1   
    30   14   15 2   
    31   14   24 1   
    32   15   16 1   
    33   16   17 ar  
    34   16   21 ar  
    35   17   18 ar  
    36   17   39 1   
    37   18   19 ar  
    38   18   40 1   
    39   19   20 ar  
    40   19   41 1   
    41   20   21 ar  
    42   20   42 1   
    43   21   22 1   
    44   22   23 2   
    45   22   24 1   
    46   24   43 1   
@<TRIPOS>SUBSTRUCTURE
     1 MEJ         1 TEMP              0 ****  ****    0 ROOT
