@<TRIPOS>MOLECULE
MEJ
   43    45     1     0     0
SMALL
bcc


@<TRIPOS>ATOM
      1 CAI         5.0670    1.2530   -0.5580 ca        1 MEJ     -0.119000
      2 CAE         5.9010    2.0890    0.1840 ca        1 MEJ     -0.129500
      3 CAD         6.5260    1.6100    1.3350 ca        1 MEJ     -0.125000
      4 CAF         6.3130    0.2930    1.7440 ca        1 MEJ     -0.129500
      5 CAJ         5.4770   -0.5430    1.0060 ca        1 MEJ     -0.119000
      6 CAS         4.8540   -0.0680   -0.1520 ca        1 MEJ     -0.109300
      7 CAX         3.9590   -0.9880   -0.9530 c3        1 MEJ      0.142000
      8 CAA         4.5590   -1.1800   -2.3500 c3        1 MEJ     -0.101100
      9 NAP         2.5930   -0.5090   -1.0060 n         1 MEJ     -0.562900
     10 CAR         1.5530   -1.1560   -0.3710 c         1 MEJ      0.657100
     11 OAB         1.7060   -2.2710    0.1690 o         1 MEJ     -0.619100
     12 CAM         0.2010   -0.4600   -0.3990 c3        1 MEJ     -0.142400
     13 CAN        -0.8350   -1.3240    0.2850 c3        1 MEJ     -0.112700
     14 CAT        -2.2220   -0.7070    0.3110 cc        1 MEJ      0.496900
     15 NAO        -2.4500    0.4760   -0.2320 nd        1 MEJ     -0.636100
     16 CAV        -3.7490    0.9950   -0.1790 ca        1 MEJ      0.185400
     17 CAK        -4.0310    2.2610   -0.7500 ca        1 MEJ     -0.126000
     18 CAG        -5.3170    2.7740   -0.6970 ca        1 MEJ     -0.094000
     19 CAH        -6.3560    2.0610   -0.0840 ca        1 MEJ     -0.154000
     20 CAL        -6.1050    0.8200    0.4830 ca        1 MEJ     -0.058000
     21 CAW        -4.8120    0.2830    0.4390 ca        1 MEJ     -0.190600
     22 CAU        -4.5320   -1.0340    1.0380 c         1 MEJ      0.709100
     23 OAC        -5.3700   -1.7560    1.6070 o         1 MEJ     -0.622500
     24 NAQ        -3.2050   -1.4830    0.9420 n         1 MEJ     -0.498400
     25 H1          4.5830    1.6340   -1.4700 ha        1 MEJ      0.133500
     26 H2          6.0660    3.1270   -0.1410 ha        1 MEJ      0.133000
     27 H3          7.1840    2.2690    1.9190 ha        1 MEJ      0.133000
     28 H4          6.8030   -0.0860    2.6530 ha        1 MEJ      0.133000
     29 H5          5.3060   -1.5790    1.3370 ha        1 MEJ      0.133500
     30 H6          3.9360   -2.0040   -0.4460 h1        1 MEJ      0.094700
     31 H7          3.9590   -1.9160   -2.9360 hc        1 MEJ      0.044033
     32 H8          4.5950   -0.2160   -2.9120 hc        1 MEJ      0.044033
     33 H9          5.6000   -1.5680   -2.2420 hc        1 MEJ      0.044033
     34 H10         2.4560    0.4180   -1.3330 hn        1 MEJ      0.307500
     35 H11         0.2860    0.5310    0.1200 hc        1 MEJ      0.082700
     36 H12        -0.0970   -0.2650   -1.4640 hc        1 MEJ      0.082700
     37 H13        -0.8910   -2.3180   -0.2400 hc        1 MEJ      0.083700
     38 H14        -0.5080   -1.5230    1.3430 hc        1 MEJ      0.083700
     39 H15        -3.2240    2.8320   -1.2350 ha        1 MEJ      0.150000
     40 H16        -5.5270    3.7590   -1.1430 ha        1 MEJ      0.137000
     41 H17        -7.3690    2.4880   -0.0530 ha        1 MEJ      0.140000
     42 H18        -6.9070    0.2410    0.9700 ha        1 MEJ      0.159000
     43 H19        -2.9640   -2.3670    1.3300 hn        1 MEJ      0.338500
@<TRIPOS>BOND
     1    1    2 ar  
     2    1    6 ar  
     3    1   25 1   
     4    2    3 ar  
     5    2   26 1   
     6    3    4 ar  
     7    3   27 1   
     8    4    5 ar  
     9    4   28 1   
    10    5    6 ar  
    11    5   29 1   
    12    6    7 1   
    13    7    8 1   
    14    7    9 1   
    15    7   30 1   
    16    8   31 1   
    17    8   32 1   
    18    8   33 1   
    19    9   10 1   
    20    9   34 1   
    21   10   11 2   
    22   10   12 1   
    23   12   13 1   
    24   12   35 1   
    25   12   36 1   
    26   13   14 1   
    27   13   37 1   
    28   13   38 1   
    29   14   15 2   
    30   14   24 1   
    31   15   16 1   
    32   16   17 ar  
    33   16   21 ar  
    34   17   18 ar  
    35   17   39 1   
    36   18   19 ar  
    37   18   40 1   
    38   19   20 ar  
    39   19   41 1   
    40   20   21 ar  
    41   20   42 1   
    42   21   22 1   
    43   22   23 2   
    44   22   24 1   
    45   24   43 1   
@<TRIPOS>SUBSTRUCTURE
     1 MEJ         1 TEMP              0 ****  ****    0 ROOT
