@<TRIPOS>MOLECULE
MEJ
   44    46     1     0     0
SMALL
bcc


@<TRIPOS>ATOM
      1 CAI         0.2950    0.0190    0.0630 ca        1 MEJ     -0.103000
      2 CAE         1.6050   -0.3940    0.2880 ca        1 MEJ     -0.116000
      3 CAD         1.9590   -0.9640    1.5140 ca        1 MEJ     -0.078000
      4 CAF         0.9990   -1.1170    2.5150 ca        1 MEJ     -0.116000
      5 CAJ        -0.3140   -0.7000    2.2970 ca        1 MEJ     -0.103000
      6 CAS        -0.6700   -0.1340    1.0670 ca        1 MEJ     -0.191300
      7 CAX        -2.0910    0.2780    0.8360 c3        1 MEJ      0.203800
      8 CAA        -2.6660   -0.3330   -0.4330 c3        1 MEJ     -0.129100
      9 NAP        -2.1630    1.8000    0.8070 n4        1 MEJ     -0.691800
     10 CAR        -3.5840    2.3050    0.9080 c         1 MEJ      0.542100
     11 OAB        -4.1160    2.1780    2.0000 o         1 MEJ     -0.413100
     12 CAM        -4.1460    2.9040   -0.3470 c3        1 MEJ     -0.142400
     13 CAN        -5.5790    3.3500   -0.1260 c3        1 MEJ     -0.118700
     14 CAT        -6.1890    3.9610   -1.3780 cc        1 MEJ      0.479900
     15 NAO        -5.4830    4.0300   -2.4910 nd        1 MEJ     -0.647100
     16 CAV        -6.0810    4.6000   -3.6250 ca        1 MEJ      0.167400
     17 CAK        -5.3580    4.6940   -4.8370 ca        1 MEJ     -0.121000
     18 CAG        -5.9550    5.2590   -5.9560 ca        1 MEJ     -0.087000
     19 CAH        -7.2680    5.7410   -5.9080 ca        1 MEJ     -0.133000
     20 CAL        -7.9980    5.6590   -4.7290 ca        1 MEJ     -0.054000
     21 CAW        -7.4130    5.0920   -3.5900 ca        1 MEJ     -0.177600
     22 CAU        -8.1790    5.0010   -2.3330 c         1 MEJ      0.711100
     23 OAC        -9.3440    5.3890   -2.1640 o         1 MEJ     -0.587500
     24 NAQ        -7.5030    4.4150   -1.2410 n         1 MEJ     -0.498400
     25 H1          0.0220    0.4490   -0.9130 ha        1 MEJ      0.138500
     26 H2          2.3620   -0.2780   -0.5040 ha        1 MEJ      0.161000
     27 H3          2.9950   -1.2960    1.6880 ha        1 MEJ      0.163000
     28 H4          1.2750   -1.5710    3.4810 ha        1 MEJ      0.161000
     29 H5         -1.0670   -0.8320    3.0900 ha        1 MEJ      0.138500
     30 H6         -2.7320   -0.0340    1.7200 hx        1 MEJ      0.116700
     31 H7         -2.1140   -0.0030   -1.3460 hc        1 MEJ      0.078033
     32 H8         -3.7490   -0.0840   -0.5470 hc        1 MEJ      0.078033
     33 H9         -2.5680   -1.4460   -0.3530 hc        1 MEJ      0.078033
     34 H10        -1.6190    2.1490    1.6070 hn        1 MEJ      0.458800
     35 H11        -3.5120    3.7830   -0.6560 hc        1 MEJ      0.119700
     36 H12        -4.0980    2.1400   -1.1750 hc        1 MEJ      0.119700
     37 H13        -5.6130    4.1090    0.7030 hc        1 MEJ      0.088200
     38 H14        -6.2040    2.4700    0.1890 hc        1 MEJ      0.088200
     39 H15        -4.3240    4.3210   -4.8910 ha        1 MEJ      0.146000
     40 H16        -5.3850    5.3300   -6.8960 ha        1 MEJ      0.148000
     41 H17        -7.7220    6.1850   -6.8070 ha        1 MEJ      0.154000
     42 H18        -9.0340    6.0330   -4.6710 ha        1 MEJ      0.169000
     43 H19        -7.9760    4.3340   -0.3690 hn        1 MEJ      0.340500
     44 HAP2       -1.7280    2.1360   -0.0570 hn        1 MEJ      0.458800
@<TRIPOS>BOND
     1    1    2 ar  
     2    1    6 ar  
     3    1   25 1   
     4    2    3 ar  
     5    2   26 1   
     6    3    4 ar  
     7    3   27 1   
     8    4    5 ar  
     9    4   28 1   
    10    5    6 ar  
    11    5   29 1   
    12    6    7 1   
    13    7    8 1   
    14    7    9 1   
    15    7   30 1   
    16    8   31 1   
    17    8   32 1   
    18    8   33 1   
    19    9   10 1   
    20    9   34 1   
    21    9   44 1   
    22   10   11 2   
    23   10   12 1   
    24   12   13 1   
    25   12   35 1   
    26   12   36 1   
    27   13   14 1   
    28   13   37 1   
    29   13   38 1   
    30   14   15 2   
    31   14   24 1   
    32   15   16 1   
    33   16   17 ar  
    34   16   21 ar  
    35   17   18 ar  
    36   17   39 1   
    37   18   19 ar  
    38   18   40 1   
    39   19   20 ar  
    40   19   41 1   
    41   20   21 ar  
    42   20   42 1   
    43   21   22 1   
    44   22   23 2   
    45   22   24 1   
    46   24   43 1   
@<TRIPOS>SUBSTRUCTURE
     1 MEJ         1 TEMP              0 ****  ****    0 ROOT
