@<TRIPOS>MOLECULE
MEJ
   44    46     1     0     0
SMALL
bcc


@<TRIPOS>ATOM
      1 CAI         0.2840   -0.0060    0.0580 ca        1 MEJ     -0.103000
      2 CAE         1.5920   -0.4270    0.2820 ca        1 MEJ     -0.116000
      3 CAD         1.9450   -0.9920    1.5100 ca        1 MEJ     -0.078000
      4 CAF         0.9870   -1.1320    2.5150 ca        1 MEJ     -0.116000
      5 CAJ        -0.3230   -0.7070    2.2980 ca        1 MEJ     -0.103000
      6 CAS        -0.6790   -0.1460    1.0660 ca        1 MEJ     -0.191300
      7 CAX        -2.0980    0.2740    0.8360 c3        1 MEJ      0.203800
      8 CAA        -2.6820   -0.3410   -0.4260 c3        1 MEJ     -0.129100
      9 NAP        -2.1590    1.7960    0.7980 n4        1 MEJ     -0.691800
     10 CAR        -3.5760    2.3120    0.9030 c         1 MEJ      0.542100
     11 OAB        -4.1030    2.1960    1.9990 o         1 MEJ     -0.413100
     12 CAM        -4.1400    2.9080   -0.3530 c3        1 MEJ     -0.142400
     13 CAN        -5.5670    3.3690   -0.1260 c3        1 MEJ     -0.118700
     14 CAT        -6.1800    3.9770   -1.3780 cc        1 MEJ      0.479900
     15 NAO        -5.4820    4.0280   -2.4970 nd        1 MEJ     -0.646100
     16 CAV        -6.0820    4.5950   -3.6310 ca        1 MEJ      0.167400
     17 CAK        -5.3670    4.6710   -4.8490 ca        1 MEJ     -0.121000
     18 CAG        -5.9650    5.2330   -5.9680 ca        1 MEJ     -0.087000
     19 CAH        -7.2730    5.7310   -5.9150 ca        1 MEJ     -0.133000
     20 CAL        -7.9940    5.6670   -4.7290 ca        1 MEJ     -0.054000
     21 CAW        -7.4080    5.1040   -3.5900 ca        1 MEJ     -0.177600
     22 CAU        -8.1650    5.0320   -2.3270 c         1 MEJ      0.711100
     23 OAC        -9.3240    5.4350   -2.1520 o         1 MEJ     -0.587500
     24 NAQ        -7.4870    4.4470   -1.2350 n         1 MEJ     -0.498400
     25 H1          0.0110    0.4200   -0.9200 ha        1 MEJ      0.138500
     26 H2          2.3480   -0.3210   -0.5130 ha        1 MEJ      0.161000
     27 H3          2.9800   -1.3300    1.6830 ha        1 MEJ      0.163000
     28 H4          1.2630   -1.5820    3.4820 ha        1 MEJ      0.161000
     29 H5         -1.0740   -0.8290    3.0950 ha        1 MEJ      0.138500
     30 H6         -2.7380   -0.0270    1.7240 hx        1 MEJ      0.116700
     31 H7         -2.1300   -0.0210   -1.3440 hc        1 MEJ      0.078033
     32 H8         -3.7630   -0.0840   -0.5400 hc        1 MEJ      0.078033
     33 H9         -2.5910   -1.4540   -0.3390 hc        1 MEJ      0.078033
     34 H10        -1.6080    2.1470    1.5930 hn        1 MEJ      0.458800
     35 H11        -3.5000    3.7790   -0.6720 hc        1 MEJ      0.119700
     36 H12        -4.1040    2.1370   -1.1750 hc        1 MEJ      0.119700
     37 H13        -6.1990    2.4970    0.1990 hc        1 MEJ      0.088200
     38 H14        -5.5890    4.1340    0.6980 hc        1 MEJ      0.088200
     39 H15        -4.3380    4.2850   -4.9080 ha        1 MEJ      0.146000
     40 H16        -5.4020    5.2890   -6.9140 ha        1 MEJ      0.148000
     41 H17        -7.7290    6.1730   -6.8140 ha        1 MEJ      0.154000
     42 H18        -9.0260    6.0540   -4.6670 ha        1 MEJ      0.169000
     43 H19        -7.9550    4.3780   -0.3590 hn        1 MEJ      0.340500
     44 HAP2       -1.7270    2.1230   -0.0700 hn        1 MEJ      0.458800
@<TRIPOS>BOND
     1    1    2 ar  
     2    1    6 ar  
     3    1   25 1   
     4    2    3 ar  
     5    2   26 1   
     6    3    4 ar  
     7    3   27 1   
     8    4    5 ar  
     9    4   28 1   
    10    5    6 ar  
    11    5   29 1   
    12    6    7 1   
    13    7    8 1   
    14    7    9 1   
    15    7   30 1   
    16    8   31 1   
    17    8   32 1   
    18    8   33 1   
    19    9   10 1   
    20    9   34 1   
    21    9   44 1   
    22   10   11 2   
    23   10   12 1   
    24   12   13 1   
    25   12   35 1   
    26   12   36 1   
    27   13   14 1   
    28   13   37 1   
    29   13   38 1   
    30   14   15 2   
    31   14   24 1   
    32   15   16 1   
    33   16   17 ar  
    34   16   21 ar  
    35   17   18 ar  
    36   17   39 1   
    37   18   19 ar  
    38   18   40 1   
    39   19   20 ar  
    40   19   41 1   
    41   20   21 ar  
    42   20   42 1   
    43   21   22 1   
    44   22   23 2   
    45   22   24 1   
    46   24   43 1   
@<TRIPOS>SUBSTRUCTURE
     1 MEJ         1 TEMP              0 ****  ****    0 ROOT
