@<TRIPOS>MOLECULE
MEK
   48    45     1     0     0
SMALL
bcc


@<TRIPOS>ATOM
      1 N1         -0.9680    1.1550   -1.7880 nt        1 MEK     -0.374000
      2 C4          3.8580    4.7710    1.3210 ca        1 MEK     -0.271000
      3 C5          2.9660    4.0950    2.1460 ca        1 MEK     -0.084000
      4 C6          2.5320    2.8070    1.8000 ca        1 MEK      0.001000
      5 C7          1.3260    0.2660   -1.6680 c2        1 MEK     -0.195000
      6 C8          1.2350   -0.2170   -3.0690 c3        1 MEK     -0.069000
      7 C10         3.7090   -0.6660   -2.8980 c2        1 MEK      0.131000
      8 C13         0.0240    0.6170   -1.0350 c2        1 MEK      0.388000
      9 C15        -0.8810   -0.6130    2.3430 c1        1 MEK      0.298000
     10 F3          4.8470   -1.1200   -3.4690 f         1 MEK     -0.076000
     11 C9          2.4610   -0.8490   -3.6180 c2        1 MEK     -0.185000
     12 C16         2.4170   -1.5490   -4.7810 c2        1 MEK      0.035000
     13 O4          1.2090   -1.6800   -5.4160 oh        1 MEK     -0.269000
     14 C18        -1.9870    0.9240   -5.4630 c1        1 MEK     -0.101000
     15 O5         -1.1060    0.2580   -4.7260 oh        1 MEK     -0.203000
     16 C11         3.7530   -0.0590   -1.6610 c2        1 MEK      0.008000
     17 F2          4.9380    0.0820   -1.0240 f         1 MEK     -0.070000
     18 C12         2.5150    0.3880   -1.0000 c2        1 MEK      0.117000
     19 N2          2.6130    0.8320    0.3440 nu        1 MEK     -0.240000
     20 C1          2.9990    2.1630    0.6150 ca        1 MEK      0.037000
     21 C2          3.8960    2.8820   -0.2000 ca        1 MEK     -0.141000
     22 C3          4.3170    4.1600    0.1530 ca        1 MEK     -0.061000
     23 O1         -0.1960    0.4170    0.2000 o         1 MEK     -0.560000
     24 O2          1.3800   -0.1350    3.2910 oh        1 MEK     -0.467000
     25 C14        -1.1230   -1.8710    2.2080 c2        1 MEK     -0.176000
     26 O3         -0.7490    0.6190    2.5390 oh        1 MEK     -0.002000
     27 HN1        -1.8410    1.3710   -1.3710 hn        1 MEK      0.252500
     28 H5          2.5840    4.5510    3.0750 ha        1 MEK      0.168000
     29 H8          0.9790    0.6620   -3.7350 hc        1 MEK      0.117500
     30 H15        -0.8100   -2.6110    2.9700 ha        1 MEK      0.237500
     31 H15A        1.5540    0.3670    4.0950 ho        1 MEK      0.240500
     32 H17         1.3370   -2.2510   -6.1880 ho        1 MEK      0.244000
     33 H17A       -0.9390   -2.3280   -4.5330 ha        1 MEK      0.003000
     34 H16         0.3790   -0.9490   -3.1680 hc        1 MEK      0.117500
     35 H16A        3.3000   -2.0170   -5.2470 h4        1 MEK      0.165000
     36 H18        -3.5340    2.1220   -6.5830 ha        1 MEK      0.250000
     37 H18A       -1.0580   -2.4800   -5.1830 ha        1 MEK      0.003000
     38 HO5        -0.5980   -0.3120   -5.3410 ho        1 MEK      0.255000
     39 HN2         1.8130    0.5500    0.8860 hn        1 MEK      0.208000
     40 H2          4.2860    2.4230   -1.1230 ha        1 MEK      0.161000
     41 H3          5.0270    4.6860   -0.5090 ha        1 MEK      0.165000
     42 H14         2.2560   -0.3350    2.9430 ho        1 MEK      0.240500
     43 H14A       -1.6610   -2.2660    1.3240 ha        1 MEK      0.237500
     44 HO3         0.1210    0.9900    2.1550 ho        1 MEK      0.363000
     45 F1          1.6500    2.1650    2.6210 f         1 MEK     -0.144000
     46 C17        -2.8070    1.5580   -6.0560 c1        1 MEK     -0.205000
     47 H12        -0.8730    1.2710   -2.7710 hn        1 MEK      0.252500
     48 I1          4.4810    6.6240    1.8150 i         1 MEK      0.195000
@<TRIPOS>BOND
     1    1    8 1   
     2    1   27 1   
     3    1   47 1   
     4    2    3 1   
     5    2   22 1   
     6    2   48 1   
     7    3    4 1   
     8    3   28 1   
     9    4   20 1   
    10    4   45 1   
    11    5    6 1   
    12    5    8 1   
    13    5   18 1   
    14    6   11 1   
    15    6   29 1   
    16    6   34 1   
    17    7   10 1   
    18    7   11 1   
    19    7   16 1   
    20    8   23 1   
    21    9   25 1   
    22    9   26 1   
    23   11   12 1   
    24   12   13 1   
    25   12   35 1   
    26   13   32 1   
    27   14   15 1   
    28   14   46 1   
    29   15   38 1   
    30   16   17 1   
    31   16   18 1   
    32   18   19 1   
    33   19   20 1   
    34   19   39 1   
    35   20   21 1   
    36   21   22 1   
    37   21   40 1   
    38   22   41 1   
    39   24   31 1   
    40   24   42 1   
    41   25   30 1   
    42   25   43 1   
    43   26   44 1   
    44   33   37 1   
    45   36   46 1   
@<TRIPOS>SUBSTRUCTURE
     1 MEK         1 TEMP              0 ****  ****    0 ROOT
