@<TRIPOS>MOLECULE
MEK
   47    43     1     0     0
SMALL
bcc


@<TRIPOS>ATOM
      1 N1         -2.1830   -0.0680    2.0880 n3        1 MEK     -0.203000
      2 C4          4.6680    2.8410    3.5580 c1        1 MEK     -0.252000
      3 C5          4.1490    2.9770    2.2850 c1        1 MEK     -0.117000
      4 C6          3.2720    2.0170    1.7850 c1        1 MEK      0.084000
      5 C7          0.0550    0.1300    0.7850 c1        1 MEK     -0.195000
      6 C8         -0.6300    0.2910   -0.4180 c1        1 MEK     -0.028000
      7 C10         1.4890    0.3340   -1.6160 c1        1 MEK      0.119000
      8 C13        -0.7410   -0.0300    2.1140 c1        1 MEK      0.319000
      9 C15        -4.8590   -2.6270    2.4040 c3        1 MEK     -0.050000
     10 C17        -0.8880   -0.2040   -5.1500 c3        1 MEK     -0.022000
     11 F3          2.1690    0.5430   -2.7500 f         1 MEK     -0.084000
     12 C9          0.0780    0.3940   -1.6190 c1        1 MEK     -0.140000
     13 C16        -0.6810    0.6060   -2.9410 c3        1 MEK      0.027000
     14 O4         -0.1590   -0.2220   -3.9080 os        1 MEK     -0.287000
     15 C18        -0.4630   -1.4210   -6.0170 c3        1 MEK     -0.022000
     16 O5         -1.2020   -1.4280   -7.2190 oh        1 MEK     -0.329000
     17 C11         2.1700    0.1740   -0.4230 c2        1 MEK     -0.011000
     18 F2          3.5540    0.0030   -0.4290 f         1 MEK     -0.085000
     19 C12         1.4510    0.0700    0.7910 c2        1 MEK      0.144000
     20 N2          2.1380   -0.1200    1.9970 n3        1 MEK     -0.284000
     21 C1          2.9290    0.9460    2.5550 c2        1 MEK      0.044000
     22 F1          3.2160    2.5690    0.5490 f         1 MEK     -0.094000
     23 C2          3.4540    0.8150    3.8340 c2        1 MEK     -0.138000
     24 C3          4.3190    1.7620    4.3260 c1        1 MEK     -0.093000
     25 I1          5.8200    4.3880    4.3950 i         1 MEK      0.160000
     26 O1         -0.1420   -0.1730    3.1760 o         1 MEK     -0.336000
     27 O2         -2.8580   -1.1840    2.5930 os        1 MEK     -0.192000
     28 C14        -4.2070   -1.2550    2.0250 c3        1 MEK     -0.021000
     29 O3         -5.7120   -3.0260    1.3990 oh        1 MEK     -0.333000
     30 HN1        -2.6710    0.6990    1.8170 hn        1 MEK      0.219000
     31 H5          4.3880    3.7180    1.7570 ha        1 MEK      0.164000
     32 H8         -1.6370    0.3340   -0.4220 ha        1 MEK      0.174000
     33 H15        -5.3460   -2.5320    3.2140 h1        1 MEK      0.083500
     34 H15A       -4.1540   -3.3020    2.5230 h1        1 MEK      0.083500
     35 H17        -1.8280   -0.2530   -4.9700 h1        1 MEK      0.085000
     36 H17A       -0.6840    0.6560   -5.6510 h1        1 MEK      0.085000
     37 H16        -0.5930    1.5030   -3.2140 h1        1 MEK      0.089000
     38 H16A       -1.5990    0.4030   -2.8150 h1        1 MEK      0.089000
     39 H18         0.4620   -1.3580   -6.2160 h1        1 MEK      0.075500
     40 H18A       -0.6350   -2.2470   -5.5240 h1        1 MEK      0.075500
     41 HO5        -0.8650   -2.0460   -7.7740 ho        1 MEK      0.206000
     42 HN2         2.1180   -0.8970    2.3910 hn        1 MEK      0.264000
     43 H2          3.2110    0.0570    4.3790 ha        1 MEK      0.149000
     44 H3          4.6860    1.6670    5.2260 ha        1 MEK      0.152000
     45 H14        -4.7410   -0.5390    2.3770 h1        1 MEK      0.111000
     46 H14A       -4.1580   -1.1770    1.0730 h1        1 MEK      0.111000
     47 HO3        -6.1600   -3.7890    1.6620 ho        1 MEK      0.205000
@<TRIPOS>BOND
     1    1    8 1   
     2    1   27 1   
     3    1   30 1   
     4    2    3 1   
     5    2   25 1   
     6    3   31 1   
     7    4   21 1   
     8    4   22 1   
     9    5    6 1   
    10    5   19 1   
    11    6   32 1   
    12    7   12 1   
    13    7   17 1   
    14    8   26 1   
    15    9   28 1   
    16    9   29 1   
    17    9   33 1   
    18    9   34 1   
    19   10   14 1   
    20   10   15 1   
    21   10   35 1   
    22   10   36 1   
    23   12   13 1   
    24   13   14 1   
    25   13   37 1   
    26   13   38 1   
    27   15   16 1   
    28   15   39 1   
    29   15   40 1   
    30   16   41 1   
    31   17   18 1   
    32   17   19 1   
    33   19   20 1   
    34   20   21 1   
    35   20   42 1   
    36   21   23 1   
    37   23   24 1   
    38   23   43 1   
    39   24   44 1   
    40   27   28 1   
    41   28   45 1   
    42   28   46 1   
    43   29   47 1   
@<TRIPOS>SUBSTRUCTURE
     1 MEK         1 TEMP              0 ****  ****    0 ROOT
