@<TRIPOS>MOLECULE
MEK
   47    48     1     0     0
SMALL
bcc


@<TRIPOS>ATOM
      1 N1         -2.3790    2.4060    0.4070 n         1 MEK     -0.347400
      2 C4          3.9020   -0.9240   -0.0470 ca        1 MEK      0.005900
      3 C5          3.7230   -0.4160    1.2360 ca        1 MEK     -0.097000
      4 C6          2.4380   -0.3370    1.7930 ca        1 MEK      0.069900
      5 C7         -2.1620   -0.0280    0.7910 ca        1 MEK     -0.190600
      6 C8         -3.3880   -0.3410    0.2040 ca        1 MEK     -0.048000
      7 C10        -2.6740   -2.6200   -0.1370 ca        1 MEK      0.126900
      8 C13        -1.9290    1.3650    1.2730 c         1 MEK      0.624700
      9 C15        -1.7490    5.7550    1.5680 c3        1 MEK      0.125400
     10 F3         -2.9000   -3.8750   -0.5860 f         1 MEK     -0.117900
     11 C9         -3.6590   -1.6230   -0.2690 ca        1 MEK     -0.116300
     12 C16        -4.9640   -1.9780   -0.9020 c3        1 MEK      0.178700
     13 O4         -5.6970   -0.7800   -1.1480 os        1 MEK     -0.429600
     14 C18        -7.5580    0.3140   -2.1160 c3        1 MEK      0.127400
     15 O5         -7.3690    0.5040   -3.5090 oh        1 MEK     -0.601800
     16 C11        -1.4320   -2.3280    0.4840 ca        1 MEK      0.070900
     17 F2         -0.5330   -3.3290    0.6190 f         1 MEK     -0.108900
     18 C12        -1.1550   -1.0120    0.9600 ca        1 MEK      0.175600
     19 N2          0.0320   -0.7350    1.6550 nh        1 MEK     -0.630000
     20 C1          1.2950   -0.7820    1.0540 ca        1 MEK      0.150600
     21 C2          1.5170   -1.2820   -0.2460 ca        1 MEK     -0.169000
     22 C3          2.7980   -1.3550   -0.7800 ca        1 MEK     -0.071000
     23 I1          5.7560   -1.0340   -0.8370 i         1 MEK     -0.130900
     24 O1         -1.4720    1.6150    2.4010 o         1 MEK     -0.558100
     25 O2         -1.8150    3.6020    0.6190 os        1 MEK     -0.278900
     26 C14        -2.5000    4.4300    1.6030 c3        1 MEK      0.084400
     27 O3         -2.0300    6.4840    0.3920 oh        1 MEK     -0.596800
     28 HN1        -2.2670    2.1810   -0.5750 hn        1 MEK      0.306500
     29 H5          4.5770   -0.0660    1.8380 ha        1 MEK      0.162000
     30 H8         -4.1730    0.4310    0.1050 ha        1 MEK      0.178000
     31 H15        -2.1080    6.4070    2.4080 h1        1 MEK      0.061700
     32 H15A       -0.6440    5.5780    1.6650 h1        1 MEK      0.061700
     33 H17        -6.8130   -1.6630   -2.6920 h1        1 MEK      0.048200
     34 H17A       -7.6140   -1.5910   -1.0400 h1        1 MEK      0.048200
     35 H16        -4.7860   -2.5210   -1.8710 h1        1 MEK      0.051700
     36 H16A       -5.5520   -2.6460   -0.2120 h1        1 MEK      0.051700
     37 H18        -8.6570    0.3130   -1.8870 h1        1 MEK      0.040200
     38 H18A       -7.0530    1.1280   -1.5300 h1        1 MEK      0.040200
     39 HO5        -7.5560    1.4320   -3.6920 ho        1 MEK      0.405000
     40 HN2        -0.0610   -0.0630    2.3970 hn        1 MEK      0.466800
     41 H2          0.6650   -1.6380   -0.8480 ha        1 MEK      0.146000
     42 H3          2.9260   -1.7590   -1.7980 ha        1 MEK      0.150000
     43 H14        -2.4170    3.9450    2.6090 h1        1 MEK      0.066200
     44 H14A       -3.5710    4.5630    1.3110 h1        1 MEK      0.066200
     45 HO3        -1.7320    5.9470   -0.3520 ho        1 MEK      0.408000
     46 F1          2.2920    0.1740    3.0410 f         1 MEK     -0.134900
     47 C17        -6.9570   -1.0450   -1.7670 c3        1 MEK      0.126400
@<TRIPOS>BOND
     1    1    8 1   
     2    1   25 1   
     3    1   28 1   
     4    2    3 ar  
     5    2   22 ar  
     6    2   23 1   
     7    3    4 ar  
     8    3   29 1   
     9    4   20 ar  
    10    4   46 1   
    11    5    6 ar  
    12    5    8 1   
    13    5   18 ar  
    14    6   11 ar  
    15    6   30 1   
    16    7   10 1   
    17    7   11 ar  
    18    7   16 ar  
    19    8   24 2   
    20    9   26 1   
    21    9   27 1   
    22    9   31 1   
    23    9   32 1   
    24   11   12 1   
    25   12   13 1   
    26   12   35 1   
    27   12   36 1   
    28   13   47 1   
    29   14   15 1   
    30   14   37 1   
    31   14   38 1   
    32   14   47 1   
    33   15   39 1   
    34   16   17 1   
    35   16   18 ar  
    36   18   19 1   
    37   19   20 1   
    38   19   40 1   
    39   20   21 ar  
    40   21   22 ar  
    41   21   41 1   
    42   22   42 1   
    43   25   26 1   
    44   26   43 1   
    45   26   44 1   
    46   27   45 1   
    47   33   47 1   
    48   34   47 1   
@<TRIPOS>SUBSTRUCTURE
     1 MEK         1 TEMP              0 ****  ****    0 ROOT
