@<TRIPOS>MOLECULE
MEK
   49    46     1     0     0
SMALL
bcc


@<TRIPOS>ATOM
      1 N1         -0.0990   -1.6080   -1.2110 n         1 MEK     -0.388000
      2 C4          4.4320    4.7410   -0.0120 ca        1 MEK     -0.196000
      3 C5          3.2640    4.0250   -0.5330 ca        1 MEK     -0.143000
      4 C6          2.8150    3.0420    0.3420 ca        1 MEK      0.039000
      5 C7          1.6190    0.2140   -1.5560 c3        1 MEK      0.039000
      6 C8          1.4760   -0.0420   -3.0060 c2        1 MEK     -0.176000
      7 C10         3.6910   -1.0550   -3.1770 c2        1 MEK     -0.114000
      8 C13         0.6680   -0.6260   -0.6740 c2        1 MEK      0.299000
      9 C15        -2.7980   -0.0750    6.3510 c1        1 MEK      0.194000
     10 F3          4.5950   -1.7610   -3.8970 f         1 MEK     -0.080000
     11 C9          2.4460   -0.6580   -3.7650 c2        1 MEK     -0.129000
     12 C16         2.2980   -0.8990   -5.1680 c2        1 MEK      0.313000
     13 O4          1.3020   -0.5280   -5.9230 oh        1 MEK     -0.123000
     14 C18        -2.1070    1.6470   -5.3380 c1        1 MEK      0.319000
     15 O5         -1.1320    1.0620   -5.0270 o         1 MEK     -0.313000
     16 C11         3.9760   -0.6640   -1.8550 c2        1 MEK      0.227000
     17 F2          5.1960   -0.9340   -1.3370 f         1 MEK     -0.082000
     18 C12         3.0150    0.0000   -1.0810 c2        1 MEK     -0.400000
     19 N2          3.3470    0.5180    0.2380 n4        1 MEK      0.123000
     20 C1          3.7790    1.9030    0.2420 ca        1 MEK     -0.172000
     21 C2          5.0700    2.3620    0.3180 ca        1 MEK      0.010000
     22 C3          5.3690    3.8080    0.3410 ca        1 MEK     -0.133000
     23 O1          0.6060   -0.3750    0.5610 o         1 MEK     -0.478000
     24 O2         -0.8750   -0.3380    2.8270 oh        1 MEK     -0.455000
     25 C14        -3.0580   -0.2240    5.1030 c2        1 MEK     -0.118000
     26 O3         -2.5250    0.2390    7.5450 oh        1 MEK      0.016000
     27 HN1        -0.0050   -1.8710   -2.1600 hn        1 MEK      0.238500
     28 H5          3.2080    3.8800   -1.6230 ha        1 MEK      0.177000
     29 H8          1.2990    1.2860   -1.3560 hc        1 MEK      0.126000
     30 H15        -2.2500   -0.3520    4.3280 ha        1 MEK      0.285500
     31 H15A       -0.4110   -1.0750    2.4150 ho        1 MEK      0.230000
     32 H17        -1.4360   -0.0720   -8.8500 hc        1 MEK      0.067500
     33 H17A       -1.8680    1.3400   -7.7900 hc        1 MEK      0.067500
     34 H16         0.5440    0.3370   -3.4580 ha        1 MEK      0.148000
     35 H16A        3.0840   -1.4550   -5.7460 h4        1 MEK      0.249000
     36 H18        -0.4720    1.4620   -8.9470 hc        1 MEK      0.067500
     37 H18A       -0.3450    0.4020   -7.4750 hc        1 MEK      0.067500
     38 HO5         0.5960   -0.0200   -5.4540 ho        1 MEK      0.303000
     39 HN2         2.4950    0.4470    0.8290 hn        1 MEK      0.263000
     40 H2          5.9380    1.6820    0.3850 ha        1 MEK      0.172000
     41 H3          6.3940    4.0850    0.6400 ha        1 MEK      0.187000
     42 H14        -0.6970    0.3990    2.2340 ho        1 MEK      0.230000
     43 H14A       -4.0960   -0.2400    4.6990 ha        1 MEK      0.285500
     44 HO3        -2.4580   -0.5650    8.1370 ho        1 MEK      0.328000
     45 F1          2.2810    3.2670    1.5510 f         1 MEK     -0.069000
     46 C17        -1.0300    0.7830   -8.2670 c3        1 MEK     -0.266000
     47 H12        -0.6820   -2.1600   -0.6270 hn        1 MEK      0.238500
     48 H22         4.0900   -0.0720    0.6390 hn        1 MEK      0.263000
     49 I1          4.6680    6.7230   -0.0090 i         1 MEK      0.265000
@<TRIPOS>BOND
     1    1    8 1   
     2    1   27 1   
     3    1   47 1   
     4    2    3 1   
     5    2   22 1   
     6    2   49 1   
     7    3    4 1   
     8    3   28 1   
     9    4   20 1   
    10    4   45 1   
    11    5    6 1   
    12    5    8 1   
    13    5   18 1   
    14    5   29 1   
    15    6   11 1   
    16    6   34 1   
    17    7   10 1   
    18    7   11 1   
    19    7   16 1   
    20    8   23 1   
    21    9   25 1   
    22    9   26 1   
    23   11   12 1   
    24   12   13 1   
    25   12   35 1   
    26   13   38 1   
    27   14   15 1   
    28   16   17 1   
    29   16   18 1   
    30   18   19 1   
    31   19   20 1   
    32   19   39 1   
    33   19   48 1   
    34   20   21 1   
    35   21   22 1   
    36   21   40 1   
    37   22   41 1   
    38   24   31 1   
    39   24   42 1   
    40   25   30 1   
    41   25   43 1   
    42   26   44 1   
    43   32   46 1   
    44   33   46 1   
    45   36   46 1   
    46   37   46 1   
@<TRIPOS>SUBSTRUCTURE
     1 MEK         1 TEMP              0 ****  ****    0 ROOT
