@<TRIPOS>MOLECULE
MEL
   64    66     1     0     0
SMALL
bcc


@<TRIPOS>ATOM
      1 C1         -0.3690    0.0600   -0.5100 c3        1 MEL     -0.082700
      2 C2          0.8780   -0.4700    0.1880 c3        1 MEL     -0.081900
      3 C3          0.5450   -0.9630    1.5820 c3        1 MEL     -0.077900
      4 C4         -0.1220    0.1170    2.4060 c3        1 MEL     -0.084400
      5 C5         -1.3540    0.6540    1.7080 c3        1 MEL     -0.077900
      6 C6         -1.0270    1.1560    0.3150 c3        1 MEL     -0.081900
      7 N7         -1.1900    1.0090   -2.7010 n4        1 MEL     -0.746000
      8 C8          0.0060    0.5030   -1.9410 c3        1 MEL      0.065500
      9 C9          1.0860    1.6130   -1.9350 c         1 MEL      0.642100
     10 O0          0.8520    2.7210   -1.4330 o         1 MEL     -0.523100
     11 N11         2.2650    1.3660   -2.6370 n         1 MEL     -0.448800
     12 C12         3.4450    2.2360   -2.5070 cy        1 MEL     -0.000300
     13 C13         3.7460    3.2070   -3.6290 c         1 MEL      0.554100
     14 O14         4.6870    3.9900   -3.6040 o         1 MEL     -0.423100
     15 N15         2.8940    3.2200   -4.8630 n4        1 MEL     -0.668800
     16 C16         2.4070    4.5960   -5.2040 c3        1 MEL      0.155100
     17 C17         2.2140    4.7900   -6.6760 ca        1 MEL     -0.101300
     18 C18         1.3330    3.9650   -7.3860 ca        1 MEL     -0.093000
     19 C19         1.1140    4.1850   -8.7460 ca        1 MEL     -0.094000
     20 C20         1.7750    5.2350   -9.3930 ca        1 MEL     -0.235900
     21 C21         2.6560    6.0620   -8.6870 ca        1 MEL     -0.094000
     22 C22         2.8780    5.8360   -7.3290 ca        1 MEL     -0.093000
     23 C23         1.5760    5.4310  -10.8470 ce        1 MEL      0.579800
     24 N24         1.9110    4.7150  -11.8480 n2        1 MEL     -0.691100
     25 N25         0.8390    6.7090  -11.1530 n4        1 MEL     -0.822600
     26 C26         4.3560    0.9670   -2.5240 cy        1 MEL     -0.090400
     27 C27         3.0590    0.1200   -2.5970 cy        1 MEL      0.057000
     28 C28        -1.0770    0.7810   -4.1700 c3        1 MEL     -0.010200
     29 C29        -0.0170    1.7190   -4.7740 c         1 MEL      0.895600
     30 O30         0.7760    1.2890   -5.6530 o         1 MEL     -0.820300
     31 O31         0.0720    2.8970   -4.3100 o         1 MEL     -0.820300
     32 H11        -1.0980   -0.7980   -0.6050 hc        1 MEL      0.076700
     33 H21         1.3130   -1.3150   -0.4090 hc        1 MEL      0.047450
     34 H22         1.6450    0.3460    0.2530 hc        1 MEL      0.047450
     35 H31         1.4900   -1.2940    2.0880 hc        1 MEL      0.061450
     36 H32        -0.1300   -1.8570    1.5120 hc        1 MEL      0.061450
     37 H41        -0.4120   -0.3020    3.4060 hc        1 MEL      0.062700
     38 H42         0.6020    0.9540    2.5900 hc        1 MEL      0.062700
     39 H51        -1.7880    1.4980    2.3070 hc        1 MEL      0.061450
     40 H52        -2.1320   -0.1510    1.6470 hc        1 MEL      0.061450
     41 H61        -1.9760    1.4980   -0.1750 hc        1 MEL      0.047450
     42 H62        -0.3430    2.0430    0.3880 hc        1 MEL      0.047450
     43 H71        -2.0310    0.5510   -2.3360 hn        1 MEL      0.470300
     44 H81         0.3910   -0.4110   -2.4890 hx        1 MEL      0.114700
     45 H121        3.4710    2.8380   -1.5520 h1        1 MEL      0.146700
     46 H151        2.0580    2.6030   -4.7570 hn        1 MEL      0.489300
     47 H161        3.1450    5.3500   -4.8020 hx        1 MEL      0.135200
     48 H162        1.4080    4.7270   -4.6770 hx        1 MEL      0.135200
     49 H181        0.8030    3.1380   -6.8650 ha        1 MEL      0.189500
     50 H191        0.4230    3.5260   -9.2970 ha        1 MEL      0.159000
     51 H211        3.1990    6.8760   -9.1940 ha        1 MEL      0.159000
     52 H221        3.5760    6.4880   -6.7770 ha        1 MEL      0.189500
     53 H241        2.4070    3.8600  -11.6960 hn        1 MEL      0.495400
     54 H251        0.7850    6.8890  -12.1660 hn        1 MEL      0.474800
     55 H252        1.3300    7.4830  -10.6940 hn        1 MEL      0.474800
     56 H261        4.9450    0.8380   -1.5890 hc        1 MEL      0.100200
     57 H262        5.0240    0.8770   -3.4060 hc        1 MEL      0.100200
     58 H271        2.8750   -0.5210   -1.7000 h1        1 MEL      0.090700
     59 H272        2.9300   -0.4760   -3.5340 h1        1 MEL      0.090700
     60 H281       -0.8100   -0.2920   -4.3720 hx        1 MEL      0.113700
     61 H282       -2.0750    1.0110   -4.6380 hx        1 MEL      0.113700
     62 H72        -1.2640    2.0330   -2.5440 hn        1 MEL      0.470300
     63 H152        3.4490    2.8510   -5.6430 hn        1 MEL      0.489300
     64 H253       -0.1110    6.6360  -10.7720 hn        1 MEL      0.474800
@<TRIPOS>BOND
     1    1    2 1   
     2    1    6 1   
     3    1    8 1   
     4    1   32 1   
     5    2    3 1   
     6    2   33 1   
     7    2   34 1   
     8    3    4 1   
     9    3   35 1   
    10    3   36 1   
    11    4    5 1   
    12    4   37 1   
    13    4   38 1   
    14    5    6 1   
    15    5   39 1   
    16    5   40 1   
    17    6   41 1   
    18    6   42 1   
    19    7    8 1   
    20    7   28 1   
    21    7   43 1   
    22    7   62 1   
    23    8    9 1   
    24    8   44 1   
    25    9   10 2   
    26    9   11 1   
    27   11   12 1   
    28   11   27 1   
    29   12   13 1   
    30   12   26 1   
    31   12   45 1   
    32   13   14 2   
    33   13   15 1   
    34   15   16 1   
    35   15   46 1   
    36   15   63 1   
    37   16   17 1   
    38   16   47 1   
    39   16   48 1   
    40   17   18 ar  
    41   17   22 ar  
    42   18   19 ar  
    43   18   49 1   
    44   19   20 ar  
    45   19   50 1   
    46   20   21 ar  
    47   20   23 1   
    48   21   22 ar  
    49   21   51 1   
    50   22   52 1   
    51   23   24 2   
    52   23   25 1   
    53   24   53 1   
    54   25   54 1   
    55   25   55 1   
    56   25   64 1   
    57   26   27 1   
    58   26   56 1   
    59   26   57 1   
    60   27   58 1   
    61   27   59 1   
    62   28   29 1   
    63   28   60 1   
    64   28   61 1   
    65   29   30 1   
    66   29   31 1   
@<TRIPOS>SUBSTRUCTURE
     1 MEL         1 TEMP              0 ****  ****    0 ROOT
