@<TRIPOS>MOLECULE
MEL
   64    66     1     0     0
SMALL
bcc


@<TRIPOS>ATOM
      1 C1         -0.1230    0.5360    0.0700 c3        1 MEL     -0.081700
      2 C2          1.1430   -0.2590    0.3710 c3        1 MEL     -0.081900
      3 C3          1.3630   -0.3690    1.8660 c3        1 MEL     -0.078900
      4 C4          1.4180    0.9980    2.5150 c3        1 MEL     -0.084400
      5 C5          0.1730    1.8010    2.2060 c3        1 MEL     -0.078900
      6 C6         -0.0620    1.9150    0.7120 c3        1 MEL     -0.081900
      7 N7         -1.5780    1.3310   -1.8360 ny        1 MEL     -0.748000
      8 C8         -0.3330    0.5790   -1.4570 c3        1 MEL      0.071500
      9 C9          0.8720    1.2260   -2.1750 c         1 MEL      0.660100
     10 O0          1.1280    2.4410   -2.0540 o         1 MEL     -0.585100
     11 N11         1.5890    0.4660   -3.0630 n         1 MEL     -0.469800
     12 C12         2.8340    0.8460   -3.7260 cy        1 MEL      0.022700
     13 C13         2.7120    1.6300   -5.0220 c         1 MEL      0.556100
     14 O14         3.3710    1.4010   -6.0280 o         1 MEL     -0.440100
     15 N15         1.7690    2.7920   -5.0530 ny        1 MEL     -0.665800
     16 C16         1.0590    2.9530   -6.3630 c3        1 MEL      0.151100
     17 C17         1.6270    4.0220   -7.2420 ca        1 MEL     -0.102300
     18 C18         2.7350    3.7590   -8.0560 ca        1 MEL     -0.092000
     19 C19         3.1980    4.7270   -8.9470 ca        1 MEL     -0.094000
     20 C20         2.5480    5.9640   -9.0220 ca        1 MEL     -0.235900
     21 C21         1.4460    6.2380   -8.2030 ca        1 MEL     -0.094000
     22 C22         0.9890    5.2660   -7.3130 ca        1 MEL     -0.092000
     23 C23         3.0620    7.0030   -9.9440 ce        1 MEL      0.578800
     24 N24         4.0950    7.7480   -9.8860 n2        1 MEL     -0.688100
     25 N25         2.1770    7.1730  -11.1510 nz        1 MEL     -0.822600
     26 C26         3.1370   -0.6730   -3.9380 cy        1 MEL     -0.081400
     27 C27         1.8130   -0.9810   -3.1890 cy        1 MEL      0.088000
     28 C28        -2.0570    0.9930   -3.2090 c3        1 MEL     -0.018200
     29 C29        -1.1570    1.6910   -4.2530 c         1 MEL      0.892600
     30 O30        -0.7060    1.0450   -5.2250 o         1 MEL     -0.808300
     31 O31        -0.8440    2.9040   -4.0170 o         1 MEL     -0.808300
     32 H11        -0.9960   -0.0250    0.5160 hc        1 MEL      0.078700
     33 H21         2.0250    0.2500   -0.1000 hc        1 MEL      0.047200
     34 H22         1.0570   -1.2860   -0.0710 hc        1 MEL      0.047200
     35 H31         0.5360   -0.9730    2.3250 hc        1 MEL      0.061700
     36 H32         2.3240   -0.9160    2.0560 hc        1 MEL      0.061700
     37 H41         1.5190    0.8800    3.6260 hc        1 MEL      0.060700
     38 H42         2.3240    1.5520    2.1530 hc        1 MEL      0.060700
     39 H51         0.2720    2.8310    2.6380 hc        1 MEL      0.061700
     40 H52        -0.7160    1.3170    2.6910 hc        1 MEL      0.061700
     41 H61        -1.0240    2.4670    0.5420 hc        1 MEL      0.047200
     42 H62         0.7630    2.5150    0.2440 hc        1 MEL      0.047200
     43 H71        -2.3050    1.1310   -1.1440 hn        1 MEL      0.471800
     44 H81        -0.4680   -0.4890   -1.8130 hx        1 MEL      0.114700
     45 H121        3.5610    1.3990   -3.0680 h1        1 MEL      0.124700
     46 H151        2.2970    3.6430   -4.8350 hn        1 MEL      0.487300
     47 H161        1.0650    1.9550   -6.8940 hx        1 MEL      0.150200
     48 H162       -0.0280    3.1770   -6.1040 hx        1 MEL      0.150200
     49 H181        3.2410    2.7770   -8.0000 ha        1 MEL      0.179000
     50 H191        4.0720    4.5090   -9.5820 ha        1 MEL      0.160500
     51 H211        0.9430    7.2180   -8.2420 ha        1 MEL      0.160500
     52 H221        0.1140    5.4800   -6.6730 ha        1 MEL      0.179000
     53 H241        4.7100    7.6750   -9.1010 hn        1 MEL      0.495400
     54 H251        2.1910    6.3000  -11.6910 hn        1 MEL      0.475467
     55 H252        2.4910    7.9480  -11.7530 hn        1 MEL      0.475467
     56 H261        4.0570   -1.0150   -3.4160 hc        1 MEL      0.105200
     57 H262        3.1550   -0.9940   -5.0030 hc        1 MEL      0.105200
     58 H271        1.0230   -1.4780   -3.8060 h1        1 MEL      0.090200
     59 H272        1.9380   -1.5050   -2.2090 h1        1 MEL      0.090200
     60 H281       -3.1070    1.3830   -3.3210 hx        1 MEL      0.114200
     61 H282       -2.0500   -0.1190   -3.3600 hx        1 MEL      0.114200
     62 H72        -1.3610    2.3480   -1.8250 hn        1 MEL      0.471800
     63 H152        1.0260    2.6890   -4.3150 hn        1 MEL      0.487300
     64 H253        1.2210    7.3560  -10.8280 hn        1 MEL      0.475467
@<TRIPOS>BOND
     1    1    2 1   
     2    1    6 1   
     3    1    8 1   
     4    1   32 1   
     5    2    3 1   
     6    2   33 1   
     7    2   34 1   
     8    3    4 1   
     9    3   35 1   
    10    3   36 1   
    11    4    5 1   
    12    4   37 1   
    13    4   38 1   
    14    5    6 1   
    15    5   39 1   
    16    5   40 1   
    17    6   41 1   
    18    6   42 1   
    19    7    8 1   
    20    7   28 1   
    21    7   43 1   
    22    7   62 1   
    23    8    9 1   
    24    8   44 1   
    25    9   10 2   
    26    9   11 1   
    27   11   12 1   
    28   11   27 1   
    29   12   13 1   
    30   12   26 1   
    31   12   45 1   
    32   13   14 2   
    33   13   15 1   
    34   15   16 1   
    35   15   46 1   
    36   15   63 1   
    37   16   17 1   
    38   16   47 1   
    39   16   48 1   
    40   17   18 ar  
    41   17   22 ar  
    42   18   19 ar  
    43   18   49 1   
    44   19   20 ar  
    45   19   50 1   
    46   20   21 ar  
    47   20   23 1   
    48   21   22 ar  
    49   21   51 1   
    50   22   52 1   
    51   23   24 2   
    52   23   25 1   
    53   24   53 1   
    54   25   54 1   
    55   25   55 1   
    56   25   64 1   
    57   26   27 1   
    58   26   56 1   
    59   26   57 1   
    60   27   58 1   
    61   27   59 1   
    62   28   29 1   
    63   28   60 1   
    64   28   61 1   
    65   29   30 1   
    66   29   31 1   
@<TRIPOS>SUBSTRUCTURE
     1 MEL         1 TEMP              0 ****  ****    0 ROOT
