@<TRIPOS>MOLECULE
MEL
   64    66     1     0     0
SMALL
bcc


@<TRIPOS>ATOM
      1 C1         -0.4190    0.1030   -0.5000 c3        1 MEL     -0.082700
      2 C2          0.8020   -0.5660    0.1190 c3        1 MEL     -0.081900
      3 C3          0.4900   -1.0730    1.5130 c3        1 MEL     -0.077900
      4 C4         -0.0310    0.0360    2.4010 c3        1 MEL     -0.084400
      5 C5         -1.2370    0.7100    1.7830 c3        1 MEL     -0.077900
      6 C6         -0.9300    1.2260    0.3900 c3        1 MEL     -0.081900
      7 N7         -1.2490    1.2000   -2.6170 n4        1 MEL     -0.746000
      8 C8         -0.0720    0.5570   -1.9330 c3        1 MEL      0.065500
      9 C9          1.1080    1.5600   -1.9480 c         1 MEL      0.642100
     10 O0          1.0050    2.6680   -1.4030 o         1 MEL     -0.523100
     11 N11         2.2230    1.2280   -2.7160 n         1 MEL     -0.448800
     12 C12         3.4860    1.9780   -2.6190 cy        1 MEL     -0.000300
     13 C13         3.8260    2.9550   -3.7260 c         1 MEL      0.554100
     14 O14         4.8370    3.6440   -3.7240 o         1 MEL     -0.423100
     15 N15         2.9210    3.0900   -4.9140 n4        1 MEL     -0.668800
     16 C16         2.5520    4.5160   -5.1890 c3        1 MEL      0.155100
     17 C17         2.3100    4.7780   -6.6440 ca        1 MEL     -0.101300
     18 C18         1.3230    4.0640   -7.3320 ca        1 MEL     -0.093000
     19 C19         1.0620    4.3500   -8.6730 ca        1 MEL     -0.094000
     20 C20         1.7880    5.3560   -9.3210 ca        1 MEL     -0.235900
     21 C21         2.7750    6.0730   -8.6340 ca        1 MEL     -0.094000
     22 C22         3.0380    5.7800   -7.2970 ca        1 MEL     -0.093000
     23 C23         1.5400    5.6190  -10.7560 ce        1 MEL      0.579800
     24 N24         1.7600    4.9100  -11.7940 n2        1 MEL     -0.691100
     25 N25         0.9130    6.9690  -10.9870 n4        1 MEL     -0.822600
     26 C26         4.2700    0.6310   -2.7200 cy        1 MEL     -0.090400
     27 C27         2.8970   -0.0880   -2.7530 cy        1 MEL      0.057000
     28 C28        -1.2280    1.0120   -4.0960 c3        1 MEL     -0.010200
     29 C29        -0.1130    1.8670   -4.7230 c         1 MEL      0.895600
     30 O30         0.5940    1.3940   -5.6540 o         1 MEL     -0.820300
     31 O31         0.1100    3.0140   -4.2300 o         1 MEL     -0.820300
     32 H11        -1.2310   -0.6790   -0.5830 hc        1 MEL      0.076700
     33 H21         1.1260   -1.4270   -0.5240 hc        1 MEL      0.047450
     34 H22         1.6460    0.1720    0.1700 hc        1 MEL      0.047450
     35 H31         1.4220   -1.5100    1.9600 hc        1 MEL      0.061450
     36 H32        -0.2700   -1.8970    1.4510 hc        1 MEL      0.061450
     37 H41         0.7780    0.7940    2.5740 hc        1 MEL      0.062700
     38 H42        -0.3120   -0.3880    3.4010 hc        1 MEL      0.062700
     39 H51        -2.0910   -0.0160    1.7360 hc        1 MEL      0.061450
     40 H52        -1.5600    1.5690    2.4270 hc        1 MEL      0.061450
     41 H61        -1.8640    1.6730   -0.0410 hc        1 MEL      0.047450
     42 H62        -0.1620    2.0420    0.4550 hc        1 MEL      0.047450
     43 H71        -2.1120    0.8100   -2.2240 hn        1 MEL      0.470300
     44 H81         0.1970   -0.3700   -2.5270 hx        1 MEL      0.114700
     45 H121        3.6150    2.5410   -1.6500 h1        1 MEL      0.146700
     46 H151        3.4010    2.6970   -5.7320 hn        1 MEL      0.489300
     47 H161        1.5960    4.7220   -4.6090 hx        1 MEL      0.135200
     48 H162        3.3770    5.1840   -4.8020 hx        1 MEL      0.135200
     49 H181        0.7420    3.2720   -6.8110 ha        1 MEL      0.189500
     50 H191        0.2870    3.7780   -9.2090 ha        1 MEL      0.159000
     51 H211        3.3680    6.8500   -9.1430 ha        1 MEL      0.159000
     52 H221        3.8190    6.3450   -6.7610 ha        1 MEL      0.189500
     53 H241        2.1800    4.0090  -11.6920 hn        1 MEL      0.495400
     54 H251       -0.0200    6.9710  -10.5620 hn        1 MEL      0.474800
     55 H252        0.8300    7.1890  -11.9900 hn        1 MEL      0.474800
     56 H261        4.8880    0.4140   -1.8200 hc        1 MEL      0.100200
     57 H262        4.8840    0.5080   -3.6370 hc        1 MEL      0.100200
     58 H271        2.6670   -0.6360   -3.7000 h1        1 MEL      0.090700
     59 H272        2.6940   -0.7400   -1.8680 h1        1 MEL      0.090700
     60 H281       -2.2200    1.3520   -4.5060 hx        1 MEL      0.113700
     61 H282       -1.0740   -0.0740   -4.3430 hx        1 MEL      0.113700
     62 H72        -1.2170    2.2200   -2.4260 hn        1 MEL      0.470300
     63 H152        2.0370    2.5510   -4.7850 hn        1 MEL      0.489300
     64 H253        1.4960    7.6780  -10.5290 hn        1 MEL      0.474800
@<TRIPOS>BOND
     1    1    2 1   
     2    1    6 1   
     3    1    8 1   
     4    1   32 1   
     5    2    3 1   
     6    2   33 1   
     7    2   34 1   
     8    3    4 1   
     9    3   35 1   
    10    3   36 1   
    11    4    5 1   
    12    4   37 1   
    13    4   38 1   
    14    5    6 1   
    15    5   39 1   
    16    5   40 1   
    17    6   41 1   
    18    6   42 1   
    19    7    8 1   
    20    7   28 1   
    21    7   43 1   
    22    7   62 1   
    23    8    9 1   
    24    8   44 1   
    25    9   10 2   
    26    9   11 1   
    27   11   12 1   
    28   11   27 1   
    29   12   13 1   
    30   12   26 1   
    31   12   45 1   
    32   13   14 2   
    33   13   15 1   
    34   15   16 1   
    35   15   46 1   
    36   15   63 1   
    37   16   17 1   
    38   16   47 1   
    39   16   48 1   
    40   17   18 ar  
    41   17   22 ar  
    42   18   19 ar  
    43   18   49 1   
    44   19   20 ar  
    45   19   50 1   
    46   20   21 ar  
    47   20   23 1   
    48   21   22 ar  
    49   21   51 1   
    50   22   52 1   
    51   23   24 2   
    52   23   25 1   
    53   24   53 1   
    54   25   54 1   
    55   25   55 1   
    56   25   64 1   
    57   26   27 1   
    58   26   56 1   
    59   26   57 1   
    60   27   58 1   
    61   27   59 1   
    62   28   29 1   
    63   28   60 1   
    64   28   61 1   
    65   29   30 1   
    66   29   31 1   
@<TRIPOS>SUBSTRUCTURE
     1 MEL         1 TEMP              0 ****  ****    0 ROOT
