@<TRIPOS>MOLECULE
MEL
   61    63     1     0     0
SMALL
bcc


@<TRIPOS>ATOM
      1 C1          1.0040   -0.1630   -3.9160 c3        1 MEL     -0.096700
      2 C2          2.2590    0.6750   -3.7310 c3        1 MEL     -0.081900
      3 C3          3.4290    0.0960   -4.4980 c3        1 MEL     -0.071400
      4 C4          3.6840   -1.3410   -4.0950 c3        1 MEL     -0.074400
      5 C5          2.4400   -2.1820   -4.2970 c3        1 MEL     -0.071400
      6 C6          1.2460   -1.6180   -3.5540 c3        1 MEL     -0.081900
      7 N7         -1.4760   -0.1670   -3.2760 n3        1 MEL     -0.801200
      8 C8         -0.1750    0.4690   -3.1420 c3        1 MEL      0.139500
      9 C9          0.1670    0.5500   -1.6380 c         1 MEL      0.680100
     10 O0          0.2670   -0.4480   -0.8950 o         1 MEL     -0.631100
     11 N11         0.2900    1.8030   -1.0630 n         1 MEL     -0.478800
     12 C12         0.9210    2.1340    0.2180 cy        1 MEL      0.021700
     13 C13         0.0280    2.0530    1.4530 c         1 MEL      0.667100
     14 O14        -0.0140    2.9970    2.2730 o         1 MEL     -0.648100
     15 N15        -0.6910    0.8960    1.6270 n         1 MEL     -0.552900
     16 C16        -1.5750    0.6950    2.7370 c3        1 MEL      0.137300
     17 C17        -0.9370    0.0710    3.9510 ca        1 MEL     -0.091300
     18 C18        -0.0290    0.8140    4.7140 ca        1 MEL     -0.121000
     19 C19         0.5370    0.2630    5.8600 ca        1 MEL     -0.111500
     20 C20         0.1950   -1.0350    6.2550 ca        1 MEL     -0.205900
     21 C21        -0.7050   -1.7820    5.4900 ca        1 MEL     -0.111500
     22 C22        -1.2660   -1.2300    4.3380 ca        1 MEL     -0.121000
     23 C23         0.8170   -1.6120    7.4880 ce        1 MEL      0.642800
     24 N24         2.0960   -1.6130    7.7320 n2        1 MEL     -0.845100
     25 N25        -0.0990   -2.2240    8.3710 nh        1 MEL     -0.895800
     26 C26         1.1740    3.5730   -0.3190 cy        1 MEL     -0.099400
     27 C27         0.5570    3.1070   -1.6660 cy        1 MEL      0.085000
     28 C28        -2.0720   -0.0150   -4.5910 c3        1 MEL      0.021800
     29 C29        -1.5500   -0.9850   -5.6830 c         1 MEL      0.882600
     30 O30        -1.3390   -0.5080   -6.8320 o         1 MEL     -0.840800
     31 O31        -1.3650   -2.1930   -5.3580 o         1 MEL     -0.840800
     32 H11         0.7070   -0.1370   -5.0100 hc        1 MEL      0.105700
     33 H21         2.0670    1.7220   -4.0860 hc        1 MEL      0.048450
     34 H22         2.5200    0.7280   -2.6400 hc        1 MEL      0.048450
     35 H31         3.2120    0.1420   -5.5970 hc        1 MEL      0.037700
     36 H32         4.3460    0.7130   -4.3060 hc        1 MEL      0.037700
     37 H41         4.5270   -1.7590   -4.7040 hc        1 MEL      0.024700
     38 H42         3.9940   -1.3790   -3.0180 hc        1 MEL      0.024700
     39 H51         2.1980   -2.2350   -5.3910 hc        1 MEL      0.037700
     40 H52         2.6340   -3.2280   -3.9430 hc        1 MEL      0.037700
     41 H61         1.4000   -1.7180   -2.4480 hc        1 MEL      0.048450
     42 H62         0.3360   -2.2180   -3.8450 hc        1 MEL      0.048450
     43 H71        -1.3890   -1.1520   -3.0720 hn        1 MEL      0.381800
     44 H81        -0.2830    1.5240   -3.5430 h1        1 MEL      0.053700
     45 H121        1.8510    1.5410    0.4270 h1        1 MEL      0.080700
     46 H151       -0.5680    0.1410    0.9830 hn        1 MEL      0.356500
     47 H161       -2.4260    0.0410    2.3880 h1        1 MEL      0.064200
     48 H162       -1.9990    1.6970    3.0480 h1        1 MEL      0.064200
     49 H181        0.2330    1.8380    4.3920 ha        1 MEL      0.152000
     50 H191        1.2510    0.8520    6.4550 ha        1 MEL      0.139000
     51 H211       -0.9650   -2.8090    5.7890 ha        1 MEL      0.139000
     52 H221       -1.9650   -1.8260    3.7330 ha        1 MEL      0.152000
     53 H241        2.6490   -1.2410    6.9900 hn        1 MEL      0.395400
     54 H251        0.2570   -2.4380    9.2770 hn        1 MEL      0.394800
     55 H252       -0.9850   -1.7700    8.3900 hn        1 MEL      0.394800
     56 H261        0.5970    4.3560    0.2150 hc        1 MEL      0.069700
     57 H262        2.2460    3.8500   -0.3730 hc        1 MEL      0.069700
     58 H271       -0.3800    3.6340   -1.9710 h1        1 MEL      0.059200
     59 H272        1.2750    3.0790   -2.5230 h1        1 MEL      0.059200
     60 H281       -3.1710   -0.2170   -4.4580 h1        1 MEL      0.037200
     61 H282       -1.9510    1.0420   -4.9500 h1        1 MEL      0.037200
@<TRIPOS>BOND
     1    1    2 1   
     2    1    6 1   
     3    1    8 1   
     4    1   32 1   
     5    2    3 1   
     6    2   33 1   
     7    2   34 1   
     8    3    4 1   
     9    3   35 1   
    10    3   36 1   
    11    4    5 1   
    12    4   37 1   
    13    4   38 1   
    14    5    6 1   
    15    5   39 1   
    16    5   40 1   
    17    6   41 1   
    18    6   42 1   
    19    7    8 1   
    20    7   28 1   
    21    7   43 1   
    22    8    9 1   
    23    8   44 1   
    24    9   10 2   
    25    9   11 1   
    26   11   12 1   
    27   11   27 1   
    28   12   13 1   
    29   12   26 1   
    30   12   45 1   
    31   13   14 2   
    32   13   15 1   
    33   15   16 1   
    34   15   46 1   
    35   16   17 1   
    36   16   47 1   
    37   16   48 1   
    38   17   18 ar  
    39   17   22 ar  
    40   18   19 ar  
    41   18   49 1   
    42   19   20 ar  
    43   19   50 1   
    44   20   21 ar  
    45   20   23 1   
    46   21   22 ar  
    47   21   51 1   
    48   22   52 1   
    49   23   24 2   
    50   23   25 1   
    51   24   53 1   
    52   25   54 1   
    53   25   55 1   
    54   26   27 1   
    55   26   56 1   
    56   26   57 1   
    57   27   58 1   
    58   27   59 1   
    59   28   29 1   
    60   28   60 1   
    61   28   61 1   
    62   29   30 1   
    63   29   31 1   
@<TRIPOS>SUBSTRUCTURE
     1 MEL         1 TEMP              0 ****  ****    0 ROOT
