@<TRIPOS>MOLECULE
MEM
   51    53     1     0     0
SMALL
bcc


@<TRIPOS>ATOM
      1 C24         2.0990    1.5700   -2.7410 c3        1 MEM      0.089600
      2 N23         3.0340    1.4210   -1.5910 n4        1 MEM     -0.559200
      3 C25         2.9700    2.6150   -0.7100 c3        1 MEM      0.089600
      4 C22         2.7170    0.1750   -0.8270 c         1 MEM      0.545100
      5 O26         1.7490    0.1820   -0.0720 o         1 MEM     -0.474100
      6 C20         3.6300   -1.0470   -1.0070 c3        1 MEM      0.104500
      7 C21         4.9430   -0.8150   -0.2220 c3        1 MEM     -0.091400
      8 N19         3.9540   -1.2660   -2.4090 n3        1 MEM     -0.806200
      9 C18         5.3500   -0.8820   -2.6320 c3        1 MEM      0.123800
     10 C17         5.9880   -0.4940   -1.2870 c3        1 MEM     -0.054600
     11 S16         6.3030    1.2420   -1.0420 ss        1 MEM     -0.218700
     12 C2          7.1350    1.8350   -2.3600 c2        1 MEM     -0.211600
     13 C1          8.6460    1.8200   -2.4930 c3        1 MEM      0.000500
     14 C10         9.3530    2.4790   -1.3380 c3        1 MEM     -0.088100
     15 C5          8.8720    2.5170   -3.8540 cy        1 MEM      0.026700
     16 C6          9.3450    3.9950   -3.9510 cy        1 MEM     -0.168700
     17 C8         10.4570    4.2590   -4.9470 c3        1 MEM      0.154100
     18 C9         10.6320    5.7470   -5.1910 c3        1 MEM     -0.141100
     19 O13        11.6380    3.6840   -4.3910 oh        1 MEM     -0.603800
     20 C7          7.9260    4.3300   -4.4660 c         1 MEM      0.694500
     21 O12         7.3710    5.3340   -4.8770 o         1 MEM     -0.510500
     22 N4          7.5060    2.9420   -4.3660 n         1 MEM     -0.312000
     23 C3          6.5580    2.5100   -3.4140 ce        1 MEM      0.072400
     24 C11         5.0620    2.6960   -3.5780 c         1 MEM      0.913800
     25 O15         4.5000    3.6990   -3.0640 o         1 MEM     -0.814800
     26 O14         4.4200    1.7440   -4.1120 o         1 MEM     -0.814800
     27 H1          2.3970    2.5050   -3.3030 hx        1 MEM      0.106367
     28 H2          2.2360    0.6970   -3.4340 hx        1 MEM      0.106367
     29 H3          1.0500    1.6320   -2.3580 hx        1 MEM      0.106367
     30 H4          3.7040    2.4880    0.1280 hx        1 MEM      0.106367
     31 H5          3.2560    3.5200   -1.3240 hx        1 MEM      0.106367
     32 H6          1.9330    2.7250   -0.3000 hx        1 MEM      0.106367
     33 H7          3.0500   -1.9110   -0.5690 h1        1 MEM      0.096700
     34 H8          4.8390    0.0080    0.5300 hc        1 MEM      0.075200
     35 H9          5.2130   -1.7480    0.3330 hc        1 MEM      0.075200
     36 H10         3.7800   -2.2150   -2.6750 hn        1 MEM      0.382800
     37 H12         5.9270   -1.7200   -3.1090 h1        1 MEM      0.096200
     38 H13         5.3490   -0.0060   -3.3520 h1        1 MEM      0.096200
     39 H14         6.9300   -1.0710   -1.1310 h1        1 MEM      0.088700
     40 H15         9.0060    0.7590   -2.5830 hc        1 MEM      0.055700
     41 H16         8.9190    3.4850   -1.1190 hc        1 MEM      0.042367
     42 H17        10.4390    2.6000   -1.5710 hc        1 MEM      0.042367
     43 H18         9.2490    1.8520   -0.4190 hc        1 MEM      0.042367
     44 H19         9.3930    1.8460   -4.5770 h1        1 MEM      0.093700
     45 H20         9.5710    4.4690   -2.9680 hc        1 MEM      0.106700
     46 H21        10.2290    3.7350   -5.9200 h1        1 MEM      0.045700
     47 H22         9.6530    6.2010   -5.4820 hc        1 MEM      0.053033
     48 H23        11.3700    5.9190   -6.0100 hc        1 MEM      0.053033
     49 H24        11.0030    6.2510   -4.2660 hc        1 MEM      0.053033
     50 H25        12.3740    3.9840   -4.9370 ho        1 MEM      0.405000
     51 H231        4.0130    1.3570   -1.9760 hn        1 MEM      0.514800
@<TRIPOS>BOND
     1    1    2 1   
     2    1   27 1   
     3    1   28 1   
     4    1   29 1   
     5    2    3 1   
     6    2    4 1   
     7    2   51 1   
     8    3   30 1   
     9    3   31 1   
    10    3   32 1   
    11    4    5 2   
    12    4    6 1   
    13    6    7 1   
    14    6    8 1   
    15    6   33 1   
    16    7   10 1   
    17    7   34 1   
    18    7   35 1   
    19    8    9 1   
    20    8   36 1   
    21    9   10 1   
    22    9   37 1   
    23    9   38 1   
    24   10   11 1   
    25   10   39 1   
    26   11   12 1   
    27   12   13 1   
    28   12   23 2   
    29   13   14 1   
    30   13   15 1   
    31   13   40 1   
    32   14   41 1   
    33   14   42 1   
    34   14   43 1   
    35   15   16 1   
    36   15   22 1   
    37   15   44 1   
    38   16   17 1   
    39   16   20 1   
    40   16   45 1   
    41   17   18 1   
    42   17   19 1   
    43   17   46 1   
    44   18   47 1   
    45   18   48 1   
    46   18   49 1   
    47   19   50 1   
    48   20   21 2   
    49   20   22 1   
    50   22   23 1   
    51   23   24 1   
    52   24   25 1   
    53   24   26 1   
@<TRIPOS>SUBSTRUCTURE
     1 MEM         1 TEMP              0 ****  ****    0 ROOT
