@<TRIPOS>MOLECULE
MEM
   50    49     1     0     0
SMALL
bcc


@<TRIPOS>ATOM
      1 C24        -3.4260   -3.1720    3.3950 c3        1 MEM     -0.074000
      2 N23        -3.7810   -1.7970    3.0760 n         1 MEM     -0.343000
      3 C25        -3.7550   -0.7990    4.0940 c3        1 MEM     -0.074000
      4 C22        -4.1900   -1.4560    1.7560 c2        1 MEM      0.296000
      5 O26        -5.2560   -0.9120    1.5730 o         1 MEM     -0.361000
      6 C20        -3.3490   -1.7850    0.6360 c3        1 MEM     -0.043000
      7 C21        -1.8370   -1.2030    0.8980 c3        1 MEM     -0.161000
      8 N19        -3.7520   -1.0950   -0.4470 n3        1 MEM     -0.268000
      9 C18        -2.4570   -0.7160   -1.2190 c3        1 MEM     -0.106000
     10 C17        -1.2950   -1.0000   -0.2770 c3        1 MEM     -0.258000
     11 S16        -0.1350    0.4870   -0.2110 ss        1 MEM      0.229000
     12 C2          0.8340    0.5560   -1.7270 c2        1 MEM     -0.441000
     13 C1          1.8640   -0.1390   -1.8440 c3        1 MEM     -0.043000
     14 C10         2.3790   -0.8140   -0.4820 c3        1 MEM     -0.209000
     15 C5          2.9340    1.0320   -2.5180 c3        1 MEM     -0.052000
     16 C6          3.6130    1.6390   -1.6870 c3        1 MEM     -0.210000
     17 C8          3.5870    1.4670   -1.1360 c3        1 MEM      0.053000
     18 C9          5.3290    1.3580   -0.4490 c3        1 MEM     -0.250000
     19 O13         2.6470    2.6930   -0.1760 oh        1 MEM     -0.324000
     20 C7          2.9340    2.8120   -2.0430 c1        1 MEM      0.304000
     21 O12         3.0760    3.9860   -1.8030 o         1 MEM     -0.263000
     22 N4          2.1680    2.1500   -2.7630 n2        1 MEM     -0.205000
     23 C3          0.8870    1.7430   -2.4790 c1        1 MEM      0.080000
     24 C11        -0.2360    2.7660   -2.3770 c1        1 MEM      0.390000
     25 O15        -0.9790    2.9850   -3.3710 o         1 MEM     -0.532000
     26 O14        -0.3750    3.4500   -1.3210 os        1 MEM     -0.514000
     27 H1         -3.6080   -3.7400    2.6280 h1        1 MEM      0.076167
     28 H2         -2.4590   -3.2210    3.6210 h1        1 MEM      0.076167
     29 H3         -3.9590   -3.4780    4.1640 h1        1 MEM      0.076167
     30 H4         -4.6340   -0.3770    4.1580 h1        1 MEM      0.076167
     31 H5         -3.5240   -1.2210    4.9700 h1        1 MEM      0.076167
     32 H6         -3.0870   -0.1250    3.8710 h1        1 MEM      0.076167
     33 H7         -3.4530   -2.7680    0.6070 h1        1 MEM      0.104000
     34 H8         -1.3100   -1.8590    1.4010 hc        1 MEM      0.089500
     35 H9         -1.8860   -0.3510    1.4010 hc        1 MEM      0.089500
     36 H10        -4.1820   -0.3370   -0.1830 hn        1 MEM      0.176000
     37 H12        -2.4730    0.2350   -1.4570 h1        1 MEM      0.132000
     38 H13        -2.3760   -1.2640   -2.0300 h1        1 MEM      0.132000
     39 H14        -0.8090   -1.7960   -0.5680 h1        1 MEM      0.103000
     40 H15         1.7340   -0.9210   -2.4280 hc        1 MEM      0.075000
     41 H16         2.0020   -1.7220   -0.4020 hc        1 MEM      0.079000
     42 H17         2.0880   -0.2690    0.2850 hc        1 MEM      0.079000
     43 H18         3.3610   -0.8680   -0.4940 hc        1 MEM      0.079000
     44 H19         3.4380    0.7270   -3.3000 h1        1 MEM      0.101000
     45 H20         4.5750    1.6500   -1.8760 hc        1 MEM      0.111000
     46 H21         3.1510    0.5920   -1.0790 h1        1 MEM      0.112000
     47 H22         5.7130    2.2470   -0.4000 hc        1 MEM      0.081000
     48 H23         5.3020    0.9660    0.4420 hc        1 MEM      0.081000
     49 H24         5.8800    0.7950   -1.0400 hc        1 MEM      0.081000
     50 H25         3.0900    2.8710    0.6120 ho        1 MEM      0.219000
@<TRIPOS>BOND
     1    1    2 1   
     2    1   27 1   
     3    1   28 1   
     4    1   29 1   
     5    2    3 1   
     6    2    4 1   
     7    3   30 1   
     8    3   31 1   
     9    3   32 1   
    10    4    5 1   
    11    4    6 1   
    12    6    7 1   
    13    6    8 1   
    14    6   33 1   
    15    7   10 1   
    16    7   34 1   
    17    7   35 1   
    18    8    9 1   
    19    8   36 1   
    20    9   10 1   
    21    9   37 1   
    22    9   38 1   
    23   10   11 1   
    24   10   39 1   
    25   11   12 1   
    26   12   13 1   
    27   12   23 1   
    28   13   14 1   
    29   13   15 1   
    30   13   40 1   
    31   14   41 1   
    32   14   42 1   
    33   14   43 1   
    34   15   16 1   
    35   15   22 1   
    36   15   44 1   
    37   16   17 1   
    38   16   20 1   
    39   16   45 1   
    40   17   18 1   
    41   17   19 1   
    42   17   46 1   
    43   18   47 1   
    44   18   48 1   
    45   18   49 1   
    46   19   50 1   
    47   20   21 1   
    48   22   23 1   
    49   24   25 1   
@<TRIPOS>SUBSTRUCTURE
     1 MEM         1 TEMP              0 ****  ****    0 ROOT
