@<TRIPOS>MOLECULE
MEM
   51    53     1     0     0
SMALL
bcc


@<TRIPOS>ATOM
      1 C24         2.0900    1.6750   -2.8040 c3        1 MEM      0.089600
      2 N23         3.0070    1.4820   -1.6460 n4        1 MEM     -0.559200
      3 C25         2.9600    2.6590   -0.7420 c3        1 MEM      0.089600
      4 C22         2.6500    0.2290   -0.9100 c         1 MEM      0.545100
      5 O26         1.6730    0.2450   -0.1670 o         1 MEM     -0.474100
      6 C20         3.5350   -1.0120   -1.1030 c3        1 MEM      0.104500
      7 C21         4.8440   -0.8270   -0.2970 c3        1 MEM     -0.091400
      8 N19         3.8720   -1.2110   -2.5050 n3        1 MEM     -0.806200
      9 C18         5.2790   -0.8570   -2.7030 c3        1 MEM      0.123800
     10 C17         5.9100   -0.5110   -1.3430 c3        1 MEM     -0.054600
     11 S16         6.2630    1.2120   -1.0600 ss        1 MEM     -0.218700
     12 C2          7.1260    1.8090   -2.3570 c2        1 MEM     -0.211600
     13 C1          8.6380    1.7600   -2.4720 c3        1 MEM      0.000500
     14 C10         9.3460    2.3800   -1.2960 c3        1 MEM     -0.088100
     15 C5          8.8970    2.4780   -3.8160 cy        1 MEM      0.026700
     16 C6          9.4070    3.9450   -3.8790 cy        1 MEM     -0.168700
     17 C8         10.5380    4.2000   -4.8560 c3        1 MEM      0.154100
     18 C9         10.7520    5.6890   -5.0680 c3        1 MEM     -0.141100
     19 O13        11.6970    3.5860   -4.2970 oh        1 MEM     -0.603800
     20 C7          8.0040    4.3250   -4.4040 c         1 MEM      0.694500
     21 O12         7.4780    5.3490   -4.8020 o         1 MEM     -0.510500
     22 N4          7.5490    2.9450   -4.3360 n         1 MEM     -0.312000
     23 C3          6.5790    2.5180   -3.4050 ce        1 MEM      0.072400
     24 C11         5.0900    2.7440   -3.5830 c         1 MEM      0.913800
     25 O15         4.5450    3.7510   -3.0570 o         1 MEM     -0.814800
     26 O14         4.4320    1.8190   -4.1430 o         1 MEM     -0.814800
     27 H1          2.4180    2.6130   -3.3440 hx        1 MEM      0.106367
     28 H2          1.0380    1.7560   -2.4320 hx        1 MEM      0.106367
     29 H3          2.2140    0.8120   -3.5120 hx        1 MEM      0.106367
     30 H4          3.2750    3.5690   -1.3360 hx        1 MEM      0.106367
     31 H5          1.9210    2.7870   -0.3440 hx        1 MEM      0.106367
     32 H6          3.6800    2.4980    0.1020 hx        1 MEM      0.106367
     33 H7          2.9290   -1.8700   -0.6880 h1        1 MEM      0.096700
     34 H8          4.7500   -0.0150    0.4690 hc        1 MEM      0.075200
     35 H9          5.0840   -1.7760    0.2430 hc        1 MEM      0.075200
     36 H10         3.6780   -2.1500   -2.7910 hn        1 MEM      0.382800
     37 H12         5.8420   -1.7000   -3.1890 h1        1 MEM      0.096200
     38 H13         5.3080    0.0320   -3.4060 h1        1 MEM      0.096200
     39 H14         6.8350   -1.1130   -1.1870 h1        1 MEM      0.088700
     40 H15         8.9730    0.6920   -2.5780 hc        1 MEM      0.055700
     41 H16         9.2150    1.7370   -0.3910 hc        1 MEM      0.042367
     42 H17         8.9340    3.3910   -1.0630 hc        1 MEM      0.042367
     43 H18        10.4380    2.4780   -1.5130 hc        1 MEM      0.042367
     44 H19         9.4110    1.8080   -4.5460 h1        1 MEM      0.093700
     45 H20         9.6330    4.3940   -2.8840 hc        1 MEM      0.106700
     46 H21        10.3090    3.7010   -5.8420 h1        1 MEM      0.045700
     47 H22        11.1230    6.1650   -4.1300 hc        1 MEM      0.053033
     48 H23        11.5040    5.8580   -5.8750 hc        1 MEM      0.053033
     49 H24         9.7880    6.1720   -5.3620 hc        1 MEM      0.053033
     50 H25        12.4470    3.8780   -4.8290 ho        1 MEM      0.405000
     51 H231        3.9890    1.4010   -2.0200 hn        1 MEM      0.514800
@<TRIPOS>BOND
     1    1    2 1   
     2    1   27 1   
     3    1   28 1   
     4    1   29 1   
     5    2    3 1   
     6    2    4 1   
     7    2   51 1   
     8    3   30 1   
     9    3   31 1   
    10    3   32 1   
    11    4    5 2   
    12    4    6 1   
    13    6    7 1   
    14    6    8 1   
    15    6   33 1   
    16    7   10 1   
    17    7   34 1   
    18    7   35 1   
    19    8    9 1   
    20    8   36 1   
    21    9   10 1   
    22    9   37 1   
    23    9   38 1   
    24   10   11 1   
    25   10   39 1   
    26   11   12 1   
    27   12   13 1   
    28   12   23 2   
    29   13   14 1   
    30   13   15 1   
    31   13   40 1   
    32   14   41 1   
    33   14   42 1   
    34   14   43 1   
    35   15   16 1   
    36   15   22 1   
    37   15   44 1   
    38   16   17 1   
    39   16   20 1   
    40   16   45 1   
    41   17   18 1   
    42   17   19 1   
    43   17   46 1   
    44   18   47 1   
    45   18   48 1   
    46   18   49 1   
    47   19   50 1   
    48   20   21 2   
    49   20   22 1   
    50   22   23 1   
    51   23   24 1   
    52   24   25 1   
    53   24   26 1   
@<TRIPOS>SUBSTRUCTURE
     1 MEM         1 TEMP              0 ****  ****    0 ROOT
