@<TRIPOS>MOLECULE
MEM
   51    53     1     0     0
SMALL
bcc


@<TRIPOS>ATOM
      1 C24         4.2310    1.3420    0.6850 c3        1 MEM      0.090100
      2 N23         3.8980    1.5330   -0.7450 nx        1 MEM     -0.640200
      3 C25         3.7820    2.9750   -1.0570 c3        1 MEM      0.090100
      4 C22         2.6220    0.8200   -1.0850 c         1 MEM      0.548100
      5 O26         1.7370    0.7730   -0.2380 o         1 MEM     -0.471100
      6 C20         2.5140    0.1640   -2.4700 c3        1 MEM      0.107500
      7 C21         3.5420   -0.9890   -2.5810 c3        1 MEM     -0.100400
      8 N19         2.7930    1.1390   -3.5140 n7        1 MEM     -0.828200
      9 C18         4.0970    0.8310   -4.1040 c3        1 MEM      0.124800
     10 C17         4.6830   -0.4070   -3.4050 c3        1 MEM     -0.053600
     11 S16         5.9490   -0.0510   -2.1930 ss        1 MEM     -0.141700
     12 C2          7.1460    0.8840   -2.9050 c2        1 MEM     -0.270600
     13 C1          8.1380    1.5530   -1.9710 c3        1 MEM      0.003500
     14 C10         7.5440    2.6780   -1.1630 c3        1 MEM     -0.089100
     15 C5          9.2470    2.0070   -2.9460 cy        1 MEM      0.026700
     16 C6          9.4030    3.4910   -3.3810 cy        1 MEM     -0.177700
     17 C8         10.8150    4.0380   -3.3270 c3        1 MEM      0.154100
     18 C9         10.9300    5.3440   -4.0930 c3        1 MEM     -0.140100
     19 O13        11.1160    4.2270   -1.9450 oh        1 MEM     -0.609800
     20 C7          8.9250    3.0410   -4.7850 c         1 MEM      0.695500
     21 O12         8.8120    3.5940   -5.8620 o         1 MEM     -0.499500
     22 N4          8.7720    1.6650   -4.3450 n         1 MEM     -0.299000
     23 C3          7.5170    1.0310   -4.2210 ce        1 MEM      0.064400
     24 C11         6.6810    0.6160   -5.4460 c         1 MEM      0.917800
     25 O15         6.0630    1.5460   -6.0220 o         1 MEM     -0.782300
     26 O14         6.6080   -0.6100   -5.7020 o         1 MEM     -0.782300
     27 H1          3.4040    1.7330    1.3340 hx        1 MEM      0.091033
     28 H2          5.1830    1.8880    0.9180 hx        1 MEM      0.091033
     29 H3          4.3700    0.2470    0.8830 hx        1 MEM      0.091033
     30 H4          3.5730    3.1130   -2.1520 hx        1 MEM      0.091033
     31 H5          2.9550    3.4340   -0.4550 hx        1 MEM      0.091033
     32 H6          4.7570    3.4730   -0.8070 hx        1 MEM      0.091033
     33 H7          1.4580   -0.2320   -2.5250 h1        1 MEM      0.103700
     34 H8          3.8740   -1.3580   -1.5790 hc        1 MEM      0.079700
     35 H9          3.0740   -1.8520   -3.1210 hc        1 MEM      0.079700
     36 H10         2.0660    1.1470   -4.2040 hn        1 MEM      0.393800
     37 H12         4.7670    1.7280   -3.9690 h1        1 MEM      0.113200
     38 H13         4.0410    0.6520   -5.2180 h1        1 MEM      0.113200
     39 H14         5.1060   -1.1120   -4.1730 h1        1 MEM      0.177700
     40 H15         8.5790    0.7920   -1.2710 hc        1 MEM      0.063700
     41 H16         6.8710    2.2690   -0.3680 hc        1 MEM      0.031700
     42 H17         8.3580    3.2660   -0.6710 hc        1 MEM      0.031700
     43 H18         6.9450    3.3670   -1.8060 hc        1 MEM      0.031700
     44 H19        10.2210    1.5160   -2.7090 h1        1 MEM      0.096700
     45 H20         8.6900    4.1940   -2.8910 hc        1 MEM      0.095700
     46 H21        11.5340    3.2800   -3.7510 h1        1 MEM      0.048700
     47 H22        11.9970    5.6690   -4.1400 hc        1 MEM      0.053033
     48 H23        10.5460    5.2090   -5.1340 hc        1 MEM      0.053033
     49 H24        10.3360    6.1430   -3.5890 hc        1 MEM      0.053033
     50 H25        11.9670    4.6780   -1.9080 ho        1 MEM      0.405000
     51 H231        4.7480    1.0920   -1.3630 hn        1 MEM      0.493800
@<TRIPOS>BOND
     1    1    2 1   
     2    1   27 1   
     3    1   28 1   
     4    1   29 1   
     5    2    3 1   
     6    2    4 1   
     7    2   51 1   
     8    3   30 1   
     9    3   31 1   
    10    3   32 1   
    11    4    5 2   
    12    4    6 1   
    13    6    7 1   
    14    6    8 1   
    15    6   33 1   
    16    7   10 1   
    17    7   34 1   
    18    7   35 1   
    19    8    9 1   
    20    8   36 1   
    21    9   10 1   
    22    9   37 1   
    23    9   38 1   
    24   10   11 1   
    25   10   39 1   
    26   11   12 1   
    27   12   13 1   
    28   12   23 2   
    29   13   14 1   
    30   13   15 1   
    31   13   40 1   
    32   14   41 1   
    33   14   42 1   
    34   14   43 1   
    35   15   16 1   
    36   15   22 1   
    37   15   44 1   
    38   16   17 1   
    39   16   20 1   
    40   16   45 1   
    41   17   18 1   
    42   17   19 1   
    43   17   46 1   
    44   18   47 1   
    45   18   48 1   
    46   18   49 1   
    47   19   50 1   
    48   20   21 2   
    49   20   22 1   
    50   22   23 1   
    51   23   24 1   
    52   24   25 1   
    53   24   26 1   
@<TRIPOS>SUBSTRUCTURE
     1 MEM         1 TEMP              0 ****  ****    0 ROOT
