@<TRIPOS>MOLECULE
MEM
   50    52     1     0     0
SMALL
bcc


@<TRIPOS>ATOM
      1 C24         7.2360    0.2270    1.4260 c3        1 MEM      0.082800
      2 N23         6.1570    0.6710    0.5890 n         1 MEM     -0.486800
      3 C25         6.2580    1.9940    0.0510 c3        1 MEM      0.082800
      4 C22         5.2150   -0.2430    0.1170 c         1 MEM      0.655100
      5 O26         5.2640   -1.4280    0.4990 o         1 MEM     -0.599100
      6 C20         4.1230    0.2580   -0.8360 c3        1 MEM      0.100500
      7 C21         3.0250    1.0060   -0.0400 c3        1 MEM     -0.081400
      8 N19         3.4970   -0.8000   -1.6350 n3        1 MEM     -0.786200
      9 C18         2.0640   -0.5100   -1.7000 c3        1 MEM      0.130800
     10 C17         1.7030    0.5610   -0.6520 c3        1 MEM     -0.036600
     11 S16         0.6860   -0.0280    0.6820 ss        1 MEM     -0.197700
     12 C2         -0.8760    0.1150    0.1010 c2        1 MEM     -0.209600
     13 C1         -1.6670    1.3960    0.3150 c3        1 MEM     -0.010500
     14 C10        -1.8340    1.7480    1.7700 c3        1 MEM     -0.081100
     15 C5         -2.9870    1.1090   -0.4250 cy        1 MEM      0.016700
     16 C6         -4.2870    0.7370    0.3390 cy        1 MEM     -0.231700
     17 C8         -5.5370    1.4770   -0.0880 c3        1 MEM      0.153100
     18 C9         -6.7710    0.8510    0.5400 c3        1 MEM     -0.131100
     19 O13        -5.4560    2.8590    0.2360 oh        1 MEM     -0.602800
     20 C7         -4.1190   -0.6840   -0.2590 c         1 MEM      0.705500
     21 O12        -4.8220   -1.6810   -0.2450 o         1 MEM     -0.531500
     22 N4         -2.9000   -0.3160   -0.9420 n         1 MEM     -0.305000
     23 C3         -1.6270   -0.8260   -0.5610 ce        1 MEM      0.062400
     24 C11        -1.2200   -2.2690   -0.9300 c         1 MEM      0.939800
     25 O15        -0.4880   -2.3980   -1.9430 o         1 MEM     -0.788300
     26 O14        -1.6530   -3.1760   -0.1820 o         1 MEM     -0.788300
     27 H1          7.3270    0.9100    2.3130 h1        1 MEM      0.036700
     28 H2          7.0410   -0.8180    1.7880 h1        1 MEM      0.036700
     29 H3          8.2080    0.2420    0.8630 h1        1 MEM      0.036700
     30 H4          6.6610    1.9790   -0.9990 h1        1 MEM      0.036700
     31 H5          5.2490    2.4880    0.0410 h1        1 MEM      0.036700
     32 H6          6.9480    2.6100    0.6870 h1        1 MEM      0.036700
     33 H7          4.5910    0.9640   -1.5840 h1        1 MEM      0.061700
     34 H8          3.0730    0.7410    1.0470 hc        1 MEM      0.052200
     35 H9          3.1580    2.1110   -0.1340 hc        1 MEM      0.052200
     36 H10         3.6530   -1.6980   -1.2090 hn        1 MEM      0.377800
     37 H12         1.8580   -0.1060   -2.7300 h1        1 MEM      0.093700
     38 H13         1.4310   -1.4370   -1.5670 h1        1 MEM      0.093700
     39 H14         1.1830    1.4090   -1.1580 h1        1 MEM      0.065700
     40 H15        -1.1500    2.2470   -0.2080 hc        1 MEM      0.045700
     41 H16        -0.8480    2.0490    2.2000 hc        1 MEM      0.031033
     42 H17        -2.5530    2.5960    1.8850 hc        1 MEM      0.031033
     43 H18        -2.2110    0.8740    2.3540 hc        1 MEM      0.031033
     44 H19        -3.1650    1.8360   -1.2520 h1        1 MEM      0.081700
     45 H20        -4.1780    0.7390    1.4490 hc        1 MEM      0.086700
     46 H21        -5.6270    1.4740   -1.2130 h1        1 MEM      0.082700
     47 H22        -6.7410    0.9570    1.6500 hc        1 MEM      0.046033
     48 H23        -7.6890    1.3570    0.1600 hc        1 MEM      0.046033
     49 H24        -6.8110   -0.2360    0.2820 hc        1 MEM      0.046033
     50 H25        -5.2670    2.9200    1.1800 ho        1 MEM      0.393000
@<TRIPOS>BOND
     1    1    2 1   
     2    1   27 1   
     3    1   28 1   
     4    1   29 1   
     5    2    3 1   
     6    2    4 1   
     7    3   30 1   
     8    3   31 1   
     9    3   32 1   
    10    4    5 2   
    11    4    6 1   
    12    6    7 1   
    13    6    8 1   
    14    6   33 1   
    15    7   10 1   
    16    7   34 1   
    17    7   35 1   
    18    8    9 1   
    19    8   36 1   
    20    9   10 1   
    21    9   37 1   
    22    9   38 1   
    23   10   11 1   
    24   10   39 1   
    25   11   12 1   
    26   12   13 1   
    27   12   23 2   
    28   13   14 1   
    29   13   15 1   
    30   13   40 1   
    31   14   41 1   
    32   14   42 1   
    33   14   43 1   
    34   15   16 1   
    35   15   22 1   
    36   15   44 1   
    37   16   17 1   
    38   16   20 1   
    39   16   45 1   
    40   17   18 1   
    41   17   19 1   
    42   17   46 1   
    43   18   47 1   
    44   18   48 1   
    45   18   49 1   
    46   19   50 1   
    47   20   21 2   
    48   20   22 1   
    49   22   23 1   
    50   23   24 1   
    51   24   25 1   
    52   24   26 1   
@<TRIPOS>SUBSTRUCTURE
     1 MEM         1 TEMP              0 ****  ****    0 ROOT
