@<TRIPOS>MOLECULE
MEN
   19    18     1     0     0
SMALL
bcc


@<TRIPOS>ATOM
      1 N          -0.7200    1.1690   -0.3220 n3        1 MEN     -0.903800
      2 CA          0.1950    0.0700   -0.6010 c3        1 MEN      0.005500
      3 C           0.2550   -0.3650   -2.1080 c         1 MEN      0.893600
      4 O          -0.3970    0.3210   -2.9440 o         1 MEN     -0.834300
      5 CB         -0.0890   -1.1780    0.2280 c3        1 MEN     -0.132400
      6 CG         -0.1820   -0.9910    1.7250 c         1 MEN      0.659100
      7 OD1        -0.8140   -1.8070    2.4360 o         1 MEN     -0.664100
      8 ND2         0.5070    0.0550    2.3220 n         1 MEN     -0.558900
      9 CE2         0.3310    0.3760    3.7010 c3        1 MEN      0.079300
     10 OXT         0.9740   -1.3620   -2.3890 o         1 MEN     -0.834300
     11 H          -1.6620    0.8200   -0.3600 hn        1 MEN      0.338800
     12 H2         -0.6320    1.8290   -1.0780 hn        1 MEN      0.338800
     13 HA          1.2330    0.4480   -0.3610 h1        1 MEN      0.039700
     14 HB2         0.7320   -1.9170    0.0150 hc        1 MEN      0.085700
     15 HB3        -1.0530   -1.6450   -0.1080 hc        1 MEN      0.085700
     16 HD2         0.8110    0.7990    1.7350 hn        1 MEN      0.321500
     17 HE21       -0.4340    1.1870    3.8480 h1        1 MEN      0.027033
     18 HE22       -0.0040   -0.5340    4.2680 h1        1 MEN      0.027033
     19 HE23        1.3080    0.7340    4.1240 h1        1 MEN      0.027033
@<TRIPOS>BOND
     1    1    2 1   
     2    1   11 1   
     3    1   12 1   
     4    2    3 1   
     5    2    5 1   
     6    2   13 1   
     7    3    4 1   
     8    3   10 1   
     9    5    6 1   
    10    5   14 1   
    11    5   15 1   
    12    6    7 2   
    13    6    8 1   
    14    8    9 1   
    15    8   16 1   
    16    9   17 1   
    17    9   18 1   
    18    9   19 1   
@<TRIPOS>SUBSTRUCTURE
     1 MEN         1 TEMP              0 ****  ****    0 ROOT
