@<TRIPOS>MOLECULE
MEP
   40    41     1     0     0
SMALL
bcc


@<TRIPOS>ATOM
      1 P           0.3210    3.0860   -3.5820 p5        1 MEP      1.429800
      2 OP1        -1.1450    2.9010   -3.4950 o         1 MEP     -0.842000
      3 OP2         1.0280    4.1230   -4.3560 o         1 MEP     -0.842000
      4 OP3         0.8110    1.5920   -4.0480 oh        1 MEP     -0.787400
      5 O5'         0.9330    3.0890   -2.0530 os        1 MEP     -0.580200
      6 C5'         0.2980    2.2990   -1.0930 c3        1 MEP      0.189400
      7 C4'         1.3310    1.3750   -0.4240 c3        1 MEP      0.122100
      8 O4'         1.1590    1.4850    0.9990 os        1 MEP     -0.426600
      9 C3'         1.2060   -0.1090   -0.8020 c3        1 MEP     -0.082700
     10 C3M         2.2200   -0.5100   -1.8440 c3        1 MEP     -0.085100
     11 C2'         1.3300   -0.8770    0.5220 c3        1 MEP      0.107100
     12 O2'         2.5100   -1.6840    0.4930 os        1 MEP     -0.429600
     13 C1'         1.4680    0.2200    1.6260 c3        1 MEP      0.306500
     14 N1          0.6300   -0.0030    2.7890 n         1 MEP     -0.321400
     15 C2          1.0280    0.6070    4.0080 c         1 MEP      0.721100
     16 O2          2.1250    1.2090    4.1710 o         1 MEP     -0.702100
     17 N3          0.1710    0.4730    5.1110 n         1 MEP     -0.596500
     18 C4         -1.0470   -0.2480    5.0540 c         1 MEP      0.676300
     19 O4         -1.7180   -0.2810    6.1190 o         1 MEP     -0.722100
     20 C5         -1.3610   -0.8680    3.7870 ce        1 MEP     -0.500500
     21 C5M        -2.5990   -1.6610    3.6980 c3        1 MEP      0.045100
     22 C6         -0.5380   -0.7200    2.6810 c1        1 MEP     -0.089900
     23 CA'         2.5450   -2.6430    1.5360 c3        1 MEP      0.122700
     24 H5'        -0.5340    1.7080   -1.5650 h1        1 MEP      0.040700
     25 H5''       -0.1320    2.9720   -0.2970 h1        1 MEP      0.040700
     26 H4'         2.3660    1.7520   -0.6610 h1        1 MEP      0.058700
     27 H3'         0.1740   -0.3020   -1.2080 hc        1 MEP      0.061700
     28 HO3'        2.0730    0.1000   -2.7710 hc        1 MEP      0.038700
     29 H3T2        3.2570   -0.3490   -1.4650 hc        1 MEP      0.038700
     30 H3T3        2.1060   -1.5920   -2.0920 hc        1 MEP      0.038700
     31 H2'         0.4250   -1.5220    0.7020 h1        1 MEP      0.107700
     32 H1'         2.5430    0.2920    1.9740 h2        1 MEP      0.066700
     33 H3          0.4370    0.9260    5.9530 hn        1 MEP      0.301500
     34 H71        -2.5140   -2.6070    4.2910 hc        1 MEP     -0.000633
     35 H72        -3.4680   -1.0870    4.1090 hc        1 MEP     -0.000633
     36 H73        -2.8160   -1.9300    2.6350 hc        1 MEP     -0.000633
     37 H6          0.1110    0.9550   -3.9590 ho        1 MEP      0.421000
     38 HA'1        3.5050   -3.1940    1.3790 h1        1 MEP      0.024700
     39 HA'2        2.5390   -2.1420    2.5350 h1        1 MEP      0.024700
     40 HA'3        1.6750   -3.3420    1.4600 h1        1 MEP      0.024700
@<TRIPOS>BOND
     1    1    2 1   
     2    1    3 1   
     3    1    4 1   
     4    1    5 1   
     5    4   37 1   
     6    5    6 1   
     7    6    7 1   
     8    6   24 1   
     9    6   25 1   
    10    7    8 1   
    11    7    9 1   
    12    7   26 1   
    13    8   13 1   
    14    9   10 1   
    15    9   11 1   
    16    9   27 1   
    17   10   28 1   
    18   10   29 1   
    19   10   30 1   
    20   11   12 1   
    21   11   13 1   
    22   11   31 1   
    23   12   23 1   
    24   13   14 1   
    25   13   32 1   
    26   14   15 1   
    27   14   22 2   
    28   15   16 2   
    29   15   17 1   
    30   17   18 1   
    31   17   33 1   
    32   18   19 2   
    33   18   20 1   
    34   20   21 1   
    35   20   22 2   
    36   21   34 1   
    37   21   35 1   
    38   21   36 1   
    39   23   38 1   
    40   23   39 1   
    41   23   40 1   
@<TRIPOS>SUBSTRUCTURE
     1 MEP         1 TEMP              0 ****  ****    0 ROOT
