@<TRIPOS>MOLECULE
MEQ
   22    21     1     0     0
SMALL
bcc


@<TRIPOS>ATOM
      1 N          -1.3560   -6.5410   -2.1110 n3        1 MEQ     -0.892800
      2 CA         -0.3460   -5.4920   -2.1500 c3        1 MEQ      0.018500
      3 CB          0.1690   -5.0930   -0.7650 c3        1 MEQ     -0.073400
      4 CG         -0.8960   -4.4130    0.0640 c3        1 MEQ     -0.145400
      5 CD         -0.4930   -4.0780    1.4860 c         1 MEQ      0.658100
      6 OE1        -1.3540   -3.9610    2.3870 o         1 MEQ     -0.655100
      7 NE2         0.8410   -3.8560    1.7700 n         1 MEQ     -0.579900
      8 CE          1.3210   -3.5870    3.0830 c3        1 MEQ      0.085300
      9 C           0.8930   -5.8190   -3.0530 c         1 MEQ      0.887600
     10 O           0.8380   -6.8490   -3.7810 o         1 MEQ     -0.841300
     11 OXT         1.8690   -5.0190   -3.0140 o         1 MEQ     -0.841300
     12 H          -1.4760   -6.8710   -3.0560 hn        1 MEQ      0.333300
     13 H2         -0.9920   -7.3170   -1.5870 hn        1 MEQ      0.333300
     14 HA         -0.8420   -4.5900   -2.6130 h1        1 MEQ      0.041700
     15 HB2         0.5570   -5.9950   -0.2260 hc        1 MEQ      0.051700
     16 HB3         1.0370   -4.4000   -0.9480 hc        1 MEQ      0.051700
     17 HG2        -1.2020   -3.4500   -0.4270 hc        1 MEQ      0.075200
     18 HG3        -1.8100   -5.0630    0.1280 hc        1 MEQ      0.075200
     19 HE21        1.5160   -4.0230    1.0610 hn        1 MEQ      0.323500
     20 HE1         1.9860   -2.6800    3.0680 h1        1 MEQ      0.031367
     21 HE2         1.9190   -4.4540    3.4770 h1        1 MEQ      0.031367
     22 HE3         0.4610   -3.3970    3.7800 h1        1 MEQ      0.031367
@<TRIPOS>BOND
     1    1    2 1   
     2    1   12 1   
     3    1   13 1   
     4    2    3 1   
     5    2    9 1   
     6    2   14 1   
     7    3    4 1   
     8    3   15 1   
     9    3   16 1   
    10    4    5 1   
    11    4   17 1   
    12    4   18 1   
    13    5    6 2   
    14    5    7 1   
    15    7    8 1   
    16    7   19 1   
    17    8   20 1   
    18    8   21 1   
    19    8   22 1   
    20    9   10 1   
    21    9   11 1   
@<TRIPOS>SUBSTRUCTURE
     1 MEQ         1 TEMP              0 ****  ****    0 ROOT
