@<TRIPOS>MOLECULE
MER
   52    53     1     0     0
SMALL
bcc


@<TRIPOS>ATOM
      1 C1          4.1830    0.3980    0.8210 c         1 MER      0.576900
      2 C2          0.7770   -0.2870   -0.0830 c2        1 MER     -0.194600
      3 C3          4.1730   -1.0230    0.3100 c3        1 MER     -0.240700
      4 C4          2.8960   -1.3750   -0.4720 c3        1 MER      0.178500
      5 C5          1.4090    0.2960   -1.1490 ce        1 MER      0.061800
      6 O6          4.6700    0.6770    1.9210 o         1 MER     -0.558100
      7 C7          5.4160   -1.2770   -0.5590 c3        1 MER      0.145100
      8 O8          5.5450   -2.6610   -0.8540 oh        1 MER     -0.596800
      9 C9          6.6760   -0.7640    0.1150 c3        1 MER     -0.135100
     10 N10         2.5510   -0.4420   -1.5550 nh        1 MER     -0.701000
     11 C11         1.1530    1.6200   -1.8760 c         1 MER      0.929800
     12 O12         2.1470    2.3970   -1.9130 o         1 MER     -0.814300
     13 O13         0.0250    1.8450   -2.3840 o         1 MER     -0.814300
     14 S14        -0.6370    0.0660    0.7400 ss        1 MER     -0.193700
     15 C15        -1.8140    0.4580   -0.5160 c3        1 MER     -0.060600
     16 C16        -3.0100   -0.4840   -0.5030 c3        1 MER     -0.077400
     17 C17        -4.2490    0.4200   -0.7300 c3        1 MER      0.109500
     18 C18         1.6010   -1.4640    0.4080 c3        1 MER     -0.006500
     19 N19        -3.8370    1.8230   -0.6120 n3        1 MER     -0.784200
     20 C20         1.8100   -1.4530    1.8980 c3        1 MER     -0.090100
     21 C21        -2.4120    1.8570   -0.2870 c3        1 MER      0.156800
     22 C22        -5.3540    0.0480    0.2730 c         1 MER      0.662100
     23 N23        -6.0230   -1.1710    0.0770 n         1 MER     -0.493800
     24 O24        -5.7150    0.7780    1.2120 o         1 MER     -0.580100
     25 C25        -5.5250   -2.1750   -0.8160 c3        1 MER      0.079800
     26 C26        -6.9690   -1.6230    1.0600 c3        1 MER      0.079800
     27 H1          3.7280    1.1770    0.1670 h4        1 MER      0.054200
     28 H3          4.2320   -1.7190    1.1950 hc        1 MER      0.070700
     29 H4          3.0860   -2.3800   -0.9520 h1        1 MER      0.064700
     30 H7          5.2970   -0.8010   -1.5740 h1        1 MER      0.086700
     31 HO8         5.6060   -3.1280   -0.0130 ho        1 MER      0.391000
     32 H9          6.7390   -1.1350    1.1660 hc        1 MER      0.045700
     33 H9A         7.5750   -1.1130   -0.4470 hc        1 MER      0.045700
     34 H9B         6.6700    0.3520    0.1380 hc        1 MER      0.045700
     35 HN10        3.2990    0.1350   -1.8810 hn        1 MER      0.399800
     36 H15        -1.3020    0.4450   -1.5200 h1        1 MER      0.142700
     37 H16        -2.9340   -1.2460   -1.3150 hc        1 MER      0.050700
     38 H16A       -3.0810   -1.0200    0.4760 hc        1 MER      0.050700
     39 H17        -4.6680    0.2350   -1.7640 h1        1 MER      0.043700
     40 H18         1.0760   -2.4200    0.1290 hc        1 MER      0.047700
     41 HN19       -4.0100    2.2910   -1.4820 hn        1 MER      0.353800
     42 H20         0.8150   -1.4310    2.4100 hc        1 MER      0.035033
     43 H20A        2.3580   -2.3690    2.2280 hc        1 MER      0.035033
     44 H20B        2.3860   -0.5530    2.2250 hc        1 MER      0.035033
     45 H21        -2.3210    2.1440    0.7970 h1        1 MER      0.077700
     46 H21A       -1.8560    2.6110   -0.9100 h1        1 MER      0.077700
     47 H25        -4.6060   -2.6770   -0.4040 h1        1 MER      0.034700
     48 H25A       -6.3130   -2.9580   -0.9780 h1        1 MER      0.034700
     49 H25B       -5.2670   -1.7240   -1.8110 h1        1 MER      0.034700
     50 H26        -7.8660   -2.0540    0.5400 h1        1 MER      0.034700
     51 H26A       -6.5220   -2.4180    1.7170 h1        1 MER      0.034700
     52 H26B       -7.2980   -0.7650    1.7050 h1        1 MER      0.034700
@<TRIPOS>BOND
     1    1    3 1   
     2    1    6 2   
     3    1   27 1   
     4    2    5 2   
     5    2   14 1   
     6    2   18 1   
     7    3    4 1   
     8    3    7 1   
     9    3   28 1   
    10    4   10 1   
    11    4   18 1   
    12    4   29 1   
    13    5   10 1   
    14    5   11 1   
    15    7    8 1   
    16    7    9 1   
    17    7   30 1   
    18    8   31 1   
    19    9   32 1   
    20    9   33 1   
    21    9   34 1   
    22   10   35 1   
    23   11   12 1   
    24   11   13 1   
    25   14   15 1   
    26   15   16 1   
    27   15   21 1   
    28   15   36 1   
    29   16   17 1   
    30   16   37 1   
    31   16   38 1   
    32   17   19 1   
    33   17   22 1   
    34   17   39 1   
    35   18   20 1   
    36   18   40 1   
    37   19   21 1   
    38   19   41 1   
    39   20   42 1   
    40   20   43 1   
    41   20   44 1   
    42   21   45 1   
    43   21   46 1   
    44   22   23 1   
    45   22   24 2   
    46   23   25 1   
    47   23   26 1   
    48   25   47 1   
    49   25   48 1   
    50   25   49 1   
    51   26   50 1   
    52   26   51 1   
    53   26   52 1   
@<TRIPOS>SUBSTRUCTURE
     1 MER         1 TEMP              0 ****  ****    0 ROOT
