@<TRIPOS>MOLECULE
MER
   53    54     1     0     0
SMALL
bcc


@<TRIPOS>ATOM
      1 C1         -0.4960    0.7130    1.0320 c         1 MER      0.572900
      2 C2          2.2860    2.3820    2.8320 c2        1 MER     -0.172600
      3 C3          0.7780   -0.0220    0.6970 c3        1 MER     -0.202700
      4 C4          1.9420    0.3030    1.6450 c3        1 MER      0.180500
      5 C5          1.7410    1.4460    3.6690 ce        1 MER      0.081800
      6 O6         -1.1570    1.3080    0.1790 o         1 MER     -0.525100
      7 C7          0.4950   -1.5340    0.6960 c3        1 MER      0.149100
      8 O8          1.6890   -2.1560    0.2300 oh        1 MER     -0.596800
      9 C9         -0.6750   -1.8870   -0.2050 c3        1 MER     -0.139100
     10 N10         1.6500    0.1640    3.0830 nu        1 MER     -0.690000
     11 C11         1.3180    1.6550    5.0880 c         1 MER      0.916800
     12 O12         0.1410    2.0880    5.3290 o         1 MER     -0.834300
     13 O13         2.1270    1.4700    6.0460 o         1 MER     -0.834300
     14 S14         2.6150    4.0160    2.9610 ss        1 MER     -0.158700
     15 C15         3.3680    4.3890    4.5120 c3        1 MER     -0.033600
     16 C16         2.4010    4.5770    5.6810 c3        1 MER     -0.101400
     17 C17         3.1220    3.9970    6.9170 c3        1 MER      0.136500
     18 C18         2.5440    1.7420    1.4780 c3        1 MER     -0.005500
     19 N19         4.3580    3.3410    6.4750 n7        1 MER     -0.780200
     20 C20         2.0180    2.5600    0.3300 c3        1 MER     -0.097100
     21 C21         4.4220    3.3950    5.0160 c3        1 MER      0.152800
     22 C22         2.3050    3.0920    7.8480 c         1 MER      0.571100
     23 N23         0.7970    3.1620    7.8430 nx        1 MER     -0.609200
     24 O24         2.8120    2.3470    8.6800 o         1 MER     -0.472100
     25 C25         0.3230    4.4970    8.2520 c3        1 MER      0.100100
     26 C26         0.2070    2.0970    8.6880 c3        1 MER      0.100100
     27 H1         -0.8210    0.6840    2.0960 h4        1 MER      0.009200
     28 H3          1.1070    0.2600   -0.3440 hc        1 MER      0.101700
     29 H4          2.7550   -0.4510    1.4170 h1        1 MER      0.093700
     30 H7          0.2840   -1.8880    1.7450 h1        1 MER      0.033700
     31 HO8         1.5080   -3.1020    0.1820 ho        1 MER      0.404000
     32 H9         -0.4600   -1.5780   -1.2570 hc        1 MER      0.050033
     33 H9A        -0.8550   -2.9880   -0.1880 hc        1 MER      0.050033
     34 H9B        -1.6010   -1.3650    0.1380 hc        1 MER      0.050033
     35 HN10        0.8170   -0.3370    3.3090 hn        1 MER      0.393800
     36 H15         3.8620    5.3720    4.2830 h1        1 MER      0.088700
     37 H16         1.4380    4.0580    5.4490 hc        1 MER      0.069200
     38 H16A        2.1830    5.6620    5.8420 hc        1 MER      0.069200
     39 H17         3.4390    4.8500    7.5950 h1        1 MER      0.078700
     40 H18         3.6560    1.6190    1.3490 hc        1 MER      0.064700
     41 HN19        4.3950    2.3870    6.7940 hn        1 MER      0.399800
     42 H20         2.3100    2.1000   -0.6450 hc        1 MER      0.045367
     43 H20A        2.4530    3.5910    0.3800 hc        1 MER      0.045367
     44 H20B        0.9050    2.6510    0.3630 hc        1 MER      0.045367
     45 H21         5.4570    3.7390    4.7410 h1        1 MER      0.069700
     46 H21A        4.2430    2.3830    4.5530 h1        1 MER      0.069700
     47 H25         0.6140    4.6990    9.3160 hx        1 MER      0.087533
     48 H25A       -0.7940    4.5370    8.1570 hx        1 MER      0.087533
     49 H25B        0.7790    5.2740    7.5810 hx        1 MER      0.087533
     50 H26         0.5410    2.2150    9.7510 hx        1 MER      0.087533
     51 H26A        0.5640    1.1080    8.2870 hx        1 MER      0.087533
     52 H26B       -0.9100    2.1570    8.6190 hx        1 MER      0.087533
     53 H231        0.4780    2.9480    6.8410 hn        1 MER      0.532800
@<TRIPOS>BOND
     1    1    3 1   
     2    1    6 2   
     3    1   27 1   
     4    2    5 2   
     5    2   14 1   
     6    2   18 1   
     7    3    4 1   
     8    3    7 1   
     9    3   28 1   
    10    4   10 1   
    11    4   18 1   
    12    4   29 1   
    13    5   10 1   
    14    5   11 1   
    15    7    8 1   
    16    7    9 1   
    17    7   30 1   
    18    8   31 1   
    19    9   32 1   
    20    9   33 1   
    21    9   34 1   
    22   10   35 1   
    23   11   12 1   
    24   11   13 1   
    25   14   15 1   
    26   15   16 1   
    27   15   21 1   
    28   15   36 1   
    29   16   17 1   
    30   16   37 1   
    31   16   38 1   
    32   17   19 1   
    33   17   22 1   
    34   17   39 1   
    35   18   20 1   
    36   18   40 1   
    37   19   21 1   
    38   19   41 1   
    39   20   42 1   
    40   20   43 1   
    41   20   44 1   
    42   21   45 1   
    43   21   46 1   
    44   22   23 1   
    45   22   24 2   
    46   23   25 1   
    47   23   26 1   
    48   23   53 1   
    49   25   47 1   
    50   25   48 1   
    51   25   49 1   
    52   26   50 1   
    53   26   51 1   
    54   26   52 1   
@<TRIPOS>SUBSTRUCTURE
     1 MER         1 TEMP              0 ****  ****    0 ROOT
