@<TRIPOS>MOLECULE
MER
   53    54     1     0     0
SMALL
bcc


@<TRIPOS>ATOM
      1 C1         -0.6100    0.7270    1.1540 c         1 MER      0.573900
      2 C2          1.9880    2.1430    3.4330 c2        1 MER     -0.258600
      3 C3          0.7370    0.2070    0.7180 c3        1 MER     -0.202700
      4 C4          1.8360    0.3910    1.7760 c3        1 MER      0.199500
      5 C5          1.4940    0.9830    4.0030 ce        1 MER      0.158800
      6 O6         -1.2660    1.5140    0.4720 o         1 MER     -0.522100
      7 C7          0.5920   -1.2780    0.3440 c3        1 MER      0.148100
      8 O8          1.8670   -1.6920   -0.1380 oh        1 MER     -0.598800
      9 C9         -0.4750   -1.4830   -0.7170 c3        1 MER     -0.139100
     10 N10         1.4850   -0.0850    3.1220 nh        1 MER     -0.717000
     11 C11         1.0120    0.8650    5.4320 c         1 MER      0.902800
     12 O12        -0.2250    0.9460    5.6620 o         1 MER     -0.827300
     13 O13         1.8780    0.8130    6.3590 o         1 MER     -0.827300
     14 S14         2.0800    3.6230    4.1770 ss        1 MER     -0.232700
     15 C15         3.7030    3.7980    4.9030 c3        1 MER     -0.054600
     16 C16         3.5300    4.8920    5.9520 c3        1 MER     -0.078400
     17 C17         3.4440    4.1350    7.3040 c3        1 MER      0.117500
     18 C18         2.3270    1.8720    1.9840 c3        1 MER      0.005500
     19 N19         3.9860    2.8000    7.1120 n3        1 MER     -0.801200
     20 C20         1.7650    2.8920    1.0320 c3        1 MER     -0.095100
     21 C21         4.2140    2.5790    5.6830 c3        1 MER      0.142800
     22 C22         2.0030    4.2610    7.8190 c         1 MER      0.511100
     23 N23         0.9700    3.3390    7.2440 n4        1 MER     -0.581200
     24 O24         1.6400    5.0820    8.6550 o         1 MER     -0.466100
     25 C25        -0.2350    4.0700    6.7840 c3        1 MER      0.091100
     26 C26         0.5990    2.3060    8.2490 c3        1 MER      0.091100
     27 H1         -0.9930    0.3470    2.1280 h4        1 MER      0.009200
     28 H3          1.0720    0.7600   -0.2060 hc        1 MER      0.102700
     29 H4          2.7180   -0.2290    1.4310 h1        1 MER      0.091700
     30 H7          0.3370   -1.8820    1.2610 h1        1 MER      0.031700
     31 HO8         1.7600   -2.5930   -0.4670 ho        1 MER      0.406000
     32 H9         -1.4580   -1.0950   -0.3580 hc        1 MER      0.051033
     33 H9A        -0.5810   -2.5700   -0.9490 hc        1 MER      0.051033
     34 H9B        -0.1980   -0.9440   -1.6540 hc        1 MER      0.051033
     35 HN10        0.8040   -0.7980    3.2250 hn        1 MER      0.427800
     36 H15         4.4330    4.0880    4.1130 h1        1 MER      0.092700
     37 H16         4.4200    5.5700    5.9660 hc        1 MER      0.071700
     38 H16A        2.6230    5.5190    5.7640 hc        1 MER      0.071700
     39 H17         4.0750    4.6460    8.0920 h1        1 MER      0.111700
     40 H18         3.4470    1.8590    1.8690 hc        1 MER      0.052700
     41 HN19        3.4210    2.0700    7.5070 hn        1 MER      0.403800
     42 H20         0.6480    2.8890    1.0360 hc        1 MER      0.043033
     43 H20A        2.1100    3.9120    1.3360 hc        1 MER      0.043033
     44 H20B        2.1200    2.6940   -0.0090 hc        1 MER      0.043033
     45 H21         5.3250    2.4710    5.5410 h1        1 MER      0.086200
     46 H21A        3.7140    1.6320    5.3280 h1        1 MER      0.086200
     47 H25        -0.6950    4.6220    7.6430 hx        1 MER      0.103367
     48 H25A        0.0640    4.7900    5.9760 hx        1 MER      0.103367
     49 H25B       -0.9580    3.3140    6.3640 hx        1 MER      0.103367
     50 H26         0.1110    2.8040    9.1250 hx        1 MER      0.103367
     51 H26A       -0.0940    1.5640    7.7510 hx        1 MER      0.103367
     52 H26B        1.5220    1.7500    8.5620 hx        1 MER      0.103367
     53 H231        1.3870    2.8650    6.3960 hn        1 MER      0.512800
@<TRIPOS>BOND
     1    1    3 1   
     2    1    6 2   
     3    1   27 1   
     4    2    5 2   
     5    2   14 1   
     6    2   18 1   
     7    3    4 1   
     8    3    7 1   
     9    3   28 1   
    10    4   10 1   
    11    4   18 1   
    12    4   29 1   
    13    5   10 1   
    14    5   11 1   
    15    7    8 1   
    16    7    9 1   
    17    7   30 1   
    18    8   31 1   
    19    9   32 1   
    20    9   33 1   
    21    9   34 1   
    22   10   35 1   
    23   11   12 1   
    24   11   13 1   
    25   14   15 1   
    26   15   16 1   
    27   15   21 1   
    28   15   36 1   
    29   16   17 1   
    30   16   37 1   
    31   16   38 1   
    32   17   19 1   
    33   17   22 1   
    34   17   39 1   
    35   18   20 1   
    36   18   40 1   
    37   19   21 1   
    38   19   41 1   
    39   20   42 1   
    40   20   43 1   
    41   20   44 1   
    42   21   45 1   
    43   21   46 1   
    44   22   23 1   
    45   22   24 2   
    46   23   25 1   
    47   23   26 1   
    48   23   53 1   
    49   25   47 1   
    50   25   48 1   
    51   25   49 1   
    52   26   50 1   
    53   26   51 1   
    54   26   52 1   
@<TRIPOS>SUBSTRUCTURE
     1 MER         1 TEMP              0 ****  ****    0 ROOT
