@<TRIPOS>MOLECULE
MES
   25    25     1     0     0
SMALL
bcc


@<TRIPOS>ATOM
      1 O1          0.1020    0.0130   -0.1030 os        1 MES     -0.388600
      2 C2          1.5200    0.0100   -0.0180 c3        1 MES      0.099400
      3 C3          1.9900    0.0840    1.4390 c3        1 MES      0.069300
      4 N4          1.4060    1.2530    2.1570 n4        1 MES     -0.687400
      5 C5         -0.0770    1.2640    1.9800 c3        1 MES      0.069300
      6 C6         -0.4780    1.1600    0.5060 c3        1 MES      0.099400
      7 C7          1.7880    1.2520    3.6240 c3        1 MES      0.171800
      8 C8          1.5860    2.5690    4.2730 c3        1 MES     -0.302600
      9 S           2.1900    2.3960    6.0560 s6        1 MES      1.444800
     10 O1S         3.5010    1.9560    5.8300 o         1 MES     -0.722867
     11 O2S         1.3130    1.4110    6.5240 o         1 MES     -0.722867
     12 O3S         2.0270    3.6830    6.5520 o         1 MES     -0.722867
     13 H21         1.8270   -0.9740   -0.4650 h1        1 MES      0.081950
     14 H22         1.9440    0.8560   -0.6210 h1        1 MES      0.081950
     15 H31         3.1130    0.1640    1.4760 hx        1 MES      0.111950
     16 H32         1.6750   -0.8480    1.9890 hx        1 MES      0.111950
     17 HN4         1.7800    2.1150    1.7420 hn        1 MES      0.434800
     18 H51        -0.5010    0.3900    2.5510 hx        1 MES      0.111950
     19 H52        -0.4790    2.2160    2.4300 hx        1 MES      0.111950
     20 H61        -0.1880    2.0850   -0.0600 h1        1 MES      0.081950
     21 H62        -1.5860    0.9920    0.4260 h1        1 MES      0.081950
     22 H71         2.8810    0.9640    3.6760 hx        1 MES      0.111700
     23 H72         1.1720    0.4570    4.1370 hx        1 MES      0.111700
     24 H81         0.5220    2.8790    4.3380 h1        1 MES      0.080700
     25 H82         2.1880    3.3860    3.8240 h1        1 MES      0.080700
@<TRIPOS>BOND
     1    1    2 1   
     2    1    6 1   
     3    2    3 1   
     4    2   13 1   
     5    2   14 1   
     6    3    4 1   
     7    3   15 1   
     8    3   16 1   
     9    4    5 1   
    10    4    7 1   
    11    4   17 1   
    12    5    6 1   
    13    5   18 1   
    14    5   19 1   
    15    6   20 1   
    16    6   21 1   
    17    7    8 1   
    18    7   22 1   
    19    7   23 1   
    20    8    9 1   
    21    8   24 1   
    22    8   25 1   
    23    9   10 1   
    24    9   11 1   
    25    9   12 1   
@<TRIPOS>SUBSTRUCTURE
     1 MES         1 TEMP              0 ****  ****    0 ROOT
