@<TRIPOS>MOLECULE
MES
   25    25     1     0     0
SMALL
bcc


@<TRIPOS>ATOM
      1 O1          4.1790    0.2370   -0.2780 os        1 MES     -0.388600
      2 C2          3.7540   -1.0010    0.2760 c3        1 MES      0.099400
      3 C3          2.2920   -1.2940   -0.0750 c3        1 MES      0.069300
      4 N4          1.3850   -0.1800    0.3260 n4        1 MES     -0.687400
      5 C5          1.9070    1.1120   -0.2100 c3        1 MES      0.069300
      6 C6          3.3780    1.3300    0.1530 c3        1 MES      0.099400
      7 C7         -0.0400   -0.4330   -0.1270 c3        1 MES      0.171800
      8 C8         -1.0280    0.4150    0.5810 c3        1 MES     -0.302600
      9 S          -2.7360   -0.0970   -0.0510 s6        1 MES      1.444800
     10 O1S        -2.7030   -1.4680    0.2360 o         1 MES     -0.722867
     11 O2S        -2.6080    0.2220   -1.4060 o         1 MES     -0.722867
     12 O3S        -3.5840    0.6930    0.7140 o         1 MES     -0.722867
     13 H21         3.9080   -0.9990    1.3880 h1        1 MES      0.081950
     14 H22         4.4190   -1.7680   -0.2030 h1        1 MES      0.081950
     15 H31         1.9540   -2.2360    0.4430 hx        1 MES      0.111950
     16 H32         2.1880   -1.4370   -1.1880 hx        1 MES      0.111950
     17 HN4         1.3750   -0.1170    1.3510 hn        1 MES      0.434800
     18 H51         1.7900    1.0950   -1.3310 hx        1 MES      0.111950
     19 H52         1.2720    1.9470    0.2030 hx        1 MES      0.111950
     20 H61         3.5040    1.4890    1.2570 h1        1 MES      0.081950
     21 H62         3.7800    2.2140   -0.4120 h1        1 MES      0.081950
     22 H71        -0.2580   -1.5250    0.0740 hx        1 MES      0.111700
     23 H72        -0.0830   -0.2480   -1.2400 hx        1 MES      0.111700
     24 H81        -0.9310    1.4980    0.3600 h1        1 MES      0.080700
     25 H82        -1.0490    0.2560    1.6790 h1        1 MES      0.080700
@<TRIPOS>BOND
     1    1    2 1   
     2    1    6 1   
     3    2    3 1   
     4    2   13 1   
     5    2   14 1   
     6    3    4 1   
     7    3   15 1   
     8    3   16 1   
     9    4    5 1   
    10    4    7 1   
    11    4   17 1   
    12    5    6 1   
    13    5   18 1   
    14    5   19 1   
    15    6   20 1   
    16    6   21 1   
    17    7    8 1   
    18    7   22 1   
    19    7   23 1   
    20    8    9 1   
    21    8   24 1   
    22    8   25 1   
    23    9   10 1   
    24    9   11 1   
    25    9   12 1   
@<TRIPOS>SUBSTRUCTURE
     1 MES         1 TEMP              0 ****  ****    0 ROOT
