@<TRIPOS>MOLECULE
MES
   25    25     1     0     0
SMALL
bcc


@<TRIPOS>ATOM
      1 O1          0.1090    0.0060   -0.1030 os        1 MES     -0.388600
      2 C2          1.5280    0.0150   -0.0200 c3        1 MES      0.099400
      3 C3          1.9990    0.0920    1.4360 c3        1 MES      0.069300
      4 N4          1.4050    1.2550    2.1560 nx        1 MES     -0.687400
      5 C5         -0.0770    1.2540    1.9810 c3        1 MES      0.069300
      6 C6         -0.4800    1.1480    0.5080 c3        1 MES      0.099400
      7 C7          1.7900    1.2560    3.6230 c3        1 MES      0.171800
      8 C8          1.5760    2.5700    4.2740 c3        1 MES     -0.302600
      9 S           2.1850    2.3990    6.0560 s6        1 MES      1.444800
     10 O1S         3.4990    1.9740    5.8270 o         1 MES     -0.722867
     11 O2S         1.3190    1.4050    6.5230 o         1 MES     -0.722867
     12 O3S         2.0090    3.6840    6.5540 o         1 MES     -0.722867
     13 H21         1.8430   -0.9650   -0.4680 h1        1 MES      0.081950
     14 H22         1.9430    0.8660   -0.6230 h1        1 MES      0.081950
     15 H31         1.6930   -0.8440    1.9850 hx        1 MES      0.111950
     16 H32         3.1210    0.1820    1.4720 hx        1 MES      0.111950
     17 HN4         1.7720    2.1200    1.7420 hn        1 MES      0.434800
     18 H51        -0.4870    2.2010    2.4330 hx        1 MES      0.111950
     19 H52        -0.4930    0.3750    2.5530 hx        1 MES      0.111950
     20 H61        -1.5860    0.9700    0.4300 h1        1 MES      0.081950
     21 H62        -0.1980    2.0750   -0.0580 h1        1 MES      0.081950
     22 H71         2.8860    0.9770    3.6740 hx        1 MES      0.111700
     23 H72         1.1820    0.4540    4.1360 hx        1 MES      0.111700
     24 H81         0.5100    2.8690    4.3410 h1        1 MES      0.080700
     25 H82         2.1690    3.3930    3.8260 h1        1 MES      0.080700
@<TRIPOS>BOND
     1    1    2 1   
     2    1    6 1   
     3    2    3 1   
     4    2   13 1   
     5    2   14 1   
     6    3    4 1   
     7    3   15 1   
     8    3   16 1   
     9    4    5 1   
    10    4    7 1   
    11    4   17 1   
    12    5    6 1   
    13    5   18 1   
    14    5   19 1   
    15    6   20 1   
    16    6   21 1   
    17    7    8 1   
    18    7   22 1   
    19    7   23 1   
    20    8    9 1   
    21    8   24 1   
    22    8   25 1   
    23    9   10 1   
    24    9   11 1   
    25    9   12 1   
@<TRIPOS>SUBSTRUCTURE
     1 MES         1 TEMP              0 ****  ****    0 ROOT
