@<TRIPOS>MOLECULE
MET
   19    18     1     0     0
SMALL
bcc


@<TRIPOS>ATOM
      1 N          -1.9240   -0.0310   -1.1500 n3        1 MET     -0.894800
      2 CA         -0.5180    0.3530   -1.1270 c3        1 MET      0.018500
      3 C           0.2860   -0.0590   -2.4080 c         1 MET      0.889600
      4 O          -0.3380   -0.6560   -3.3310 o         1 MET     -0.840800
      5 CB          0.2340   -0.1760    0.0980 c3        1 MET     -0.059400
      6 CG         -0.2950    0.4260    1.3730 c3        1 MET      0.018700
      7 SD          0.6620   -0.2080    2.7340 ss        1 MET     -0.339200
      8 CE         -0.1500    0.5170    4.1060 c3        1 MET     -0.037000
      9 OXT         1.5070    0.2530   -2.4520 o         1 MET     -0.840800
     10 H          -2.2680    0.1610   -2.0770 hn        1 MET      0.331800
     11 H2         -1.9830   -1.0280   -1.0320 hn        1 MET      0.331800
     12 HA         -0.4970    1.4820   -1.0920 h1        1 MET      0.040700
     13 HB2         1.3170    0.0880   -0.0430 hc        1 MET      0.062200
     14 HB3         0.1600   -1.2940    0.1410 hc        1 MET      0.062200
     15 HG2        -1.3700    0.1640    1.5220 h1        1 MET      0.055200
     16 HG3        -0.2110    1.5390    1.3440 h1        1 MET      0.055200
     17 HE1         0.3780    0.1610    5.0190 h1        1 MET      0.048367
     18 HE2        -0.1060    1.6290    4.0710 h1        1 MET      0.048367
     19 HE3        -1.2190    0.2120    4.1610 h1        1 MET      0.048367
@<TRIPOS>BOND
     1    1    2 1   
     2    1   10 1   
     3    1   11 1   
     4    2    3 1   
     5    2    5 1   
     6    2   12 1   
     7    3    4 1   
     8    3    9 1   
     9    5    6 1   
    10    5   13 1   
    11    5   14 1   
    12    6    7 1   
    13    6   15 1   
    14    6   16 1   
    15    7    8 1   
    16    8   17 1   
    17    8   18 1   
    18    8   19 1   
@<TRIPOS>SUBSTRUCTURE
     1 MET         1 TEMP              0 ****  ****    0 ROOT
