@<TRIPOS>MOLECULE
MEU
   13    12     1     0     0
SMALL
bcc


@<TRIPOS>ATOM
      1 CB         -1.9280    0.0290   -1.2880 c3        1 MEU      0.126700
      2 OXT        -0.6680    0.4140   -0.8760 os        1 MEU     -0.445900
      3 N           1.5980    0.8290    1.3270 n3        1 MEU     -0.910800
      4 CA          1.2820   -0.3280    0.4640 c3        1 MEU      0.119800
      5 C          -0.1760   -0.3430    0.1550 c         1 MEU      0.630100
      6 O          -0.9430   -0.9750    0.8740 o         1 MEU     -0.531000
      7 HB1        -1.9180   -0.9240   -1.5130 h1        1 MEU      0.052367
      8 HB2        -2.1910    0.5480   -2.0760 h1        1 MEU      0.052367
      9 HB3        -2.5700    0.1870   -0.5600 h1        1 MEU      0.052367
     10 H           2.1280    1.4430    0.8500 hn        1 MEU      0.365300
     11 H2          2.0690    0.5330    2.0890 hn        1 MEU      0.365300
     12 HA1         1.5250   -1.1540    0.9270 h1        1 MEU      0.061700
     13 HA2         1.7930   -0.2590   -0.3730 h1        1 MEU      0.061700
@<TRIPOS>BOND
     1    1    2 1   
     2    1    7 1   
     3    1    8 1   
     4    1    9 1   
     5    2    5 1   
     6    3    4 1   
     7    3   10 1   
     8    3   11 1   
     9    4    5 1   
    10    4   12 1   
    11    4   13 1   
    12    5    6 2   
@<TRIPOS>SUBSTRUCTURE
     1 MEU         1 TEMP              0 ****  ****    0 ROOT
