@<TRIPOS>MOLECULE
MEU
   13    12     1     0     0
SMALL
bcc


@<TRIPOS>ATOM
      1 CB          2.3400   -0.0880    0.0540 c3        1 MEU      0.125700
      2 OXT         1.1220    0.6470   -0.0740 os        1 MEU     -0.436900
      3 N          -2.5270    0.1340    0.0930 n3        1 MEU     -0.894800
      4 CA         -1.2760    0.8110   -0.0660 c3        1 MEU      0.116800
      5 C          -0.0390   -0.0520    0.0870 c         1 MEU      0.578100
      6 O           0.0260   -1.2600    0.3300 o         1 MEU     -0.550000
      7 HB1         3.1330    0.6810   -0.1150 h1        1 MEU      0.051700
      8 HB2         2.4110   -0.5330    1.0760 h1        1 MEU      0.051700
      9 HB3         2.3800   -0.8950   -0.7170 h1        1 MEU      0.051700
     10 H          -2.6410   -0.5890   -0.5910 hn        1 MEU      0.363800
     11 H2         -2.6130   -0.2670    1.0070 hn        1 MEU      0.363800
     12 HA1        -1.2360    1.2780   -1.0920 h1        1 MEU      0.088700
     13 HA2        -1.2050    1.6390    0.6970 h1        1 MEU      0.088700
@<TRIPOS>BOND
     1    1    2 1   
     2    1    7 1   
     3    1    8 1   
     4    1    9 1   
     5    2    5 1   
     6    3    4 1   
     7    3   10 1   
     8    3   11 1   
     9    4    5 1   
    10    4   12 1   
    11    4   13 1   
    12    5    6 2   
@<TRIPOS>SUBSTRUCTURE
     1 MEU         1 TEMP              0 ****  ****    0 ROOT
