@<TRIPOS>MOLECULE
MEV
   21    20     1     0     0
SMALL
bcc


@<TRIPOS>ATOM
      1 C8          0.0860   -0.0590   -0.0200 c3        1 MEV      0.130400
      2 O8          1.5080   -0.0580    0.0720 oh        1 MEV     -0.618800
      3 C2         -0.4660    0.1330    1.3790 c3        1 MEV     -0.075400
      4 C3         -1.9980    0.0370    1.4090 c3        1 MEV      0.182800
      5 O7         -2.3380   -1.1880    0.7640 oh        1 MEV     -0.656800
      6 C4         -2.4670    0.0400    2.8650 c3        1 MEV     -0.225400
      7 C5         -3.9960    0.0140    3.0210 c         1 MEV      0.909600
      8 O3         -4.6780   -0.6870    2.2120 o         1 MEV     -0.849300
      9 O4         -4.5040    0.6810    3.9640 o         1 MEV     -0.849300
     10 C6         -2.6310    1.2000    0.6510 c3        1 MEV     -0.117100
     11 H81        -0.2760   -1.0320   -0.4460 h1        1 MEV      0.028700
     12 H82        -0.2350    0.7790   -0.6960 h1        1 MEV      0.028700
     13 HX2         1.8320   -0.3520   -0.7850 ho        1 MEV      0.381000
     14 H21        -0.1550    1.1310    1.7780 hc        1 MEV      0.045200
     15 H22        -0.0370   -0.6570    2.0490 hc        1 MEV      0.045200
     16 HX         -3.2700   -1.3660    0.9850 ho        1 MEV      0.456000
     17 H41        -2.0620   -0.8690    3.3780 hc        1 MEV      0.036200
     18 H42        -2.0640    0.9470    3.3790 hc        1 MEV      0.036200
     19 H61        -2.2710    2.1710    1.0630 hc        1 MEV      0.036367
     20 H62        -2.3760    1.1420   -0.4340 hc        1 MEV      0.036367
     21 H63        -3.7430    1.1430    0.7640 hc        1 MEV      0.036367
@<TRIPOS>BOND
     1    1    2 1   
     2    1    3 1   
     3    1   11 1   
     4    1   12 1   
     5    2   13 1   
     6    3    4 1   
     7    3   14 1   
     8    3   15 1   
     9    4    5 1   
    10    4    6 1   
    11    4   10 1   
    12    5   16 1   
    13    6    7 1   
    14    6   17 1   
    15    6   18 1   
    16    7    8 1   
    17    7    9 1   
    18   10   19 1   
    19   10   20 1   
    20   10   21 1   
@<TRIPOS>SUBSTRUCTURE
     1 MEV         1 TEMP              0 ****  ****    0 ROOT
