@<TRIPOS>MOLECULE
MEV
   21    20     1     0     0
SMALL
bcc


@<TRIPOS>ATOM
      1 C8          0.0740   -0.0310   -0.0410 c3        1 MEV      0.130400
      2 O8          1.4960   -0.0730    0.0430 oh        1 MEV     -0.618800
      3 C2         -0.4660    0.0950    1.3700 c3        1 MEV     -0.075400
      4 C3         -2.0010    0.0390    1.4040 c3        1 MEV      0.182800
      5 O7         -2.3770   -1.1370    0.6910 oh        1 MEV     -0.656800
      6 C4         -2.4630   -0.0300    2.8600 c3        1 MEV     -0.225400
      7 C5         -3.9910   -0.0230    3.0240 c         1 MEV      0.909600
      8 O3         -4.6960   -0.6580    2.1790 o         1 MEV     -0.849300
      9 O4         -4.4760    0.6010    4.0070 o         1 MEV     -0.849300
     10 C6         -2.6050    1.2610    0.7180 c3        1 MEV     -0.117100
     11 H81        -0.3160   -0.9690   -0.5200 h1        1 MEV      0.028700
     12 H82        -0.2280    0.8520   -0.6660 h1        1 MEV      0.028700
     13 HX2         1.8080   -0.3270   -0.8310 ho        1 MEV      0.381000
     14 H21        -0.1270    1.0600    1.8240 hc        1 MEV      0.045200
     15 H22        -0.0560   -0.7430    1.9910 hc        1 MEV      0.045200
     16 HX         -3.3120   -1.3020    0.9070 ho        1 MEV      0.456000
     17 H41        -2.0810   -0.9780    3.3170 hc        1 MEV      0.036200
     18 H42        -2.0330    0.8340    3.4240 hc        1 MEV      0.036200
     19 H61        -2.2160    2.1960    1.1840 hc        1 MEV      0.036367
     20 H62        -3.7170    1.2270    0.8340 hc        1 MEV      0.036367
     21 H63        -2.3560    1.2600   -0.3690 hc        1 MEV      0.036367
@<TRIPOS>BOND
     1    1    2 1   
     2    1    3 1   
     3    1   11 1   
     4    1   12 1   
     5    2   13 1   
     6    3    4 1   
     7    3   14 1   
     8    3   15 1   
     9    4    5 1   
    10    4    6 1   
    11    4   10 1   
    12    5   16 1   
    13    6    7 1   
    14    6   17 1   
    15    6   18 1   
    16    7    8 1   
    17    7    9 1   
    18   10   19 1   
    19   10   20 1   
    20   10   21 1   
@<TRIPOS>SUBSTRUCTURE
     1 MEV         1 TEMP              0 ****  ****    0 ROOT
