@<TRIPOS>MOLECULE
MEV
   21    20     1     0     0
SMALL
bcc


@<TRIPOS>ATOM
      1 C8         -2.7700    0.1970   -0.0360 c3        1 MEV      0.130400
      2 O8         -3.9430   -0.6120   -0.0650 oh        1 MEV     -0.618800
      3 C2         -1.5730   -0.7270   -0.1430 c3        1 MEV     -0.075400
      4 C3         -0.2460    0.0370   -0.0120 c3        1 MEV      0.182800
      5 O7         -0.3400    0.8040    1.1850 oh        1 MEV     -0.656800
      6 C4          0.9000   -0.9720    0.0700 c3        1 MEV     -0.225400
      7 C5          2.2910   -0.3210    0.1370 c         1 MEV      0.909600
      8 O3          2.4320    0.7460    0.8110 o         1 MEV     -0.849300
      9 O4          3.2400   -0.8910   -0.4690 o         1 MEV     -0.849300
     10 C6         -0.0380    0.9740   -1.1980 c3        1 MEV     -0.117100
     11 H81        -2.7220    0.7800    0.9220 h1        1 MEV      0.028700
     12 H82        -2.8020    0.9140   -0.9000 h1        1 MEV      0.028700
     13 HX2        -4.6730   -0.0330    0.1790 ho        1 MEV      0.381000
     14 H21        -1.5890   -1.2610   -1.1270 hc        1 MEV      0.045200
     15 H22        -1.6340   -1.4950    0.6690 hc        1 MEV      0.045200
     16 HX          0.5650    1.0980    1.3950 ho        1 MEV      0.456000
     17 H41         0.7740   -1.5900    0.9940 hc        1 MEV      0.036200
     18 H42         0.8590   -1.6490   -0.8180 hc        1 MEV      0.036200
     19 H61         0.9710    1.4490   -1.1110 hc        1 MEV      0.036367
     20 H62        -0.0930    0.4040   -2.1550 hc        1 MEV      0.036367
     21 H63        -0.8140    1.7750   -1.2020 hc        1 MEV      0.036367
@<TRIPOS>BOND
     1    1    2 1   
     2    1    3 1   
     3    1   11 1   
     4    1   12 1   
     5    2   13 1   
     6    3    4 1   
     7    3   14 1   
     8    3   15 1   
     9    4    5 1   
    10    4    6 1   
    11    4   10 1   
    12    5   16 1   
    13    6    7 1   
    14    6   17 1   
    15    6   18 1   
    16    7    8 1   
    17    7    9 1   
    18   10   19 1   
    19   10   20 1   
    20   10   21 1   
@<TRIPOS>SUBSTRUCTURE
     1 MEV         1 TEMP              0 ****  ****    0 ROOT
