@<TRIPOS>MOLECULE
MEV
   21    20     1     0     0
SMALL
bcc


@<TRIPOS>ATOM
      1 C8          1.6530    0.0910   -1.2410 c3        1 MEV      0.131400
      2 O8          3.0640    0.0910   -1.2410 oh        1 MEV     -0.629800
      3 C2          1.1490    0.0910    0.1850 c3        1 MEV     -0.147400
      4 C3         -0.3620    0.1550    0.1860 c3        1 MEV      0.185800
      5 O7         -0.8560   -0.4070   -1.0050 oh        1 MEV     -0.650800
      6 C4         -0.8990   -0.6200    1.3690 c3        1 MEV     -0.225400
      7 C5         -1.7860   -1.7430    0.8760 c         1 MEV      0.908600
      8 O3         -1.2830   -2.8580    0.5800 o         1 MEV     -0.848800
      9 O4         -3.0270   -1.5620    0.7630 o         1 MEV     -0.848800
     10 C6         -0.8060    1.5970    0.2850 c3        1 MEV     -0.087100
     11 H81         1.3280   -0.7070   -1.7010 h1        1 MEV      0.039700
     12 H82         1.3280    0.8880   -1.7010 h1        1 MEV      0.039700
     13 HX2         3.3600    0.0560   -2.0770 ho        1 MEV      0.400000
     14 H21         1.5080    0.8660    0.6570 hc        1 MEV      0.064700
     15 H22         1.4400   -0.7260    0.6340 hc        1 MEV      0.064700
     16 HX         -1.5340    0.0820   -1.3040 ho        1 MEV      0.453000
     17 H41        -1.4180   -0.0230    1.9400 hc        1 MEV      0.037200
     18 H42        -0.1550   -0.9930    1.8790 hc        1 MEV      0.037200
     19 H61        -0.4110    2.0050    1.0790 hc        1 MEV      0.025367
     20 H62        -0.5130    2.0830   -0.5100 hc        1 MEV      0.025367
     21 H63        -1.7790    1.6350    0.3490 hc        1 MEV      0.025367
@<TRIPOS>BOND
     1    1    2 1   
     2    1    3 1   
     3    1   11 1   
     4    1   12 1   
     5    2   13 1   
     6    3    4 1   
     7    3   14 1   
     8    3   15 1   
     9    4    5 1   
    10    4    6 1   
    11    4   10 1   
    12    5   16 1   
    13    6    7 1   
    14    6   17 1   
    15    6   18 1   
    16    7    8 1   
    17    7    9 1   
    18   10   19 1   
    19   10   20 1   
    20   10   21 1   
@<TRIPOS>SUBSTRUCTURE
     1 MEV         1 TEMP              0 ****  ****    0 ROOT
