@<TRIPOS>MOLECULE
MEW
   20    21     1     0     0
SMALL
bcc


@<TRIPOS>ATOM
      1 CAN         3.3150   -1.2720   -0.0130 c3        1 MEW     -0.143400
      2 CAT         1.9270   -0.6730   -0.0020 cc        1 MEW      0.492900
      3 NAO         0.8700   -1.4660   -0.0370 nd        1 MEW     -0.623100
      4 CAV        -0.4010   -0.8780   -0.0250 ca        1 MEW      0.183400
      5 CAK        -1.5590   -1.6940   -0.0620 ca        1 MEW     -0.123000
      6 CAG        -2.8170   -1.1120   -0.0510 ca        1 MEW     -0.095000
      7 CAH        -2.9690    0.2800   -0.0030 ca        1 MEW     -0.154000
      8 CAL        -1.8510    1.1000    0.0340 ca        1 MEW     -0.059000
      9 CAW        -0.5710    0.5310    0.0230 ca        1 MEW     -0.190600
     10 CAU         0.6250    1.3920    0.0620 c         1 MEW      0.708100
     11 OAC         0.6140    2.6360    0.1060 o         1 MEW     -0.625500
     12 NAQ         1.8610    0.7260    0.0470 n         1 MEW     -0.500400
     13 H1          3.8630   -0.9700    0.9140 hc        1 MEW      0.068367
     14 H2          3.2680   -2.3880   -0.0520 hc        1 MEW      0.068367
     15 H3          3.8760   -0.9060   -0.9080 hc        1 MEW      0.068367
     16 H4         -1.4520   -2.7890   -0.1000 ha        1 MEW      0.153000
     17 H5         -3.7120   -1.7530   -0.0800 ha        1 MEW      0.137000
     18 H6         -3.9770    0.7200    0.0060 ha        1 MEW      0.140000
     19 H7         -1.9470    2.1980    0.0720 ha        1 MEW      0.158000
     20 H8          2.7000    1.2610    0.0720 hn        1 MEW      0.334500
@<TRIPOS>BOND
     1    1    2 1   
     2    1   13 1   
     3    1   14 1   
     4    1   15 1   
     5    2    3 2   
     6    2   12 1   
     7    3    4 1   
     8    4    5 ar  
     9    4    9 ar  
    10    5    6 ar  
    11    5   16 1   
    12    6    7 ar  
    13    6   17 1   
    14    7    8 ar  
    15    7   18 1   
    16    8    9 ar  
    17    8   19 1   
    18    9   10 1   
    19   10   11 2   
    20   10   12 1   
    21   12   20 1   
@<TRIPOS>SUBSTRUCTURE
     1 MEW         1 TEMP              0 ****  ****    0 ROOT
