@<TRIPOS>MOLECULE
MEW
   20    21     1     0     0
SMALL
bcc


@<TRIPOS>ATOM
      1 CAN        -0.0380   -0.0010   -0.0240 c3        1 MEW     -0.143400
      2 CAT         1.4720   -0.0010    0.0400 cc        1 MEW      0.492900
      3 NAO         2.0800   -0.0000    1.2130 nd        1 MEW     -0.623100
      4 CAV         3.4810   -0.0010    1.2350 ca        1 MEW      0.183400
      5 CAK         4.1690    0.0010    2.4740 ca        1 MEW     -0.123000
      6 CAG         5.5550    0.0000    2.4950 ca        1 MEW     -0.095000
      7 CAH         6.2970   -0.0020    1.3070 ca        1 MEW     -0.154000
      8 CAL         5.6460   -0.0030    0.0820 ca        1 MEW     -0.059000
      9 CAW         4.2460   -0.0030    0.0380 ca        1 MEW     -0.190600
     10 CAU         3.5420   -0.0040   -1.2570 c         1 MEW      0.708100
     11 OAC         4.0920   -0.0050   -2.3730 o         1 MEW     -0.625500
     12 NAQ         2.1390   -0.0030   -1.1940 n         1 MEW     -0.500400
     13 H1         -0.3920    0.9100   -0.5670 hc        1 MEW      0.068367
     14 H2         -0.3920   -0.9130   -0.5640 hc        1 MEW      0.068367
     15 H3         -0.4800    0.0010    1.0030 hc        1 MEW      0.068367
     16 H4          3.5970    0.0020    3.4150 ha        1 MEW      0.153000
     17 H5          6.0820    0.0010    3.4620 ha        1 MEW      0.137000
     18 H6          7.3960   -0.0020    1.3480 ha        1 MEW      0.140000
     19 H7          6.2090   -0.0040   -0.8660 ha        1 MEW      0.158000
     20 H8          1.6170   -0.0040   -2.0400 hn        1 MEW      0.334500
@<TRIPOS>BOND
     1    1    2 1   
     2    1   13 1   
     3    1   14 1   
     4    1   15 1   
     5    2    3 2   
     6    2   12 1   
     7    3    4 1   
     8    4    5 ar  
     9    4    9 ar  
    10    5    6 ar  
    11    5   16 1   
    12    6    7 ar  
    13    6   17 1   
    14    7    8 ar  
    15    7   18 1   
    16    8    9 ar  
    17    8   19 1   
    18    9   10 1   
    19   10   11 2   
    20   10   12 1   
    21   12   20 1   
@<TRIPOS>SUBSTRUCTURE
     1 MEW         1 TEMP              0 ****  ****    0 ROOT
