@<TRIPOS>MOLECULE
MEW
   20    17     1     0     0
SMALL
bcc


@<TRIPOS>ATOM
      1 CAN        -3.4530   -0.0020   -0.4610 c3        1 MEW     -0.186000
      2 CAT        -1.9400   -0.0020   -0.4610 c2        1 MEW      0.123000
      3 NAO        -1.2180   -0.0020    0.7910 n1        1 MEW     -0.196000
      4 CAV         0.2400   -0.0020    0.7940 c1        1 MEW      0.044000
      5 CAK         0.9420   -0.0020    2.0130 c1        1 MEW     -0.107750
      6 CAG         2.3290   -0.0020    2.0150 c1        1 MEW     -0.107750
      7 CAH         3.0260   -0.0020    0.8130 c1        1 MEW     -0.107750
      8 CAL         2.3340   -0.0020   -0.3900 c1        1 MEW     -0.107750
      9 CAW         0.9290   -0.0020   -0.3940 c1        1 MEW     -0.170000
     10 CAU         0.1760   -0.0020   -1.6990 c2        1 MEW      0.345000
     11 OAC         0.7830    0.0450   -2.7500 o         1 MEW     -0.350000
     12 NAQ        -1.2260   -0.0020   -1.6990 n         1 MEW     -0.340000
     13 H1         -3.7780   -0.8010   -0.9180 hc        1 MEW      0.107667
     14 H2         -3.7780    0.7930   -0.9250 hc        1 MEW      0.107667
     15 H3         -3.7780    0.0020    0.4590 hc        1 MEW      0.107667
     16 H4          0.4530   -0.0020    2.8580 ha        1 MEW      0.147000
     17 H5          2.8160   -0.0020    2.8610 ha        1 MEW      0.147000
     18 H6          4.0020   -0.0020    0.8150 ha        1 MEW      0.147000
     19 H7          2.8240   -0.0020   -1.2350 ha        1 MEW      0.147000
     20 H8         -1.6820   -0.0030   -2.4880 hn        1 MEW      0.248000
@<TRIPOS>BOND
     1    1    2 1   
     2    1   13 1   
     3    1   14 1   
     4    1   15 1   
     5    2    3 1   
     6    2   12 1   
     7    4    9 1   
     8    5    6 1   
     9    5   16 1   
    10    6   17 1   
    11    7    8 1   
    12    7   18 1   
    13    8   19 1   
    14    9   10 1   
    15   10   11 1   
    16   10   12 1   
    17   12   20 1   
@<TRIPOS>SUBSTRUCTURE
     1 MEW         1 TEMP              0 ****  ****    0 ROOT
