@<TRIPOS>MOLECULE
MEX
   28    30     1     0     0
SMALL
bcc


@<TRIPOS>ATOM
      1 C1         -1.1690   -0.6590    1.0010 ca        1 MEX     -0.080000
      2 C2         -0.8750   -0.0210   -0.2250 ca        1 MEX     -0.093400
      3 C3         -1.9520    0.2860   -1.0980 ca        1 MEX      0.206100
      4 C4         -3.2690   -0.0660   -0.7560 ca        1 MEX     -0.248000
      5 C5         -3.5130   -0.7180    0.4530 ca        1 MEX      0.162100
      6 C6         -2.4640   -1.0140    1.3410 ca        1 MEX     -0.185000
      7 O7         -4.7740   -1.0990    0.8450 oh        1 MEX     -0.492100
      8 O8         -1.8260    0.8980   -2.3160 oh        1 MEX     -0.496100
      9 N9          0.4630    0.2640   -0.6000 n         1 MEX     -0.224200
     10 C10         1.5600   -0.4930   -0.0930 ca        1 MEX     -0.021400
     11 C11         2.7090    0.3810    0.0220 ca        1 MEX     -0.003400
     12 N12         2.3270    1.6700   -0.4000 n         1 MEX     -0.434100
     13 C13         0.9300    1.6390   -0.6790 c         1 MEX      0.764500
     14 C14         1.6760   -1.8460    0.2060 ca        1 MEX     -0.107000
     15 C15         2.9240   -2.3230    0.6200 ca        1 MEX     -0.133000
     16 C16         4.0260   -1.4790    0.7390 ca        1 MEX     -0.119000
     17 C17         3.9380   -0.1150    0.4420 ca        1 MEX     -0.130000
     18 O18         0.2590    2.6060   -1.0770 o         1 MEX     -0.622500
     19 H1         -0.3500   -0.8950    1.7000 ha        1 MEX      0.145000
     20 H4         -4.0820    0.1800   -1.4530 ha        1 MEX      0.158000
     21 H6         -2.6830   -1.5180    2.2930 ha        1 MEX      0.156000
     22 HO7        -5.3970   -0.8320    0.1530 ho        1 MEX      0.425000
     23 HO8        -0.9820    1.3780   -2.3580 ho        1 MEX      0.453000
     24 HN12        2.7880    2.4990   -0.1230 hn        1 MEX      0.345500
     25 H14         0.8140   -2.5220    0.1140 ha        1 MEX      0.153000
     26 H15         3.0320   -3.3930    0.8560 ha        1 MEX      0.139000
     27 H16         4.9920   -1.8900    1.0690 ha        1 MEX      0.138000
     28 H17         4.8170    0.5390    0.5310 ha        1 MEX      0.145000
@<TRIPOS>BOND
     1    1    2 ar  
     2    1    6 ar  
     3    1   19 1   
     4    2    3 ar  
     5    2    9 1   
     6    3    4 ar  
     7    3    8 1   
     8    4    5 ar  
     9    4   20 1   
    10    5    6 ar  
    11    5    7 1   
    12    6   21 1   
    13    7   22 1   
    14    8   23 1   
    15    9   10 1   
    16    9   13 1   
    17   10   11 ar  
    18   10   14 ar  
    19   11   12 1   
    20   11   17 ar  
    21   12   13 1   
    22   12   24 1   
    23   13   18 2   
    24   14   15 ar  
    25   14   25 1   
    26   15   16 ar  
    27   15   26 1   
    28   16   17 ar  
    29   16   27 1   
    30   17   28 1   
@<TRIPOS>SUBSTRUCTURE
     1 MEX         1 TEMP              0 ****  ****    0 ROOT
