@<TRIPOS>MOLECULE
MEX
   28    30     1     0     0
SMALL
bcc


@<TRIPOS>ATOM
      1 C1         -0.2310    0.1140    0.0530 ca        1 MEX     -0.034000
      2 C2          1.1650    0.0320   -0.1320 ca        1 MEX     -0.036400
      3 C3          1.9870   -0.0280    1.0260 ca        1 MEX      0.169100
      4 C4          1.4300    0.0010    2.3120 ca        1 MEX     -0.302000
      5 C5          0.0410    0.0910    2.4490 ca        1 MEX      0.176100
      6 C6         -0.7940    0.1490    1.3210 ca        1 MEX     -0.193000
      7 O7         -0.5780    0.1290    3.6740 oh        1 MEX     -0.489100
      8 O8          3.3450   -0.1090    0.8400 oh        1 MEX     -0.492100
      9 N9          1.6770   -0.0060   -1.4510 n         1 MEX     -0.232200
     10 C10         2.2820    1.1270   -2.0610 ca        1 MEX     -0.002400
     11 C11         3.2520    0.6580   -3.0300 ca        1 MEX     -0.012400
     12 N12         3.2510   -0.7550   -3.0180 n         1 MEX     -0.423100
     13 C13         2.3860   -1.1700   -1.9490 c         1 MEX      0.777500
     14 C14         2.0450    2.4870   -1.9070 ca        1 MEX     -0.115000
     15 C15         2.7650    3.3760   -2.7130 ca        1 MEX     -0.131000
     16 C16         3.6970    2.9250   -3.6440 ca        1 MEX     -0.127000
     17 C17         3.9580    1.5600   -3.8170 ca        1 MEX     -0.128000
     18 O18         2.1950   -2.3470   -1.6120 o         1 MEX     -0.598500
     19 H1         -0.8930    0.1480   -0.8290 ha        1 MEX      0.157000
     20 H4          2.0800   -0.0510    3.1960 ha        1 MEX      0.140000
     21 H6         -1.8830    0.2140    1.4550 ha        1 MEX      0.159000
     22 HO7         0.1020    0.0570    4.3590 ho        1 MEX      0.423000
     23 HO8         3.7640   -0.2230    1.7060 ho        1 MEX      0.427000
     24 HN12        4.0690   -1.2760   -3.2180 hn        1 MEX      0.331500
     25 H14         1.3140    2.8570   -1.1750 ha        1 MEX      0.146000
     26 H15         2.5840    4.4560   -2.6050 ha        1 MEX      0.135000
     27 H16         4.2450    3.6520   -4.2610 ha        1 MEX      0.135000
     28 H17         4.6940    1.2180   -4.5570 ha        1 MEX      0.142000
@<TRIPOS>BOND
     1    1    2 ar  
     2    1    6 ar  
     3    1   19 1   
     4    2    3 ar  
     5    2    9 1   
     6    3    4 ar  
     7    3    8 1   
     8    4    5 ar  
     9    4   20 1   
    10    5    6 ar  
    11    5    7 1   
    12    6   21 1   
    13    7   22 1   
    14    8   23 1   
    15    9   10 1   
    16    9   13 1   
    17   10   11 ar  
    18   10   14 ar  
    19   11   12 1   
    20   11   17 ar  
    21   12   13 1   
    22   12   24 1   
    23   13   18 2   
    24   14   15 ar  
    25   14   25 1   
    26   15   16 ar  
    27   15   26 1   
    28   16   17 ar  
    29   16   27 1   
    30   17   28 1   
@<TRIPOS>SUBSTRUCTURE
     1 MEX         1 TEMP              0 ****  ****    0 ROOT
