@<TRIPOS>MOLECULE
MEX
   28    30     1     0     0
SMALL
bcc


@<TRIPOS>ATOM
      1 C1         -0.1900    0.1210    0.1310 ca        1 MEX     -0.026000
      2 C2          1.1970    0.0450   -0.1050 ca        1 MEX     -0.036400
      3 C3          2.0610   -0.0210    1.0230 ca        1 MEX      0.164100
      4 C4          1.5570    0.0010    2.3280 ca        1 MEX     -0.248000
      5 C5          0.1720    0.0850    2.5170 ca        1 MEX      0.176100
      6 C6         -0.7020    0.1450    1.4220 ca        1 MEX     -0.251000
      7 O7         -0.2650    0.1070    3.8190 oh        1 MEX     -0.492100
      8 O8          3.4120   -0.1040    0.7850 oh        1 MEX     -0.493100
      9 N9          1.6590    0.0200   -1.4430 n         1 MEX     -0.232200
     10 C10         2.3060    1.1370   -2.0420 ca        1 MEX     -0.001400
     11 C11         3.2170    0.6450   -3.0550 ca        1 MEX     -0.013400
     12 N12         3.1390   -0.7650   -3.0820 n         1 MEX     -0.423100
     13 C13         2.2870   -1.1650   -1.9970 c         1 MEX      0.776500
     14 C14         2.1480    2.5020   -1.8420 ca        1 MEX     -0.114000
     15 C15         2.8890    3.3740   -2.6480 ca        1 MEX     -0.131000
     16 C16         3.7660    2.9010   -3.6210 ca        1 MEX     -0.127000
     17 C17         3.9450    1.5310   -3.8400 ca        1 MEX     -0.128000
     18 O18         2.0400   -2.3390   -1.6890 o         1 MEX     -0.598500
     19 H1         -0.8860    0.1580   -0.7240 ha        1 MEX      0.155000
     20 H4          2.2270   -0.0510    3.1970 ha        1 MEX      0.157000
     21 H6         -1.7880    0.2040    1.5830 ha        1 MEX      0.142000
     22 HO7        -1.2330    0.1390    3.8090 ho        1 MEX      0.426000
     23 HO8         3.8640   -0.1980    1.6370 ho        1 MEX      0.430000
     24 HN12        3.9230   -1.3230   -3.3210 hn        1 MEX      0.331500
     25 H14         1.4630    2.8900   -1.0750 ha        1 MEX      0.146000
     26 H15         2.7720    4.4590   -2.5030 ha        1 MEX      0.135000
     27 H16         4.3320    3.6160   -4.2360 ha        1 MEX      0.135000
     28 H17         4.6380    1.1710   -4.6130 ha        1 MEX      0.142000
@<TRIPOS>BOND
     1    1    2 ar  
     2    1    6 ar  
     3    1   19 1   
     4    2    3 ar  
     5    2    9 1   
     6    3    4 ar  
     7    3    8 1   
     8    4    5 ar  
     9    4   20 1   
    10    5    6 ar  
    11    5    7 1   
    12    6   21 1   
    13    7   22 1   
    14    8   23 1   
    15    9   10 1   
    16    9   13 1   
    17   10   11 ar  
    18   10   14 ar  
    19   11   12 1   
    20   11   17 ar  
    21   12   13 1   
    22   12   24 1   
    23   13   18 2   
    24   14   15 ar  
    25   14   25 1   
    26   15   16 ar  
    27   15   26 1   
    28   16   17 ar  
    29   16   27 1   
    30   17   28 1   
@<TRIPOS>SUBSTRUCTURE
     1 MEX         1 TEMP              0 ****  ****    0 ROOT
