@<TRIPOS>MOLECULE
MEY
   52    56     1     0     0
SMALL
bcc


@<TRIPOS>ATOM
      1 C1          7.7270    2.8950    0.8880 ca        1 MEY     -0.134000
      2 C2          6.7530    2.3930    1.7840 ca        1 MEY     -0.097000
      3 C3          6.1810   -0.1800   -2.5310 ca        1 MEY     -0.168000
      4 C4          7.8170    2.3820   -0.3810 ca        1 MEY     -0.106000
      5 C5          5.8840    1.4060    1.3920 ca        1 MEY     -0.151000
      6 C6          7.0370    0.8130   -2.1190 ca        1 MEY     -0.046000
      7 C7         -0.6300    1.2760    0.1850 ca        1 MEY     -0.123000
      8 C8         -1.9570    0.9140    0.4450 ca        1 MEY     -0.111000
      9 C9          5.1830   -0.6520   -1.6550 ca        1 MEY      0.002000
     10 C10         0.0710   -1.0550    0.0110 ca        1 MEY     -0.120000
     11 C11        -4.8690    0.2810   -0.6810 ca        1 MEY     -0.071000
     12 C12        -7.1500   -0.3040    0.8410 ca        1 MEY     -0.188000
     13 C13         6.9310    1.3550   -0.8110 ca        1 MEY     -0.066000
     14 C14         5.9360    0.8630    0.0750 ca        1 MEY      0.063000
     15 C15         0.3610    0.3170   -0.0340 ca        1 MEY     -0.108300
     16 C16        -2.2710   -0.4380    0.4910 ca        1 MEY     -0.020400
     17 C17        -1.2380   -1.4320    0.2790 ca        1 MEY      0.009600
     18 C18        -4.7490   -0.5860    0.4210 ca        1 MEY     -0.081400
     19 C19        -5.9180   -0.8860    1.1760 ca        1 MEY      0.204100
     20 C20        -7.2360    0.5760   -0.2410 ca        1 MEY      0.174100
     21 C21         5.0360   -0.1510   -0.3730 ca        1 MEY     -0.369500
     22 C22        -6.0890    0.8650   -1.0080 ca        1 MEY     -0.100600
     23 C23        -3.2080   -2.5330    0.6640 c         1 MEY      0.772500
     24 C24         1.7680    0.7520   -0.3490 c3        1 MEY      0.284100
     25 N25        -1.8200   -2.7040    0.4310 n         1 MEY     -0.443100
     26 N26        -3.4880   -1.1110    0.8030 n         1 MEY     -0.227200
     27 N27         2.7290    0.4360    0.6660 n3        1 MEY     -0.915100
     28 O28        -4.0260   -3.4480    0.8590 o         1 MEY     -0.623500
     29 O29         3.2150   -1.8720   -0.1180 o         1 MEY     -0.658300
     30 O30         4.2520   -1.0590    1.8890 o         1 MEY     -0.658300
     31 O31        -5.9540   -1.7060    2.2700 oh        1 MEY     -0.490100
     32 O32        -8.4760    1.1060   -0.4850 oh        1 MEY     -0.483100
     33 S33         3.7890   -0.7830    0.5860 sy        1 MEY      1.510200
     34 CL34       -6.1720    1.9220   -2.3400 cl        1 MEY     -0.091400
     35 H1          8.4100    3.6890    1.2260 ha        1 MEY      0.139000
     36 H2          6.7070    2.8000    2.8060 ha        1 MEY      0.140000
     37 H3          6.2620   -0.6150   -3.5380 ha        1 MEY      0.144000
     38 H4          8.5750    2.7520   -1.0870 ha        1 MEY      0.135000
     39 H5          5.1580    1.0020    2.1180 ha        1 MEY      0.152000
     40 H6          7.8180    1.2010   -2.7930 ha        1 MEY      0.139000
     41 H8         -2.7260    1.6820    0.6140 ha        1 MEY      0.154000
     42 H9          4.5040   -1.4500   -2.0120 ha        1 MEY      0.163000
     43 H10         0.8660   -1.8010   -0.1590 ha        1 MEY      0.178000
     44 H11        -3.9790    0.5170   -1.2910 ha        1 MEY      0.158000
     45 H12        -8.0450   -0.5410    1.4360 ha        1 MEY      0.179000
     46 H24         2.0840    0.2430   -1.3080 h1        1 MEY      0.056700
     47 H24A        1.7770    1.8660   -0.5330 h1        1 MEY      0.056700
     48 HN25       -1.4140   -3.5560    0.1390 hn        1 MEY      0.359500
     49 HN27        2.6480    0.9940    1.4840 hn        1 MEY      0.452800
     50 HO31       -5.1860   -2.3000    2.2650 ho        1 MEY      0.455000
     51 HO32       -8.4180    1.6790   -1.2670 ho        1 MEY      0.433000
     52 H7         -0.3720    2.3460    0.1520 ha        1 MEY      0.138000
@<TRIPOS>BOND
     1    1    2 ar  
     2    1    4 ar  
     3    1   35 1   
     4    2    5 ar  
     5    2   36 1   
     6    3    6 ar  
     7    3    9 ar  
     8    3   37 1   
     9    4   13 ar  
    10    4   38 1   
    11    5   14 ar  
    12    5   39 1   
    13    6   13 ar  
    14    6   40 1   
    15    7    8 ar  
    16    7   15 ar  
    17    7   52 1   
    18    8   16 ar  
    19    8   41 1   
    20    9   21 ar  
    21    9   42 1   
    22   10   15 ar  
    23   10   17 ar  
    24   10   43 1   
    25   11   18 ar  
    26   11   22 ar  
    27   11   44 1   
    28   12   19 ar  
    29   12   20 ar  
    30   12   45 1   
    31   13   14 ar  
    32   14   21 ar  
    33   15   24 1   
    34   16   17 ar  
    35   16   26 1   
    36   17   25 1   
    37   18   19 ar  
    38   18   26 1   
    39   19   31 1   
    40   20   22 ar  
    41   20   32 1   
    42   21   33 1   
    43   22   34 1   
    44   23   25 1   
    45   23   26 1   
    46   23   28 2   
    47   24   27 1   
    48   24   46 1   
    49   24   47 1   
    50   25   48 1   
    51   27   33 1   
    52   27   49 1   
    53   29   33 2   
    54   30   33 2   
    55   31   50 1   
    56   32   51 1   
@<TRIPOS>SUBSTRUCTURE
     1 MEY         1 TEMP              0 ****  ****    0 ROOT
