@<TRIPOS>MOLECULE
MEY
   53    57     1     0     0
SMALL
bcc


@<TRIPOS>ATOM
      1 C1          2.0030   -1.8880    0.2190 ca        1 MEY     -0.129000
      2 C2          3.0780   -1.5900    1.0880 ca        1 MEY     -0.037000
      3 C3         -0.9830    0.7560    2.9940 ca        1 MEY     -0.181000
      4 C4          0.7540   -1.3840    0.4830 ca        1 MEY     -0.072000
      5 C5          2.8920   -0.7850    2.1900 ca        1 MEY     -0.219000
      6 C6         -0.7630   -0.0530    1.8940 ca        1 MEY      0.037000
      7 C7          4.9480    5.1210    3.3610 ca        1 MEY     -0.104000
      8 C8          5.6280    6.0770    2.6010 ca        1 MEY     -0.122000
      9 C9          0.0800    1.0830    3.8370 ca        1 MEY      0.056000
     10 C10         6.4990    3.3500    2.7010 ca        1 MEY     -0.122000
     11 C11         7.9720    8.7990    1.0890 ca        1 MEY     -0.020000
     12 C12         6.4500    9.0390   -1.2610 ca        1 MEY     -0.244000
     13 C13         0.5320   -0.5550    1.6190 ca        1 MEY     -0.084000
     14 C14         1.6140   -0.2390    2.4870 ca        1 MEY      0.083000
     15 C15         5.3690    3.7900    3.4120 ca        1 MEY     -0.180300
     16 C16         6.7540    5.6720    1.8930 ca        1 MEY      0.058600
     17 C17         7.1940    4.2820    1.9470 ca        1 MEY      0.019600
     18 C18         7.4220    7.6410    0.5060 ca        1 MEY     -0.044400
     19 C19         6.6580    7.7830   -0.6850 ca        1 MEY      0.174100
     20 C20         7.0020   10.1790   -0.6590 ca        1 MEY      0.204100
     21 C21         1.3840    0.6120    3.6200 ca        1 MEY     -0.545500
     22 C22         7.7600   10.0550    0.5230 ca        1 MEY     -0.108600
     23 C23         8.6320    5.4390    0.5770 c         1 MEY      0.803500
     24 C24         4.6260    2.8190    4.2630 c3        1 MEY      0.168100
     25 N25         8.3540    4.1700    1.1710 n         1 MEY     -0.458100
     26 N26         7.6740    6.3870    1.1040 n         1 MEY     -0.241200
     27 N27         3.4470    2.2330    3.5650 n4        1 MEY     -0.705900
     28 O28         9.5720    5.6770   -0.1890 o         1 MEY     -0.568500
     29 O29         2.0610    1.8570    5.6890 o         1 MEY     -0.579800
     30 O30         3.5030    0.0940    4.9600 o         1 MEY     -0.579800
     31 O31         6.1200    6.6470   -1.2380 oh        1 MEY     -0.499100
     32 O32         6.7440   11.3640   -1.2880 oh        1 MEY     -0.475100
     33 S33         2.5190    1.0220    4.6820 sy        1 MEY      1.481200
     34 CL34        8.4370   11.4220    1.2680 cl        1 MEY     -0.063400
     35 H1          2.1800   -2.5330   -0.6570 ha        1 MEY      0.166000
     36 H2          4.0720   -2.0200    0.8780 ha        1 MEY      0.160000
     37 H3         -1.9920    1.1410    3.2150 ha        1 MEY      0.175000
     38 H4         -0.1000   -1.6160   -0.1750 ha        1 MEY      0.159000
     39 H5          3.7430   -0.6230    2.8700 ha        1 MEY      0.149000
     40 H6         -1.5970   -0.3180    1.2180 ha        1 MEY      0.167000
     41 H9         -0.1220    1.7330    4.7140 ha        1 MEY      0.174000
     42 H10         6.8340    2.3050    2.7630 ha        1 MEY      0.145000
     43 H11         8.5850    8.7150    2.0040 ha        1 MEY      0.171000
     44 H12         5.8670    9.1490   -2.1880 ha        1 MEY      0.169000
     45 H24         5.2980    1.9620    4.5670 hx        1 MEY      0.111200
     46 H24A        4.2420    3.3290    5.1960 hx        1 MEY      0.111200
     47 HN25        8.7880    3.3300    0.8900 hn        1 MEY      0.362500
     48 HN27        2.8410    2.9970    3.2690 hn        1 MEY      0.446800
     49 HO31        5.7510    6.8790   -2.1050 ho        1 MEY      0.438000
     50 HO32        7.2060   12.0780   -0.8150 ho        1 MEY      0.445000
     51 H7          4.0690    5.4410    3.9440 ha        1 MEY      0.137000
     52 H272        3.7670    1.7680    2.7160 hn        1 MEY      0.446800
     53 H8          5.2850    7.1220    2.5750 ha        1 MEY      0.166000
@<TRIPOS>BOND
     1    1    2 ar  
     2    1    4 ar  
     3    1   35 1   
     4    2    5 ar  
     5    2   36 1   
     6    3    6 ar  
     7    3    9 ar  
     8    3   37 1   
     9    4   13 ar  
    10    4   38 1   
    11    5   14 ar  
    12    5   39 1   
    13    6   13 ar  
    14    6   40 1   
    15    7    8 ar  
    16    7   15 ar  
    17    7   51 1   
    18    8   16 ar  
    19    8   53 1   
    20    9   21 ar  
    21    9   41 1   
    22   10   15 ar  
    23   10   17 ar  
    24   10   42 1   
    25   11   18 ar  
    26   11   22 ar  
    27   11   43 1   
    28   12   19 ar  
    29   12   20 ar  
    30   12   44 1   
    31   13   14 ar  
    32   14   21 ar  
    33   15   24 1   
    34   16   17 ar  
    35   16   26 1   
    36   17   25 1   
    37   18   19 ar  
    38   18   26 1   
    39   19   31 1   
    40   20   22 ar  
    41   20   32 1   
    42   21   33 1   
    43   22   34 1   
    44   23   25 1   
    45   23   26 1   
    46   23   28 2   
    47   24   27 1   
    48   24   45 1   
    49   24   46 1   
    50   25   47 1   
    51   27   33 1   
    52   27   48 1   
    53   27   52 1   
    54   29   33 2   
    55   30   33 2   
    56   31   49 1   
    57   32   50 1   
@<TRIPOS>SUBSTRUCTURE
     1 MEY         1 TEMP              0 ****  ****    0 ROOT
