@<TRIPOS>MOLECULE
MEY
   53    57     1     0     0
SMALL
bcc


@<TRIPOS>ATOM
      1 C1          2.0700   -1.9110    0.2090 ca        1 MEY     -0.129000
      2 C2          3.1270   -1.6020    1.0950 ca        1 MEY     -0.037000
      3 C3         -0.9810    0.7300    2.9160 ca        1 MEY     -0.181000
      4 C4          0.8130   -1.4130    0.4480 ca        1 MEY     -0.072000
      5 C5          2.9160   -0.7920    2.1890 ca        1 MEY     -0.219000
      6 C6         -0.7370   -0.0840    1.8250 ca        1 MEY      0.037000
      7 C7          4.8990    5.1330    3.3520 ca        1 MEY     -0.104000
      8 C8          5.5860    6.0890    2.5990 ca        1 MEY     -0.122000
      9 C9          0.0650    1.0670    3.7770 ca        1 MEY      0.056000
     10 C10         6.4980    3.3780    2.7630 ca        1 MEY     -0.122000
     11 C11         7.9250    8.8290    1.1160 ca        1 MEY     -0.020000
     12 C12         6.4730    9.0070   -1.2830 ca        1 MEY     -0.244000
     13 C13         0.5660   -0.5790    1.5760 ca        1 MEY     -0.084000
     14 C14         1.6300   -0.2520    2.4610 ca        1 MEY      0.083000
     15 C15         5.3400    3.8100    3.4330 ca        1 MEY     -0.180300
     16 C16         6.7390    5.6930    1.9300 ca        1 MEY      0.058600
     17 C17         7.2000    4.3120    2.0160 ca        1 MEY      0.019600
     18 C18         7.4150    7.6530    0.5350 ca        1 MEY     -0.044400
     19 C19         6.6860    7.7640   -0.6820 ca        1 MEY      0.174100
     20 C20         6.9860   10.1660   -0.6820 ca        1 MEY      0.204100
     21 C21         1.3750    0.6040    3.5850 ca        1 MEY     -0.545500
     22 C22         7.7100   10.0720    0.5250 ca        1 MEY     -0.108600
     23 C23         8.6590    5.4740    0.6730 c         1 MEY      0.802500
     24 C24         4.5880    2.8380    4.2760 c3        1 MEY      0.168100
     25 N25         8.3850    4.2090    1.2780 n         1 MEY     -0.458100
     26 N26         7.6710    6.4120    1.1590 n         1 MEY     -0.241200
     27 N27         3.4290    2.2360    3.5580 n4        1 MEY     -0.705900
     28 O28         9.6170    5.7170   -0.0670 o         1 MEY     -0.568500
     29 O29         2.0070    1.8630    5.6590 o         1 MEY     -0.579800
     30 O30         3.4730    0.1050    4.9650 o         1 MEY     -0.579800
     31 O31         6.1850    6.6110   -1.2340 oh        1 MEY     -0.499100
     32 O32         6.7260   11.3370   -1.3350 oh        1 MEY     -0.475100
     33 S33         2.4890    1.0250    4.6650 sy        1 MEY      1.481200
     34 CL34        8.3380   11.4630    1.2700 cl        1 MEY     -0.063400
     35 H1          2.2660   -2.5590   -0.6610 ha        1 MEY      0.166000
     36 H2          4.1270   -2.0270    0.9060 ha        1 MEY      0.160000
     37 H3         -1.9960    1.1110    3.1170 ha        1 MEY      0.175000
     38 H4         -0.0270   -1.6540   -0.2240 ha        1 MEY      0.159000
     39 H5          3.7550   -0.6220    2.8840 ha        1 MEY      0.149000
     40 H6         -1.5570   -0.3570    1.1360 ha        1 MEY      0.167000
     41 H9         -0.1570    1.7210    4.6460 ha        1 MEY      0.174000
     42 H10         6.8480    2.3400    2.8490 ha        1 MEY      0.145000
     43 H11         8.5110    8.7700    2.0510 ha        1 MEY      0.171000
     44 H12         5.9180    9.0940   -2.2280 ha        1 MEY      0.169000
     45 H24         4.1790    3.3530    5.1970 hx        1 MEY      0.111200
     46 H24A        5.2610    1.9890    4.6020 hx        1 MEY      0.111200
     47 HN25        8.8370    3.3720    1.0170 hn        1 MEY      0.362500
     48 HN27        2.8230    2.9920    3.2420 hn        1 MEY      0.446800
     49 HO31        5.8390    6.8230   -2.1150 ho        1 MEY      0.438000
     50 HO32        7.1610   12.0660   -0.8600 ho        1 MEY      0.445000
     51 H7          3.9990    5.4450    3.9040 ha        1 MEY      0.137000
     52 H272        3.7720    1.7670    2.7200 hn        1 MEY      0.446800
     53 H8          5.2260    7.1280    2.5480 ha        1 MEY      0.166000
@<TRIPOS>BOND
     1    1    2 ar  
     2    1    4 ar  
     3    1   35 1   
     4    2    5 ar  
     5    2   36 1   
     6    3    6 ar  
     7    3    9 ar  
     8    3   37 1   
     9    4   13 ar  
    10    4   38 1   
    11    5   14 ar  
    12    5   39 1   
    13    6   13 ar  
    14    6   40 1   
    15    7    8 ar  
    16    7   15 ar  
    17    7   51 1   
    18    8   16 ar  
    19    8   53 1   
    20    9   21 ar  
    21    9   41 1   
    22   10   15 ar  
    23   10   17 ar  
    24   10   42 1   
    25   11   18 ar  
    26   11   22 ar  
    27   11   43 1   
    28   12   19 ar  
    29   12   20 ar  
    30   12   44 1   
    31   13   14 ar  
    32   14   21 ar  
    33   15   24 1   
    34   16   17 ar  
    35   16   26 1   
    36   17   25 1   
    37   18   19 ar  
    38   18   26 1   
    39   19   31 1   
    40   20   22 ar  
    41   20   32 1   
    42   21   33 1   
    43   22   34 1   
    44   23   25 1   
    45   23   26 1   
    46   23   28 2   
    47   24   27 1   
    48   24   45 1   
    49   24   46 1   
    50   25   47 1   
    51   27   33 1   
    52   27   48 1   
    53   27   52 1   
    54   29   33 2   
    55   30   33 2   
    56   31   49 1   
    57   32   50 1   
@<TRIPOS>SUBSTRUCTURE
     1 MEY         1 TEMP              0 ****  ****    0 ROOT
