@<TRIPOS>MOLECULE
MEY
   53    57     1     0     0
SMALL
bcc


@<TRIPOS>ATOM
      1 C1          2.0580   -1.9010    0.1820 ca        1 MEY     -0.129000
      2 C2          3.1170   -1.5970    1.0690 ca        1 MEY     -0.037000
      3 C3         -0.9870    0.7300    2.9050 ca        1 MEY     -0.181000
      4 C4          0.8020   -1.4030    0.4250 ca        1 MEY     -0.072000
      5 C5          2.9080   -0.7930    2.1670 ca        1 MEY     -0.219000
      6 C6         -0.7450   -0.0780    1.8090 ca        1 MEY      0.037000
      7 C7          4.9120    5.1250    3.3660 ca        1 MEY     -0.104000
      8 C8          5.6010    6.0830    2.6170 ca        1 MEY     -0.122000
      9 C9          0.0600    1.0630    3.7650 ca        1 MEY      0.056000
     10 C10         6.4880    3.3620    2.7400 ca        1 MEY     -0.122000
     11 C11         7.9540    8.8180    1.1440 ca        1 MEY     -0.020000
     12 C12         6.4760    9.0430   -1.2360 ca        1 MEY     -0.244000
     13 C13         0.5570   -0.5740    1.5570 ca        1 MEY     -0.084000
     14 C14         1.6230   -0.2530    2.4420 ca        1 MEY      0.083000
     15 C15         5.3410    3.7970    3.4280 ca        1 MEY     -0.180300
     16 C16         6.7420    5.6840    1.9310 ca        1 MEY      0.058600
     17 C17         7.1910    4.2980    1.9960 ca        1 MEY      0.019600
     18 C18         7.4230    7.6550    0.5530 ca        1 MEY     -0.044400
     19 C19         6.6820    7.7900   -0.6530 ca        1 MEY      0.174100
     20 C20         7.0090   10.1880   -0.6260 ca        1 MEY      0.204100
     21 C21         1.3700    0.5990    3.5700 ca        1 MEY     -0.545500
     22 C22         7.7450   10.0710    0.5710 ca        1 MEY     -0.108600
     23 C23         8.6460    5.4610    0.6510 c         1 MEY      0.803500
     24 C24         4.5890    2.8220    4.2670 c3        1 MEY      0.168100
     25 N25         8.3660    4.1920    1.2430 ns        1 MEY     -0.458100
     26 N26         7.6730    6.4030    1.1580 n         1 MEY     -0.241200
     27 N27         3.4250    2.2290    3.5490 ny        1 MEY     -0.705900
     28 O28         9.5990    5.7040   -0.0970 o         1 MEY     -0.568500
     29 O29         2.0050    1.8470    5.6490 o         1 MEY     -0.579800
     30 O30         3.4690    0.0910    4.9460 o         1 MEY     -0.579800
     31 O31         6.1620    6.6490   -1.2140 oh        1 MEY     -0.499100
     32 O32         6.7550   11.3700   -1.2610 oh        1 MEY     -0.475100
     33 S33         2.4850    1.0140    4.6510 sy        1 MEY      1.481200
     34 Cl34        8.3970   11.4450    1.3270 cl        1 MEY     -0.063400
     35 H1          2.2530   -2.5460   -0.6900 ha        1 MEY      0.166000
     36 H2          4.1160   -2.0230    0.8760 ha        1 MEY      0.160000
     37 H3         -2.0020    1.1110    3.1080 ha        1 MEY      0.175000
     38 H4         -0.0390   -1.6400   -0.2470 ha        1 MEY      0.159000
     39 H5          3.7470   -0.6260    2.8620 ha        1 MEY      0.149000
     40 H6         -1.5650   -0.3480    1.1200 ha        1 MEY      0.167000
     41 H9         -0.1600    1.7120    4.6380 ha        1 MEY      0.174000
     42 H10         6.8280    2.3200    2.8100 ha        1 MEY      0.145000
     43 H11         8.5500    8.7400    2.0700 ha        1 MEY      0.171000
     44 H12         5.9110    9.1480   -2.1740 ha        1 MEY      0.169000
     45 H24         5.2600    1.9690    4.5840 hx        1 MEY      0.111200
     46 H24A        4.1850    3.3320    5.1920 hx        1 MEY      0.111200
     47 HN25        8.8100    3.3540    0.9720 hn        1 MEY      0.362500
     48 HN27        2.8200    2.9890    3.2410 hn        1 MEY      0.446800
     49 HO31        5.8080    6.8770   -2.0890 ho        1 MEY      0.438000
     50 HO32        7.2020   12.0880   -0.7820 ho        1 MEY      0.445000
     51 H7          4.0210    5.4400    3.9320 ha        1 MEY      0.137000
     52 H272        3.7630    1.7650    2.7070 hn        1 MEY      0.446800
     53 H8          5.2500    7.1260    2.5820 ha        1 MEY      0.166000
@<TRIPOS>BOND
     1    1    2 ar  
     2    1    4 ar  
     3    1   35 1   
     4    2    5 ar  
     5    2   36 1   
     6    3    6 ar  
     7    3    9 ar  
     8    3   37 1   
     9    4   13 ar  
    10    4   38 1   
    11    5   14 ar  
    12    5   39 1   
    13    6   13 ar  
    14    6   40 1   
    15    7    8 ar  
    16    7   15 ar  
    17    7   51 1   
    18    8   16 ar  
    19    8   53 1   
    20    9   21 ar  
    21    9   41 1   
    22   10   15 ar  
    23   10   17 ar  
    24   10   42 1   
    25   11   18 ar  
    26   11   22 ar  
    27   11   43 1   
    28   12   19 ar  
    29   12   20 ar  
    30   12   44 1   
    31   13   14 ar  
    32   14   21 ar  
    33   15   24 1   
    34   16   17 ar  
    35   16   26 1   
    36   17   25 1   
    37   18   19 ar  
    38   18   26 1   
    39   19   31 1   
    40   20   22 ar  
    41   20   32 1   
    42   21   33 1   
    43   22   34 1   
    44   23   25 1   
    45   23   26 1   
    46   23   28 2   
    47   24   27 1   
    48   24   45 1   
    49   24   46 1   
    50   25   47 1   
    51   27   33 1   
    52   27   48 1   
    53   27   52 1   
    54   29   33 2   
    55   30   33 2   
    56   31   49 1   
    57   32   50 1   
@<TRIPOS>SUBSTRUCTURE
     1 MEY         1 TEMP              0 ****  ****    0 ROOT
