@<TRIPOS>MOLECULE
MEY
   52    44     1     0     0
SMALL
bcc


@<TRIPOS>ATOM
      1 C1         -5.3340   -6.4020    2.2700 c1        1 MEY     -0.108500
      2 C2         -5.1370   -5.1560    2.8870 c1        1 MEY     -0.108500
      3 C3         -1.1550   -5.8780   -0.1350 c1        1 MEY     -0.108500
      4 C4         -4.4190   -6.8690    1.3420 c1        1 MEY     -0.108500
      5 C5         -4.0230   -4.3920    2.5660 c1        1 MEY     -0.108500
      6 C6         -2.3150   -6.6080    0.1290 c1        1 MEY     -0.046000
      7 C7         -0.5360    1.6640   -0.6250 c1        1 MEY     -0.118000
      8 C8          0.3690    2.6680   -0.9720 c1        1 MEY     -0.122000
      9 C9         -0.9540   -4.6350    0.4780 c1        1 MEY     -0.108500
     10 C10         0.9890    0.8750    1.0630 c1        1 MEY     -0.115000
     11 C11         2.4160    5.9580   -1.2390 c1        1 MEY     -0.036000
     12 C12         3.7610    5.4190   -3.6090 c1        1 MEY     -0.297000
     13 C13        -3.2870   -6.0950    1.0150 c1        1 MEY     -0.065000
     14 C14        -3.0900   -4.8670    1.6220 c1        1 MEY      0.054000
     15 C15        -0.2260    0.7700    0.3900 c1        1 MEY     -0.113000
     16 C16         1.5850    2.7730   -0.2990 c1        1 MEY      0.011000
     17 C17         1.8950    1.8780    0.7170 c1        1 MEY     -0.001000
     18 C18         2.8520    4.6710   -1.5090 c1        1 MEY     -0.013000
     19 C19         3.5260    4.4010   -2.6980 c1        1 MEY      0.126000
     20 C20         3.3240    6.7080   -3.3380 c1        1 MEY      0.139000
     21 C21        -1.9130   -4.1260    1.3530 c1        1 MEY     -0.815000
     22 C22         2.6510    6.9790   -2.1540 c1        1 MEY     -0.128000
     23 C23         3.6850    3.3180    0.4730 c1        1 MEY      0.375000
     24 C24        -1.3980   -0.0930    0.8590 c3        1 MEY      0.034000
     25 N25         3.2040    2.2050    1.2110 n2        1 MEY     -0.282000
     26 N26         2.7280    3.6390   -0.4970 n3        1 MEY     -0.186000
     27 N27        -1.0870   -1.4930    0.6320 n3        1 MEY     -0.890000
     28 O28         4.7270    3.9220    0.6810 o         1 MEY     -0.324000
     29 O29        -1.8220   -2.0200    3.0200 o         1 MEY     -0.941500
     30 O30         0.1720   -2.8030    2.4410 o         1 MEY     -0.941500
     31 O31         3.9720    3.1030   -2.9690 oh        1 MEY     -0.242000
     32 O32         3.7540    7.7360   -4.2340 oh        1 MEY     -0.228000
     33 S33        -1.1420   -2.5720    1.8920 s6        1 MEY      2.857000
     34 CL34        2.4550    8.6590   -1.7470 cl        1 MEY      0.019000
     35 H1         -6.1180   -6.9400    2.4950 ha        1 MEY      0.146833
     36 H2         -5.7910   -4.8230    3.5480 ha        1 MEY      0.146833
     37 H3         -0.4830   -6.2340   -0.7480 ha        1 MEY      0.146833
     38 H4         -4.5580   -7.7430    0.9100 ha        1 MEY      0.146833
     39 H5         -3.8850   -3.5220    2.9970 ha        1 MEY      0.146833
     40 H6         -2.4550   -7.4870   -0.3050 ha        1 MEY      0.138000
     41 H7         -1.3940    1.5900   -1.1000 ha        1 MEY      0.134000
     42 H8          0.1490    3.2990   -1.6890 ha        1 MEY      0.147000
     43 H9         -0.1430   -4.1250    0.2920 ha        1 MEY      0.146833
     44 H10         1.2060    0.2480    1.7760 ha        1 MEY      0.175000
     45 H11         1.9470    6.1470   -0.4140 ha        1 MEY      0.170000
     46 H12         4.2290    5.2310   -4.4350 ha        1 MEY      0.143000
     47 H24        -1.5520    0.0560    1.8080 h1        1 MEY      0.100500
     48 H24A       -2.2030    0.1480    0.3560 h1        1 MEY      0.100500
     49 HN25        3.6390    1.7890    1.9110 hn        1 MEY      0.254000
     50 HN27       -0.9230   -1.7940   -0.2220 hn        1 MEY      0.244000
     51 HO31        4.8340    3.1290   -3.2150 ho        1 MEY      0.228000
     52 HO32        3.2780    7.6960   -4.9820 ho        1 MEY      0.225000
@<TRIPOS>BOND
     1    1    4 1   
     2    1   35 1   
     3    2    5 1   
     4    2   36 1   
     5    3    9 1   
     6    3   37 1   
     7    4   38 1   
     8    5   39 1   
     9    6   13 1   
    10    6   40 1   
    11    7   15 1   
    12    7   41 1   
    13    8   16 1   
    14    8   42 1   
    15    9   43 1   
    16   10   17 1   
    17   10   44 1   
    18   11   22 1   
    19   11   45 1   
    20   12   20 1   
    21   12   46 1   
    22   13   14 1   
    23   14   21 1   
    24   15   24 1   
    25   16   26 1   
    26   17   25 1   
    27   18   19 1   
    28   18   26 1   
    29   19   31 1   
    30   20   32 1   
    31   21   33 1   
    32   22   34 1   
    33   23   26 1   
    34   23   28 1   
    35   24   27 1   
    36   24   47 1   
    37   24   48 1   
    38   25   49 1   
    39   27   33 1   
    40   27   50 1   
    41   29   33 1   
    42   30   33 1   
    43   31   51 1   
    44   32   52 1   
@<TRIPOS>SUBSTRUCTURE
     1 MEY         1 TEMP              0 ****  ****    0 ROOT
