@<TRIPOS>MOLECULE
MEZ
   13    12     1     0     0
SMALL
bcc


@<TRIPOS>ATOM
      1 O4         28.4090   28.6100   73.3790 o         1 MEZ     -0.881800
      2 C5         28.2830   29.8750   73.4600 c         1 MEZ      0.893800
      3 O3         27.4830   30.4990   72.6960 o         1 MEZ     -0.881800
      4 C3         29.1090   30.6300   74.4790 ce        1 MEZ     -0.179400
      5 C4         30.3080   29.9060   74.9610 c3        1 MEZ     -0.034900
      6 C2         28.7570   31.8490   74.9110 cf        1 MEZ     -0.205200
      7 C1         29.4300   32.6990   75.9490 c         1 MEZ      0.889800
      8 O1         28.6920   33.4190   76.6980 o         1 MEZ     -0.884300
      9 O2         30.6960   32.7320   76.0670 o         1 MEZ     -0.884300
     10 H41        31.0100   29.7330   74.1060 hc        1 MEZ      0.020033
     11 H42        30.8430   30.4840   75.7540 hc        1 MEZ      0.020033
     12 H43        30.0080   28.9040   75.3580 hc        1 MEZ      0.020033
     13 H2         27.8430   32.3100   74.4970 ha        1 MEZ      0.110000
@<TRIPOS>BOND
     1    1    2 1   
     2    2    3 1   
     3    2    4 1   
     4    4    5 1   
     5    4    6 2   
     6    5   10 1   
     7    5   11 1   
     8    5   12 1   
     9    6    7 1   
    10    6   13 1   
    11    7    8 1   
    12    7    9 1   
@<TRIPOS>SUBSTRUCTURE
     1 MEZ         1 TEMP              0 ****  ****    0 ROOT
