@<TRIPOS>MOLECULE
MEZ
   13    12     1     0     0
SMALL
bcc


@<TRIPOS>ATOM
      1 O4         -0.0330    0.0680   -0.0260 o         1 MEZ     -0.881800
      2 C5          1.2180    0.2700   -0.1550 c         1 MEZ      0.893800
      3 O3          1.9090    0.7120    0.8150 o         1 MEZ     -0.881800
      4 C3          1.8740   -0.0200   -1.4880 ce        1 MEZ     -0.180400
      5 C4          0.9380   -0.0910   -2.6340 c3        1 MEZ     -0.034900
      6 C2          3.1960   -0.2110   -1.5990 cf        1 MEZ     -0.205200
      7 C1          3.9850   -0.5570   -2.8280 c         1 MEZ      0.889800
      8 O1          4.9830   -1.3390   -2.6930 o         1 MEZ     -0.884300
      9 O2          3.6980   -0.0690   -3.9660 o         1 MEZ     -0.884300
     10 H41         0.4310    0.8980   -2.7660 hc        1 MEZ      0.020033
     11 H42         1.4710   -0.3520   -3.5820 hc        1 MEZ      0.020033
     12 H43         0.1430   -0.8500   -2.4240 hc        1 MEZ      0.020033
     13 H2          3.8150   -0.1420   -0.6880 ha        1 MEZ      0.110000
@<TRIPOS>BOND
     1    1    2 1   
     2    2    3 1   
     3    2    4 1   
     4    4    5 1   
     5    4    6 2   
     6    5   10 1   
     7    5   11 1   
     8    5   12 1   
     9    6    7 1   
    10    6   13 1   
    11    7    8 1   
    12    7    9 1   
@<TRIPOS>SUBSTRUCTURE
     1 MEZ         1 TEMP              0 ****  ****    0 ROOT
