@<TRIPOS>MOLECULE
MEZ
   13    12     1     0     0
SMALL
bcc


@<TRIPOS>ATOM
      1 O4         -0.0490    0.6590   -0.2150 o         1 MEZ     -0.881800
      2 C5          1.2020    0.4180   -0.2060 c         1 MEZ      0.893800
      3 O3          1.8820    0.5500    0.8590 o         1 MEZ     -0.881800
      4 C3          1.8710   -0.0350   -1.4860 ce        1 MEZ     -0.179400
      5 C4          0.9470   -0.5980   -2.4990 c3        1 MEZ     -0.034900
      6 C2          3.1910    0.0880   -1.6760 cf        1 MEZ     -0.205200
      7 C1          3.9930   -0.2580   -2.8970 c         1 MEZ      0.889800
      8 O1          3.7170   -1.2730   -3.6120 o         1 MEZ     -0.884300
      9 O2          4.9880    0.4840   -3.1850 o         1 MEZ     -0.884300
     10 H41         0.1330    0.1380   -2.7170 hc        1 MEZ      0.020033
     11 H42         1.4860   -0.8590   -3.4430 hc        1 MEZ      0.020033
     12 H43         0.4650   -1.5230   -2.0930 hc        1 MEZ      0.020033
     13 H2          3.8010    0.5240   -0.8640 ha        1 MEZ      0.110000
@<TRIPOS>BOND
     1    1    2 1   
     2    2    3 1   
     3    2    4 1   
     4    4    5 1   
     5    4    6 2   
     6    5   10 1   
     7    5   11 1   
     8    5   12 1   
     9    6    7 1   
    10    6   13 1   
    11    7    8 1   
    12    7    9 1   
@<TRIPOS>SUBSTRUCTURE
     1 MEZ         1 TEMP              0 ****  ****    0 ROOT
