@<TRIPOS>MOLECULE
MF2
   49    49     1     0     0
SMALL
bcc


@<TRIPOS>ATOM
      1 C2          3.4850   -2.4750   -0.3560 c3        1 MF2      0.135300
      2 C3          4.9920   -2.3840   -0.1780 c3        1 MF2      0.140100
      3 O4          5.3700   -2.2740    1.1840 os        1 MF2     -0.418600
      4 C7          5.0120   -1.3100    3.3420 c3        1 MF2     -0.093100
      5 C8          5.6330   -3.6330   -0.7670 c3        1 MF2     -0.093100
      6 C9          1.3650   -1.6640    0.2320 c3        1 MF2      0.170800
      7 C10         0.7010   -0.4930   -0.5110 c3        1 MF2     -0.081400
      8 C11        -0.8320   -0.5500   -0.3010 c3        1 MF2     -0.079400
      9 C12        -1.4970    0.6550   -1.0110 c3        1 MF2     -0.078400
     10 C13        -2.9760    0.7720   -0.5560 c3        1 MF2     -0.079400
     11 C14        -3.6270    1.9920   -1.2290 c3        1 MF2     -0.077400
     12 C15        -5.0000    2.2730   -0.5720 c3        1 MF2     -0.110400
     13 C16        -5.6350    3.5030   -1.2240 c3        1 MF2      0.092000
     14 N1          2.7970   -1.4340    0.3190 n3        1 MF2     -0.725600
     15 C5          4.6840   -1.2340    1.8590 c3        1 MF2      0.140100
     16 C6          3.1760   -1.3240    1.6820 c3        1 MF2      0.135300
     17 N17        -6.8940    3.7970   -0.5740 n         1 MF2     -0.581900
     18 C18        -7.5300    5.0600   -0.7870 c         1 MF2      0.653900
     19 O19        -8.7170    5.1940   -0.5380 o         1 MF2     -0.605100
     20 H21         3.1780   -3.3340   -0.0100 h1        1 MF2      0.039950
     21 H22         3.2750   -2.4250   -1.3140 h1        1 MF2      0.039950
     22 H3          5.3190   -1.6050   -0.6590 h1        1 MF2      0.047200
     23 H71         4.5480   -0.5890    3.8170 hc        1 MF2      0.046033
     24 H72         4.7210   -2.1740    3.6970 hc        1 MF2      0.046033
     25 H73         5.9790   -1.2140    3.4670 hc        1 MF2      0.046033
     26 H81         5.4690   -3.6600   -1.7350 hc        1 MF2      0.046033
     27 H82         6.6000   -3.6150   -0.5980 hc        1 MF2      0.046033
     28 H83         5.2440   -4.4270   -0.3480 hc        1 MF2      0.046033
     29 H91         0.9890   -1.7330    1.1340 h1        1 MF2      0.031200
     30 H92         1.1970   -2.5000   -0.2570 h1        1 MF2      0.031200
     31 H101        1.0470    0.3530   -0.1610 hc        1 MF2      0.048200
     32 H102        0.9020   -0.5580   -1.4650 hc        1 MF2      0.048200
     33 H111       -1.0310   -0.5160    0.6560 hc        1 MF2      0.040700
     34 H112       -1.1830   -1.3860   -0.6780 hc        1 MF2      0.040700
     35 H121       -1.4630    0.5220   -1.9830 hc        1 MF2      0.041200
     36 H122       -1.0180    1.4760   -0.7770 hc        1 MF2      0.041200
     37 H131       -3.4620   -0.0410   -0.8120 hc        1 MF2      0.042200
     38 H132       -3.0100    0.8780    0.4110 hc        1 MF2      0.042200
     39 H141       -3.7520    1.8090   -2.1830 hc        1 MF2      0.041700
     40 H142       -3.0460    2.7740   -1.1190 hc        1 MF2      0.041700
     41 H151       -4.8770    2.4370    0.3820 hc        1 MF2      0.048700
     42 H152       -5.5880    1.4960   -0.6970 hc        1 MF2      0.048700
     43 H161       -5.0320    4.2710   -1.1300 h1        1 MF2      0.049200
     44 H162       -5.7930    3.3240   -2.1750 h1        1 MF2      0.049200
     45 H5          4.9930   -0.3700    1.5080 h1        1 MF2      0.047200
     46 H61         2.8460   -2.1090    2.1670 h1        1 MF2      0.039950
     47 H62         2.7640   -0.5210    2.0620 h1        1 MF2      0.039950
     48 HNH        -7.3020    3.1600   -0.0590 hn        1 MF2      0.311500
     49 H18        -7.0210    5.8070   -1.1530 h5        1 MF2      0.030200
@<TRIPOS>BOND
     1    1    2 1   
     2    1   14 1   
     3    1   20 1   
     4    1   21 1   
     5    2    3 1   
     6    2    5 1   
     7    2   22 1   
     8    3   15 1   
     9    4   15 1   
    10    4   23 1   
    11    4   24 1   
    12    4   25 1   
    13    5   26 1   
    14    5   27 1   
    15    5   28 1   
    16    6    7 1   
    17    6   14 1   
    18    6   29 1   
    19    6   30 1   
    20    7    8 1   
    21    7   31 1   
    22    7   32 1   
    23    8    9 1   
    24    8   33 1   
    25    8   34 1   
    26    9   10 1   
    27    9   35 1   
    28    9   36 1   
    29   10   11 1   
    30   10   37 1   
    31   10   38 1   
    32   11   12 1   
    33   11   39 1   
    34   11   40 1   
    35   12   13 1   
    36   12   41 1   
    37   12   42 1   
    38   13   17 1   
    39   13   43 1   
    40   13   44 1   
    41   14   16 1   
    42   15   16 1   
    43   15   45 1   
    44   16   46 1   
    45   16   47 1   
    46   17   18 1   
    47   17   48 1   
    48   18   19 2   
    49   18   49 1   
@<TRIPOS>SUBSTRUCTURE
     1 MF2         1 TEMP              0 ****  ****    0 ROOT
