@<TRIPOS>MOLECULE
MF2
   49    49     1     0     0
SMALL
bcc


@<TRIPOS>ATOM
      1 C2          1.0040   -0.1770    3.8380 c3        1 MF2      0.135300
      2 C3          1.4930    0.3200    5.2110 c3        1 MF2      0.140100
      3 O4          0.5490    0.0010    6.2370 os        1 MF2     -0.419600
      4 C7         -1.6500    0.1080    7.0900 c3        1 MF2     -0.093100
      5 C8          2.7910   -0.3630    5.5930 c3        1 MF2     -0.093100
      6 C10        -0.0060    0.1330    1.0390 c3        1 MF2     -0.081400
      7 C11        -0.7320   -0.2680   -0.2280 c3        1 MF2     -0.079400
      8 C12         0.0940    0.0580   -1.4550 c3        1 MF2     -0.078400
      9 C13        -0.6320   -0.3350   -2.7240 c3        1 MF2     -0.078400
     10 C14         0.1950   -0.0110   -3.9500 c3        1 MF2     -0.077400
     11 C15        -0.5320   -0.4050   -5.2180 c3        1 MF2     -0.102400
     12 C16         0.3260   -0.0660   -6.4380 c3        1 MF2      0.080000
     13 N1         -0.3370    0.2900    3.5160 n3        1 MF2     -0.725600
     14 C5         -0.7410    0.5530    5.9620 c3        1 MF2      0.140100
     15 C6         -1.2740    0.0520    4.6080 c3        1 MF2      0.135300
     16 N17        -0.2590   -0.4380   -7.6960 n         1 MF2     -0.581900
     17 C18        -0.6400    0.4730   -8.6510 c         1 MF2      0.656900
     18 O19        -0.4460    1.6960   -8.5490 o         1 MF2     -0.605100
     19 H21         1.0700   -1.3040    3.8230 h1        1 MF2      0.039950
     20 H22         1.7040    0.2240    3.0530 h1        1 MF2      0.039950
     21 H3          1.6290    1.4380    5.1820 h1        1 MF2      0.047200
     22 H71        -1.2610    0.4910    8.0640 hc        1 MF2      0.045867
     23 H72        -2.6770    0.5090    6.9200 hc        1 MF2      0.045867
     24 H73        -1.6940   -1.0060    7.1420 hc        1 MF2      0.045867
     25 H81         3.1440    0.0200    6.5810 hc        1 MF2      0.045867
     26 H82         2.6450   -1.4660    5.6760 hc        1 MF2      0.045867
     27 H83         3.5640   -0.1510    4.8180 hc        1 MF2      0.045867
     28 H91        -0.9250   -1.3760    2.2940 h1        1 MF2      0.030700
     29 H92        -1.8820    0.1620    2.1190 h1        1 MF2      0.030700
     30 H101        0.1880    1.2370    1.0310 hc        1 MF2      0.048200
     31 H102        0.9890   -0.3830    1.0780 hc        1 MF2      0.048200
     32 H111       -0.9540   -1.3670   -0.2060 hc        1 MF2      0.040200
     33 H112       -1.7160    0.2680   -0.2860 hc        1 MF2      0.040200
     34 H121        0.3200    1.1570   -1.4750 hc        1 MF2      0.041700
     35 H122        1.0770   -0.4810   -1.4010 hc        1 MF2      0.041700
     36 H131       -0.8600   -1.4340   -2.7030 hc        1 MF2      0.040700
     37 H132       -1.6140    0.2050   -2.7790 hc        1 MF2      0.040700
     38 H141        0.4200    1.0880   -3.9720 hc        1 MF2      0.043700
     39 H142        1.1770   -0.5510   -3.8940 hc        1 MF2      0.043700
     40 H151       -0.7580   -1.5030   -5.1960 hc        1 MF2      0.043700
     41 H152       -1.5120    0.1370   -5.2740 hc        1 MF2      0.043700
     42 H161        0.5270    1.0450   -6.4490 h1        1 MF2      0.060700
     43 H162        1.3170   -0.5970   -6.3380 h1        1 MF2      0.060700
     44 H5         -0.6570    1.6770    5.9440 h1        1 MF2      0.047200
     45 H61        -1.5280   -1.0440    4.7100 h1        1 MF2      0.039950
     46 H62        -2.2230    0.6090    4.3730 h1        1 MF2      0.039950
     47 HNH        -0.5330   -1.3850   -7.7980 hn        1 MF2      0.305500
     48 H18        -1.1150    0.0120   -9.5490 h5        1 MF2      0.024200
     49 C9         -0.8410   -0.2480    2.2590 c3        1 MF2      0.170800
@<TRIPOS>BOND
     1    1    2 1   
     2    1   13 1   
     3    1   19 1   
     4    1   20 1   
     5    2    3 1   
     6    2    5 1   
     7    2   21 1   
     8    3   14 1   
     9    4   14 1   
    10    4   22 1   
    11    4   23 1   
    12    4   24 1   
    13    5   25 1   
    14    5   26 1   
    15    5   27 1   
    16    6    7 1   
    17    6   30 1   
    18    6   31 1   
    19    6   49 1   
    20    7    8 1   
    21    7   32 1   
    22    7   33 1   
    23    8    9 1   
    24    8   34 1   
    25    8   35 1   
    26    9   10 1   
    27    9   36 1   
    28    9   37 1   
    29   10   11 1   
    30   10   38 1   
    31   10   39 1   
    32   11   12 1   
    33   11   40 1   
    34   11   41 1   
    35   12   16 1   
    36   12   42 1   
    37   12   43 1   
    38   13   15 1   
    39   13   49 1   
    40   14   15 1   
    41   14   44 1   
    42   15   45 1   
    43   15   46 1   
    44   16   17 1   
    45   16   47 1   
    46   17   18 2   
    47   17   48 1   
    48   28   49 1   
    49   29   49 1   
@<TRIPOS>SUBSTRUCTURE
     1 MF2         1 TEMP              0 ****  ****    0 ROOT
