@<TRIPOS>MOLECULE
MF2
   50    49     1     0     0
SMALL
bcc


@<TRIPOS>ATOM
      1 C2         -1.2980    1.5130   -0.0130 c3        1 MF2     -0.113100
      2 C3         -1.1130    0.6190    1.2010 c3        1 MF2      0.143100
      3 O4         -1.8660   -0.5710    0.9050 os        1 MF2     -0.457600
      4 C7         -1.0710   -2.7020    1.6980 c3        1 MF2     -0.113100
      5 C8          0.3500    0.3120    1.4410 c3        1 MF2     -0.113100
      6 C10        -1.1480    2.5790   -4.6430 c3        1 MF2     -0.096100
      7 C11        -2.1760    2.7400   -3.5540 c3        1 MF2     -0.079400
      8 C12        -3.5630    2.3810   -4.0440 c3        1 MF2     -0.082400
      9 C13        -4.5770    2.4540   -2.9220 c3        1 MF2     -0.079400
     10 C14        -5.9810    2.2090   -3.4330 c3        1 MF2     -0.085400
     11 C15        -6.9950    2.1390   -2.3110 c3        1 MF2     -0.087400
     12 C16        -7.1820    0.7450   -1.7440 c3        1 MF2      0.116400
     13 N1         -4.4460   -1.6990    1.4290 n2        1 MF2     -0.662900
     14 C5         -1.9620   -1.5030    1.9810 c3        1 MF2      0.043800
     15 C6         -3.3950   -1.9700    2.1080 c2        1 MF2      0.492200
     16 N17        -6.7640   -1.6410   -0.2620 nh        1 MF2     -0.435100
     17 C18        -5.8370   -0.6930   -0.3130 c2        1 MF2      0.573600
     18 O19        -5.9820    0.4690   -0.9650 os        1 MF2     -0.376400
     19 H21        -2.3830    1.6520   -0.2350 hc        1 MF2      0.052200
     20 H22        -0.8350    2.5080    0.1910 hc        1 MF2      0.052200
     21 H3         -0.8080    1.0600   -0.9080 hc        1 MF2      0.052200
     22 H71        -0.0070   -2.3670    1.6250 hc        1 MF2      0.059367
     23 H72        -1.3530   -3.1800    0.7300 hc        1 MF2      0.059367
     24 H73        -1.1620   -3.4510    2.5200 hc        1 MF2      0.059367
     25 H81         0.4810   -0.2680    2.3860 hc        1 MF2      0.052200
     26 H82         0.7680   -0.2840    0.5950 hc        1 MF2      0.052200
     27 H83         0.9230    1.2670    1.5270 hc        1 MF2      0.052200
     28 H91        -0.1360    2.8610   -4.2650 hc        1 MF2      0.039700
     29 H92        -3.7420   -1.1050   -0.5090 h1        1 MF2      0.128200
     30 H101       -4.1430    0.2610    0.6230 h1        1 MF2      0.128200
     31 H102       -1.3930    3.2330   -5.5150 hc        1 MF2      0.039700
     32 H111       -1.1090    1.5210   -4.9990 hc        1 MF2      0.039700
     33 H112       -2.1740    3.8010   -3.1870 hc        1 MF2      0.036700
     34 H121       -1.9070    2.0890   -2.6780 hc        1 MF2      0.036700
     35 H122       -3.5540    1.3470   -4.4790 hc        1 MF2      0.046700
     36 H131       -3.8610    3.0820   -4.8680 hc        1 MF2      0.046700
     37 H132       -4.5270    3.4640   -2.4360 hc        1 MF2      0.038700
     38 H141       -4.3230    1.6960   -2.1340 hc        1 MF2      0.038700
     39 H142       -6.2680    3.0480   -4.1240 hc        1 MF2      0.057200
     40 H151       -6.0080    1.2650   -4.0380 hc        1 MF2      0.057200
     41 H152       -8.0030    2.4590   -2.6910 hc        1 MF2      0.081700
     42 H161       -6.7020    2.8420   -1.4860 hc        1 MF2      0.081700
     43 H162       -7.2630   -0.0270   -2.5520 h1        1 MF2      0.067200
     44 H5         -1.5620    1.1050    2.1140 h1        1 MF2      0.040700
     45 H61        -1.6670   -1.0220    2.9590 h1        1 MF2      0.079700
     46 H62        -3.5470   -2.6940    2.9430 h4        1 MF2      0.044800
     47 HNH        -8.0660    0.7100   -1.0540 h1        1 MF2      0.067200
     48 H18        -7.6540   -1.5460   -0.7040 hn        1 MF2      0.333700
     49 C9         -4.4450   -0.7890    0.3230 c3        1 MF2      0.058500
     50 H172       -6.6030   -2.4720    0.2790 hn        1 MF2      0.333700
@<TRIPOS>BOND
     1    1    2 1   
     2    1   19 1   
     3    1   20 1   
     4    1   21 1   
     5    2    3 1   
     6    2    5 1   
     7    2   44 1   
     8    3   14 1   
     9    4   14 1   
    10    4   22 1   
    11    4   23 1   
    12    4   24 1   
    13    5   25 1   
    14    5   26 1   
    15    5   27 1   
    16    6    7 1   
    17    6   28 1   
    18    6   31 1   
    19    6   32 1   
    20    7    8 1   
    21    7   33 1   
    22    7   34 1   
    23    8    9 1   
    24    8   35 1   
    25    8   36 1   
    26    9   10 1   
    27    9   37 1   
    28    9   38 1   
    29   10   11 1   
    30   10   39 1   
    31   10   40 1   
    32   11   12 1   
    33   11   41 1   
    34   11   42 1   
    35   12   18 1   
    36   12   43 1   
    37   12   47 1   
    38   13   15 2   
    39   13   49 1   
    40   14   15 1   
    41   14   45 1   
    42   15   46 1   
    43   16   17 2   
    44   16   48 1   
    45   16   50 1   
    46   17   18 1   
    47   17   49 1   
    48   29   49 1   
    49   30   49 1   
@<TRIPOS>SUBSTRUCTURE
     1 MF2         1 TEMP              0 ****  ****    0 ROOT
