@<TRIPOS>MOLECULE
MF2
   50    46     1     0     0
SMALL
bcc


@<TRIPOS>ATOM
      1 C2          1.4990   -1.7390   -0.3280 c3        1 MF2     -0.252000
      2 C3          0.7090   -0.4560   -0.4030 c3        1 MF2      0.033000
      3 O4          1.2110    0.3310    0.7680 os        1 MF2     -0.111000
      4 C7          1.1700    2.1870    2.2310 c3        1 MF2     -0.282000
      5 C8          0.9620    0.3350   -1.6600 c3        1 MF2     -0.252000
      6 C10        -2.9050    0.4170    0.2450 c3        1 MF2     -0.152000
      7 C11        -4.2410    0.9710   -0.2040 c3        1 MF2     -0.163000
      8 C12        -4.4650    0.7270   -1.6810 c3        1 MF2     -0.157000
      9 C13        -5.8100    1.2640   -2.1230 c3        1 MF2     -0.158000
     10 C14        -6.0420    1.0180   -3.5980 c3        1 MF2     -0.179000
     11 C15        -7.3970    1.5350   -4.0350 c3        1 MF2     -0.268000
     12 C16        -7.7930    1.3130   -5.4000 c1        1 MF2     -0.071000
     13 N1         -1.4340    0.2180    2.2410 n2        1 MF2     -0.296000
     14 C5          0.6270    1.4420    1.0870 c2        1 MF2      0.306000
     15 C6         -1.3770   -0.6310    3.1950 c2        1 MF2     -0.069000
     16 N17       -10.8540    1.2870   -4.6460 n3        1 MF2     -0.433000
     17 C18       -10.0910    0.2330   -2.2560 c1        1 MF2      0.179000
     18 O19       -11.2130   -0.0100   -2.0300 o         1 MF2     -0.183000
     19 H21        -0.3890   -0.6220   -0.2160 h1        1 MF2      0.140000
     20 H22         1.1230   -2.4320   -1.1220 hc        1 MF2      0.118667
     21 H3          2.5870   -1.5500   -0.4960 hc        1 MF2      0.118667
     22 H71         1.4850    3.2100    1.8870 hc        1 MF2      0.165667
     23 H72         2.0440    1.6740    2.7080 hc        1 MF2      0.165667
     24 H73         0.3570    2.3160    2.9980 hc        1 MF2      0.165667
     25 H81         0.3580    1.2740   -1.6760 hc        1 MF2      0.118667
     26 H82         0.6670   -0.2880   -2.5430 hc        1 MF2      0.118667
     27 H83         2.0450    0.5940   -1.7630 hc        1 MF2      0.118667
     28 H91         1.3710   -2.2260    0.6690 hc        1 MF2      0.118667
     29 H92        -3.5840    0.2530    2.2940 h1        1 MF2      0.100500
     30 H101       -2.7240    1.8050    1.9080 h1        1 MF2      0.100500
     31 H102       -2.8690   -0.6860    0.0450 hc        1 MF2      0.071000
     32 H111       -2.0830    0.8940   -0.3520 hc        1 MF2      0.071000
     33 H112       -5.0650    0.4880    0.3850 hc        1 MF2      0.092500
     34 H121       -4.2850    2.0720    0.0070 hc        1 MF2      0.092500
     35 H122       -3.6500    1.2200   -2.2740 hc        1 MF2      0.077500
     36 H131       -4.4120   -0.3730   -1.8940 hc        1 MF2      0.077500
     37 H132       -5.8640    2.3640   -1.9120 hc        1 MF2      0.087000
     38 H141       -6.6250    0.7720   -1.5290 hc        1 MF2      0.087000
     39 H142       -5.2370    1.5210   -4.1950 hc        1 MF2      0.078000
     40 H151       -5.9740   -0.0820   -3.8110 hc        1 MF2      0.078000
     41 H152       -7.4790    2.6410   -3.8230 hc        1 MF2      0.167500
     42 H161       -8.2230    1.0530   -3.4110 hc        1 MF2      0.167500
     43 H162       -7.1410    0.6840   -6.0240 ha        1 MF2      0.043000
     44 H5         -0.3810   -0.9440    3.5610 h4        1 MF2      0.132500
     45 H61        -0.2310    1.8340    0.4970 h4        1 MF2      0.188000
     46 H62        -2.2420   -1.0940    3.7110 h4        1 MF2      0.132500
     47 HNH        -9.9900    1.5250   -5.0980 hn        1 MF2      0.144333
     48 H18       -11.3430    0.6200   -5.2040 hn        1 MF2      0.144333
     49 C9         -2.7030    0.6890    1.7360 c3        1 MF2     -0.120000
     50 H172      -11.4170    2.1080   -4.5630 hn        1 MF2      0.144333
@<TRIPOS>BOND
     1    1    2 1   
     2    1   20 1   
     3    1   21 1   
     4    1   28 1   
     5    2    3 1   
     6    2    5 1   
     7    2   19 1   
     8    3   14 1   
     9    4   14 1   
    10    4   22 1   
    11    4   23 1   
    12    4   24 1   
    13    5   25 1   
    14    5   26 1   
    15    5   27 1   
    16    6    7 1   
    17    6   31 1   
    18    6   32 1   
    19    6   49 1   
    20    7    8 1   
    21    7   33 1   
    22    7   34 1   
    23    8    9 1   
    24    8   35 1   
    25    8   36 1   
    26    9   10 1   
    27    9   37 1   
    28    9   38 1   
    29   10   11 1   
    30   10   39 1   
    31   10   40 1   
    32   11   12 1   
    33   11   41 1   
    34   11   42 1   
    35   12   43 1   
    36   13   15 1   
    37   13   49 1   
    38   14   45 1   
    39   15   44 1   
    40   15   46 1   
    41   16   47 1   
    42   16   48 1   
    43   16   50 1   
    44   17   18 1   
    45   29   49 1   
    46   30   49 1   
@<TRIPOS>SUBSTRUCTURE
     1 MF2         1 TEMP              0 ****  ****    0 ROOT
