@<TRIPOS>MOLECULE
MF2
   50    47     1     0     0
SMALL
bcc


@<TRIPOS>ATOM
      1 C2          1.0660   -0.4060   -1.3400 c2        1 MF2     -0.275000
      2 C3          1.6740   -0.3760   -0.1460 c2        1 MF2      0.027000
      3 O4          0.8760   -0.0280    0.9550 os        1 MF2     -0.264000
      4 C7          0.6290   -0.2610    3.2720 c2        1 MF2     -0.256000
      5 C8          3.1150   -0.6030    0.1000 c3        1 MF2     -0.213000
      6 C10        -2.6530    1.9110   -1.2890 c3        1 MF2     -0.200000
      7 C11        -4.0530    1.6390   -0.7610 c3        1 MF2     -0.158000
      8 C12        -4.9090    1.0180   -1.8460 c3        1 MF2     -0.159000
      9 C13        -6.3160    0.7680   -1.3450 c3        1 MF2     -0.157000
     10 C14        -7.1950    0.2360   -2.4580 c3        1 MF2     -0.160000
     11 C15        -8.6270    0.0720   -1.9950 c3        1 MF2     -0.152000
     12 C16        -9.5460   -0.2720   -3.1520 c3        1 MF2     -0.075000
     13 N1         -0.7210    2.3210    0.2060 n7        1 MF2     -0.111000
     14 C5          1.1370   -0.7350    2.1320 c2        1 MF2     -0.031000
     15 C6          0.0420    3.0850    1.1690 c3        1 MF2     -0.148000
     16 N17       -11.1170   -0.0370   -5.5290 n8        1 MF2     -0.385000
     17 C18       -10.2830    0.9300   -5.1380 c1        1 MF2      0.068000
     18 O19        -9.5410    0.8600   -4.0420 os        1 MF2     -0.209000
     19 H21        -0.3060    1.4300   -0.0630 hn        1 MF2      0.300000
     20 H22        -0.0190   -0.2890   -1.4550 ha        1 MF2      0.132000
     21 H3          1.6340   -0.5780   -2.2630 ha        1 MF2      0.132000
     22 H71         1.7270   -1.6570    2.0230 h4        1 MF2      0.162000
     23 H72         0.0450    0.6640    3.3340 ha        1 MF2      0.133000
     24 H73         0.7700   -0.8040    4.2160 ha        1 MF2      0.133000
     25 H81         3.3050   -1.6860    0.3100 hc        1 MF2      0.109667
     26 H82         3.4690   -0.0050    0.9760 hc        1 MF2      0.109667
     27 H83         3.7130   -0.3140   -0.8000 hc        1 MF2      0.109667
     28 H91        -1.8270   -0.3630    0.2440 ha        1 MF2      0.001000
     29 H92        -1.3740   -0.8100    0.4800 ha        1 MF2      0.001000
     30 H101       -2.3160    3.6580    0.0470 h4        1 MF2      0.197000
     31 H102       -2.7190    2.5390   -2.2250 hc        1 MF2      0.145000
     32 H111       -2.1590    0.9400   -1.5670 hc        1 MF2      0.145000
     33 H112       -3.9950    0.9440    0.1180 hc        1 MF2      0.099500
     34 H121       -4.5260    2.5950   -0.4120 hc        1 MF2      0.099500
     35 H122       -4.9450    1.7010   -2.7360 hc        1 MF2      0.092500
     36 H131       -4.4510    0.0510   -2.1840 hc        1 MF2      0.092500
     37 H132       -6.2930    0.0360   -0.4960 hc        1 MF2      0.085000
     38 H141       -6.7500    1.7240   -0.9500 hc        1 MF2      0.085000
     39 H142       -7.1740    0.9460   -3.3290 hc        1 MF2      0.094000
     40 H151       -6.7970   -0.7480   -2.8180 hc        1 MF2      0.094000
     41 H152       -8.6960   -0.7440   -1.2300 hc        1 MF2      0.092000
     42 H161       -8.9810    1.0250   -1.5200 hc        1 MF2      0.092000
     43 H162       -9.1800   -1.1750   -3.7050 h1        1 MF2      0.077500
     44 H5          0.4410    2.3710    1.9450 h1        1 MF2      0.143000
     45 H61         0.9070    3.5760    0.6430 h1        1 MF2      0.143000
     46 H62        -0.5920    3.8700    1.6610 h1        1 MF2      0.143000
     47 HNH       -11.2830   -0.8960   -5.0570 hn        1 MF2      0.210500
     48 H18       -10.5880   -0.4500   -2.7800 h1        1 MF2      0.077500
     49 C9         -1.8700    2.6910   -0.2890 c2        1 MF2      0.119000
     50 H172      -11.6340    0.1170   -6.3630 hn        1 MF2      0.210500
@<TRIPOS>BOND
     1    1    2 1   
     2    1   20 1   
     3    1   21 1   
     4    2    3 1   
     5    2    5 1   
     6    3   14 1   
     7    4   14 1   
     8    4   23 1   
     9    4   24 1   
    10    5   25 1   
    11    5   26 1   
    12    5   27 1   
    13    6    7 1   
    14    6   31 1   
    15    6   32 1   
    16    6   49 1   
    17    7    8 1   
    18    7   33 1   
    19    7   34 1   
    20    8    9 1   
    21    8   35 1   
    22    8   36 1   
    23    9   10 1   
    24    9   37 1   
    25    9   38 1   
    26   10   11 1   
    27   10   39 1   
    28   10   40 1   
    29   11   12 1   
    30   11   41 1   
    31   11   42 1   
    32   12   18 1   
    33   12   43 1   
    34   12   48 1   
    35   13   15 1   
    36   13   19 1   
    37   13   49 1   
    38   14   22 1   
    39   15   44 1   
    40   15   45 1   
    41   15   46 1   
    42   16   17 1   
    43   16   47 1   
    44   16   50 1   
    45   17   18 1   
    46   28   29 1   
    47   30   49 1   
@<TRIPOS>SUBSTRUCTURE
     1 MF2         1 TEMP              0 ****  ****    0 ROOT
