@<TRIPOS>MOLECULE
MF3
   19    18     1     0     0
SMALL
bcc


@<TRIPOS>ATOM
      1 N           1.8900    0.0570    2.2760 n3        1 MF3     -0.894800
      2 CA          0.4620    0.3470    2.3020 c3        1 MF3      0.019500
      3 C          -0.2670   -0.0770    3.6250 c         1 MF3      0.890600
      4 O           0.4430   -0.5290    4.5660 o         1 MF3     -0.834800
      5 CB         -0.2970   -0.2760    1.1280 c3        1 MF3     -0.064400
      6 CG          0.1780    0.2850   -0.1890 c3        1 MF3      0.015700
      7 SD         -0.9530   -0.3450   -1.4070 ss        1 MF3     -0.286200
      8 CE         -0.1970    0.1980   -3.0020 c3        1 MF3      0.704000
      9 OXT        -1.5170    0.0820    3.6710 o         1 MF3     -0.834800
     10 FZ1        -0.8860   -0.2770   -4.0880 f         1 MF3     -0.238633
     11 FZ2        -0.1450    1.5540   -3.2080 f         1 MF3     -0.238633
     12 FZ3         1.0960   -0.2070   -3.2190 f         1 MF3     -0.238633
     13 H           2.0100   -0.9420    2.2650 hn        1 MF3      0.335300
     14 H2          2.2720    0.3740    3.1530 hn        1 MF3      0.335300
     15 HA          0.3600    1.4700    2.2320 h1        1 MF3      0.043700
     16 HB2        -0.1720   -1.3900    1.1400 hc        1 MF3      0.068200
     17 HB3        -1.3870   -0.0510    1.2890 hc        1 MF3      0.068200
     18 HG2         0.1510    1.4000   -0.1800 h1        1 MF3      0.075200
     19 HG3         1.2190   -0.0430   -0.4190 h1        1 MF3      0.075200
@<TRIPOS>BOND
     1    1    2 1   
     2    1   13 1   
     3    1   14 1   
     4    2    3 1   
     5    2    5 1   
     6    2   15 1   
     7    3    4 1   
     8    3    9 1   
     9    5    6 1   
    10    5   16 1   
    11    5   17 1   
    12    6    7 1   
    13    6   18 1   
    14    6   19 1   
    15    7    8 1   
    16    8   10 1   
    17    8   11 1   
    18    8   12 1   
@<TRIPOS>SUBSTRUCTURE
     1 MF3         1 TEMP              0 ****  ****    0 ROOT
