@<TRIPOS>MOLECULE
MF5
   32    33     1     0     0
SMALL
bcc


@<TRIPOS>ATOM
      1 FAE        -0.3170    0.9680   -1.5890 f         1 MF5     -0.106900
      2 CAS         0.9490    0.8970   -1.1180 ca        1 MF5      0.147400
      3 CAQ         1.3150    1.7140   -0.0190 ca        1 MF5      0.069900
      4 FAC         0.4090    2.5470    0.5350 f         1 MF5     -0.088400
      5 CAP         2.6350    1.6540    0.4920 ca        1 MF5      0.133900
      6 FAB         2.9890    2.4240    1.5360 f         1 MF5     -0.078900
      7 CAR         3.5790    0.7830   -0.1050 ca        1 MF5      0.069900
      8 FAD         4.8380    0.7200    0.3710 f         1 MF5     -0.088400
      9 CAT         3.1940   -0.0230   -1.2090 ca        1 MF5      0.147400
     10 FAF         4.1070   -0.8470   -1.7640 f         1 MF5     -0.106900
     11 CAU         1.8810    0.0280   -1.7160 ca        1 MF5     -0.183300
     12 CAL         1.4750   -0.8560   -2.8430 c3        1 MF5      0.193700
     13 OAN         1.6510   -0.1940   -4.1370 os        1 MF5     -0.148300
     14 NAM         0.7270    0.6740   -4.4440 n2        1 MF5     -0.365200
     15 CAG         0.8460    1.2270   -5.6230 ce        1 MF5      0.323800
     16 CAO        -0.1720    2.1560   -6.1510 ca        1 MF5      0.004800
     17 CAJ        -0.5270    2.0000   -7.5080 ca        1 MF5     -0.137000
     18 CAH        -1.4850    2.8300   -8.0870 ca        1 MF5     -0.012000
     19 CAI        -2.0840    3.8220   -7.3010 ca        1 MF5     -0.136000
     20 CAK        -1.7040    3.9580   -5.9660 ca        1 MF5     -0.034300
     21 NAV        -0.7600    3.1440   -5.3920 na        1 MF5      0.045900
     22 CAA        -0.3990    3.3600   -3.9980 c3        1 MF5     -0.033400
     23 HAL1        0.4180   -1.2080   -2.7220 h1        1 MF5      0.106700
     24 HAL2        2.1790   -1.7290   -2.9630 h1        1 MF5      0.106700
     25 HAG1        1.6670    1.0020   -6.3370 h4        1 MF5      0.056800
     26 HAJ        -0.0370    1.2040   -8.0950 ha        1 MF5      0.198000
     27 HAH        -1.7690    2.7050   -9.1480 ha        1 MF5      0.194000
     28 HAI        -2.8500    4.4990   -7.7170 ha        1 MF5      0.201000
     29 HAK        -2.1560    4.7380   -5.3160 h4        1 MF5      0.209000
     30 HAA1        0.7190    3.3330   -3.8920 h1        1 MF5      0.103700
     31 HAA2       -0.7730    4.3640   -3.6590 h1        1 MF5      0.103700
     32 HAA3       -0.8620    2.5570   -3.3570 h1        1 MF5      0.103700
@<TRIPOS>BOND
     1    1    2 1   
     2    2    3 ar  
     3    2   11 ar  
     4    3    4 1   
     5    3    5 ar  
     6    5    6 1   
     7    5    7 ar  
     8    7    8 1   
     9    7    9 ar  
    10    9   10 1   
    11    9   11 ar  
    12   11   12 1   
    13   12   13 1   
    14   12   23 1   
    15   12   24 1   
    16   13   14 1   
    17   14   15 2   
    18   15   16 1   
    19   15   25 1   
    20   16   17 ar  
    21   16   21 2   
    22   17   18 ar  
    23   17   26 1   
    24   18   19 ar  
    25   18   27 1   
    26   19   20 ar  
    27   19   28 1   
    28   20   21 1   
    29   20   29 1   
    30   21   22 1   
    31   22   30 1   
    32   22   31 1   
    33   22   32 1   
@<TRIPOS>SUBSTRUCTURE
     1 MF5         1 TEMP              0 ****  ****    0 ROOT
