@<TRIPOS>MOLECULE
MF5
   32    33     1     0     0
SMALL
bcc


@<TRIPOS>ATOM
      1 FAE         0.3130   -1.1890   -1.9890 f         1 MF5     -0.103900
      2 CAS         1.2050   -0.7740   -1.0630 ca        1 MF5      0.153900
      3 CAQ         1.9860   -1.7420   -0.3820 ca        1 MF5      0.067900
      4 FAC         1.8310   -3.0530   -0.6570 f         1 MF5     -0.088900
      5 CAP         2.9310   -1.3250    0.5890 ca        1 MF5      0.133900
      6 FAB         3.6770   -2.2360    1.2390 f         1 MF5     -0.079900
      7 CAR         3.0830    0.0550    0.8740 ca        1 MF5      0.067900
      8 FAD         3.9760    0.4600    1.7980 f         1 MF5     -0.088900
      9 CAT         2.2880    1.0070    0.1850 ca        1 MF5      0.153900
     10 FAF         2.4450    2.3170    0.4690 f         1 MF5     -0.103900
     11 CAU         1.3510    0.5990   -0.7830 ca        1 MF5     -0.190300
     12 CAL         0.5460    1.6050   -1.5260 c3        1 MF5      0.196700
     13 OAN        -0.7070    1.9310   -0.8390 os        1 MF5     -0.153300
     14 NAM        -1.5610    0.9510   -0.7500 n2        1 MF5     -0.337200
     15 CAG        -2.6910    1.2440   -0.1570 ce        1 MF5      0.304800
     16 CAO        -3.7360    0.2080   -0.0370 ca        1 MF5      0.002800
     17 CAJ        -4.0360   -0.6440   -1.1180 ca        1 MF5     -0.122000
     18 CAH        -5.0500   -1.5960   -1.0010 ca        1 MF5     -0.011000
     19 CAI        -5.7630   -1.6850    0.2000 ca        1 MF5     -0.139000
     20 CAK        -5.4400   -0.8290    1.2550 ca        1 MF5     -0.028300
     21 NAV        -4.4390    0.0990    1.1460 na        1 MF5      0.032900
     22 CAA        -4.1250    0.9710    2.2680 c3        1 MF5     -0.033400
     23 HAL1        1.0390    2.6180   -1.5330 h1        1 MF5      0.104700
     24 HAL2        0.3220    1.2590   -2.5690 h1        1 MF5      0.104700
     25 HAG1       -2.9350    2.2470    0.2490 h4        1 MF5      0.043800
     26 HAJ        -3.4560   -0.5460   -2.0540 ha        1 MF5      0.206000
     27 HAH        -5.2860   -2.2690   -1.8460 ha        1 MF5      0.194000
     28 HAI        -6.5750   -2.4210    0.3320 ha        1 MF5      0.201000
     29 HAK        -5.9830   -0.8730    2.2220 h4        1 MF5      0.208000
     30 HAA1       -4.4850    2.0120    2.0410 h1        1 MF5      0.101033
     31 HAA2       -4.6300    0.5980    3.1990 h1        1 MF5      0.101033
     32 HAA3       -3.0120    0.9850    2.4310 h1        1 MF5      0.101033
@<TRIPOS>BOND
     1    1    2 1   
     2    2    3 ar  
     3    2   11 ar  
     4    3    4 1   
     5    3    5 ar  
     6    5    6 1   
     7    5    7 ar  
     8    7    8 1   
     9    7    9 ar  
    10    9   10 1   
    11    9   11 ar  
    12   11   12 1   
    13   12   13 1   
    14   12   23 1   
    15   12   24 1   
    16   13   14 1   
    17   14   15 2   
    18   15   16 1   
    19   15   25 1   
    20   16   17 ar  
    21   16   21 2   
    22   17   18 ar  
    23   17   26 1   
    24   18   19 ar  
    25   18   27 1   
    26   19   20 ar  
    27   19   28 1   
    28   20   21 1   
    29   20   29 1   
    30   21   22 1   
    31   22   30 1   
    32   22   31 1   
    33   22   32 1   
@<TRIPOS>SUBSTRUCTURE
     1 MF5         1 TEMP              0 ****  ****    0 ROOT
