@<TRIPOS>MOLECULE
MF5
   32    33     1     0     0
SMALL
bcc


@<TRIPOS>ATOM
      1 FAE        -0.1040   -0.7670   -2.2460 f         1 MF5     -0.103900
      2 CAS         0.8710   -0.2540   -1.4640 ca        1 MF5      0.153900
      3 CAQ         0.5440    0.1670   -0.1490 ca        1 MF5      0.067900
      4 FAC        -0.7220    0.0590    0.3010 f         1 MF5     -0.088900
      5 CAP         1.5550    0.7030    0.6870 ca        1 MF5      0.133900
      6 FAB         1.2550    1.1040    1.9360 f         1 MF5     -0.079900
      7 CAR         2.8810    0.8180    0.2020 ca        1 MF5      0.067900
      8 FAD         3.8480    1.3280    0.9900 f         1 MF5     -0.088900
      9 CAT         3.1860    0.3940   -1.1180 ca        1 MF5      0.153900
     10 FAF         4.4550    0.5110   -1.5640 f         1 MF5     -0.103900
     11 CAU         2.1870   -0.1420   -1.9520 ca        1 MF5     -0.190300
     12 CAL         2.5210   -0.6160   -3.3210 c3        1 MF5      0.196700
     13 OAN         2.4070    0.4510   -4.3210 os        1 MF5     -0.153300
     14 NAM         1.2010    0.9070   -4.5070 n2        1 MF5     -0.337200
     15 CAG         1.0910    1.8440   -5.4150 ce        1 MF5      0.304800
     16 CAO        -0.2420    2.4020   -5.7220 ca        1 MF5      0.002800
     17 CAJ        -1.3650    1.5620   -5.8460 ca        1 MF5     -0.122000
     18 CAH        -2.6120    2.1000   -6.1700 ca        1 MF5     -0.011000
     19 CAI        -2.7240    3.4800   -6.3750 ca        1 MF5     -0.139000
     20 CAK        -1.5920    4.2870   -6.2420 ca        1 MF5     -0.028300
     21 NAV        -0.3700    3.7630   -5.9140 na        1 MF5      0.032900
     22 CAA         0.7870    4.6350   -5.7770 c3        1 MF5     -0.033400
     23 HAL1        1.8760   -1.4820   -3.6230 h1        1 MF5      0.104700
     24 HAL2        3.6140   -0.8690   -3.4250 h1        1 MF5      0.104700
     25 HAG1        1.9440    2.2410   -6.0030 h4        1 MF5      0.043800
     26 HAJ        -1.2430    0.4760   -5.6810 ha        1 MF5      0.206000
     27 HAH        -3.4970    1.4440   -6.2650 ha        1 MF5      0.194000
     28 HAI        -3.6900    3.9440   -6.6380 ha        1 MF5      0.201000
     29 HAK        -1.6440    5.3860   -6.3950 h4        1 MF5      0.208000
     30 HAA1        1.4730    4.4810   -6.6550 h1        1 MF5      0.101033
     31 HAA2        0.4590    5.7090   -5.7450 h1        1 MF5      0.101033
     32 HAA3        1.3320    4.3870   -4.8260 h1        1 MF5      0.101033
@<TRIPOS>BOND
     1    1    2 1   
     2    2    3 ar  
     3    2   11 ar  
     4    3    4 1   
     5    3    5 ar  
     6    5    6 1   
     7    5    7 ar  
     8    7    8 1   
     9    7    9 ar  
    10    9   10 1   
    11    9   11 ar  
    12   11   12 1   
    13   12   13 1   
    14   12   23 1   
    15   12   24 1   
    16   13   14 1   
    17   14   15 2   
    18   15   16 1   
    19   15   25 1   
    20   16   17 ar  
    21   16   21 2   
    22   17   18 ar  
    23   17   26 1   
    24   18   19 ar  
    25   18   27 1   
    26   19   20 ar  
    27   19   28 1   
    28   20   21 1   
    29   20   29 1   
    30   21   22 1   
    31   22   30 1   
    32   22   31 1   
    33   22   32 1   
@<TRIPOS>SUBSTRUCTURE
     1 MF5         1 TEMP              0 ****  ****    0 ROOT
