@<TRIPOS>MOLECULE
MF5
   32    33     1     0     0
SMALL
bcc


@<TRIPOS>ATOM
      1 FAE        -0.1230   -0.7590   -2.2410 f         1 MF5     -0.103900
      2 CAS         0.8480   -0.2460   -1.4540 ca        1 MF5      0.153900
      3 CAQ         0.5140    0.1810   -0.1440 ca        1 MF5      0.067900
      4 FAC        -0.7560    0.0790    0.2980 f         1 MF5     -0.088900
      5 CAP         1.5200    0.7160    0.6970 ca        1 MF5      0.133900
      6 FAB         1.2130    1.1230    1.9420 f         1 MF5     -0.079900
      7 CAR         2.8500    0.8240    0.2210 ca        1 MF5      0.067900
      8 FAD         3.8140    1.3350    1.0140 f         1 MF5     -0.088900
      9 CAT         3.1630    0.3950   -1.0950 ca        1 MF5      0.153900
     10 FAF         4.4350    0.5050   -1.5330 f         1 MF5     -0.103900
     11 CAU         2.1670   -0.1410   -1.9340 ca        1 MF5     -0.190300
     12 CAL         2.5100   -0.6210   -3.3000 c3        1 MF5      0.196700
     13 OAN         2.4070    0.4420   -4.3040 os        1 MF5     -0.153300
     14 NAM         1.2040    0.9020   -4.5000 n2        1 MF5     -0.337200
     15 CAG         1.1030    1.8360   -5.4120 ce        1 MF5      0.304800
     16 CAO        -0.2250    2.3970   -5.7310 ca        1 MF5      0.002800
     17 CAJ        -1.3510    1.5610   -5.8610 ca        1 MF5     -0.122000
     18 CAH        -2.5920    2.1020   -6.1960 ca        1 MF5     -0.011000
     19 CAI        -2.6980    3.4810   -6.4060 ca        1 MF5     -0.139000
     20 CAK        -1.5650    4.2850   -6.2670 ca        1 MF5     -0.028300
     21 NAV        -0.3470    3.7580   -5.9280 na        1 MF5      0.032900
     22 CAA         0.8110    4.6270   -5.7850 c3        1 MF5     -0.033400
     23 HAL1        1.8630   -1.4860   -3.6020 h1        1 MF5      0.104700
     24 HAL2        3.6030   -0.8790   -3.3940 h1        1 MF5      0.104700
     25 HAG1        1.9620    2.2290   -5.9950 h4        1 MF5      0.043800
     26 HAJ        -1.2330    0.4750   -5.6910 ha        1 MF5      0.206000
     27 HAH        -3.4790    1.4490   -6.2960 ha        1 MF5      0.194000
     28 HAI        -3.6610    3.9480   -6.6780 ha        1 MF5      0.201000
     29 HAK        -1.6120    5.3840   -6.4240 h4        1 MF5      0.208000
     30 HAA1        0.4860    5.7020   -5.7580 h1        1 MF5      0.101033
     31 HAA2        1.3490    4.3790   -4.8290 h1        1 MF5      0.101033
     32 HAA3        1.5040    4.4690   -6.6570 h1        1 MF5      0.101033
@<TRIPOS>BOND
     1    1    2 1   
     2    2    3 ar  
     3    2   11 ar  
     4    3    4 1   
     5    3    5 ar  
     6    5    6 1   
     7    5    7 ar  
     8    7    8 1   
     9    7    9 ar  
    10    9   10 1   
    11    9   11 ar  
    12   11   12 1   
    13   12   13 1   
    14   12   23 1   
    15   12   24 1   
    16   13   14 1   
    17   14   15 2   
    18   15   16 1   
    19   15   25 1   
    20   16   17 ar  
    21   16   21 2   
    22   17   18 ar  
    23   17   26 1   
    24   18   19 ar  
    25   18   27 1   
    26   19   20 ar  
    27   19   28 1   
    28   20   21 1   
    29   20   29 1   
    30   21   22 1   
    31   22   30 1   
    32   22   31 1   
    33   22   32 1   
@<TRIPOS>SUBSTRUCTURE
     1 MF5         1 TEMP              0 ****  ****    0 ROOT
