@<TRIPOS>MOLECULE
MF5
   32    28     1     0     0
SMALL
bcc


@<TRIPOS>ATOM
      1 FAE         0.5080    2.9370    2.1310 f         1 MF5     -0.068500
      2 CAS         1.4750    2.1000    2.5030 c2        1 MF5      0.119500
      3 CAQ         1.9900    2.1550    3.8100 c1        1 MF5      0.035000
      4 FAC         1.4490    3.0210    4.7220 f         1 MF5     -0.052000
      5 CAP         3.0250    1.2860    4.1930 c2        1 MF5      0.101000
      6 FAB         3.4420    1.2760    5.4290 f         1 MF5     -0.044000
      7 CAR         3.5470    0.3600    3.2680 c1        1 MF5      0.035000
      8 FAD         4.6240   -0.3390    3.5750 f         1 MF5     -0.052000
      9 CAT         3.0300    0.3070    1.9600 c2        1 MF5      0.119500
     10 FAF         3.4050   -0.6610    1.1460 f         1 MF5     -0.068500
     11 CAU         1.9960    1.1750    1.5780 c2        1 MF5     -0.188000
     12 CAL         1.4700    1.1390    0.1790 c3        1 MF5      0.047000
     13 OAN         0.1700    0.5070    0.1700 os        1 MF5     -0.232000
     14 NAM        -0.7740    1.3870   -0.3040 n2        1 MF5      0.060000
     15 CAG        -1.7380    0.9580   -1.0460 c1        1 MF5     -0.172000
     16 CAO        -1.8280   -0.5400   -1.3950 c1        1 MF5      0.075000
     17 CAJ        -1.9830   -1.4940   -0.3590 c2        1 MF5     -0.130000
     18 CAH        -2.2010   -2.8140   -0.6680 c1        1 MF5     -0.012000
     19 CAI        -2.2690   -3.2150   -2.0030 c1        1 MF5     -0.071500
     20 CAK        -2.1140   -2.2610   -3.0340 c1        1 MF5     -0.071500
     21 NAV        -1.8960   -0.9390   -2.7220 n2        1 MF5     -0.020000
     22 CAA        -1.8910    0.0340   -3.7480 c3        1 MF5     -0.135000
     23 HAL1        2.0860    0.6280   -0.3890 h1        1 MF5      0.139500
     24 HAL2        1.3940    2.0270   -0.1550 h1        1 MF5      0.139500
     25 HAG1       -2.4250    1.5940   -1.3890 ha        1 MF5      0.213000
     26 HAJ        -1.9320   -1.1990    0.6270 ha        1 MF5      0.199000
     27 HAH        -2.3140   -3.5060    0.0840 ha        1 MF5      0.194000
     28 HAI        -2.4220   -4.1410   -2.2210 ha        1 MF5      0.204500
     29 HAK        -2.1620   -2.5460   -3.9950 ha        1 MF5      0.204500
     30 HAA1       -1.1170    0.6110   -3.6430 h1        1 MF5      0.143333
     31 HAA2       -1.8510   -0.4030   -4.6070 h1        1 MF5      0.143333
     32 HAA3       -2.6920    0.5600   -3.6940 h1        1 MF5      0.143333
@<TRIPOS>BOND
     1    1    2 1   
     2    2    3 1   
     3    2   11 1   
     4    3    5 1   
     5    5    6 1   
     6    5    7 1   
     7    7    9 1   
     8    9   10 1   
     9    9   11 1   
    10   11   12 1   
    11   12   13 1   
    12   12   23 1   
    13   12   24 1   
    14   13   14 1   
    15   14   15 1   
    16   15   25 1   
    17   16   17 1   
    18   16   21 1   
    19   17   18 1   
    20   17   26 1   
    21   18   27 1   
    22   19   20 1   
    23   19   28 1   
    24   20   29 1   
    25   21   22 1   
    26   22   30 1   
    27   22   31 1   
    28   22   32 1   
@<TRIPOS>SUBSTRUCTURE
     1 MF5         1 TEMP              0 ****  ****    0 ROOT
