@<TRIPOS>MOLECULE
MFA
   26    26     1     0     0
SMALL
bcc


@<TRIPOS>ATOM
      1 C1         -0.7210   -0.7210    0.8470 c3        1 MFA      0.290900
      2 CM         -1.3990    0.2010    2.9310 c3        1 MFA      0.120700
      3 O1         -1.2920    0.3820    1.5250 os        1 MFA     -0.455600
      4 C2         -1.0420   -0.5550   -0.6540 c3        1 MFA      0.098100
      5 O2         -2.4340   -0.4520   -0.8390 oh        1 MFA     -0.572800
      6 C3         -0.2800    0.6450   -1.2390 c3        1 MFA      0.085100
      7 O3         -0.4530    0.7300   -2.6350 oh        1 MFA     -0.577800
      8 C4          1.2140    0.5420   -0.8750 c3        1 MFA      0.079100
      9 O4          1.7960   -0.5600   -1.5490 oh        1 MFA     -0.595800
     10 C5          1.3600    0.4490    0.6490 c3        1 MFA      0.110100
     11 O5          0.6630   -0.7100    1.1310 os        1 MFA     -0.444600
     12 C6          2.8040    0.2850    1.0740 c3        1 MFA     -0.091100
     13 H1         -1.0920   -1.7070    1.2450 h2        1 MFA      0.089700
     14 HM1        -1.7990    1.1760    3.3050 h1        1 MFA      0.041700
     15 HM2        -2.1080   -0.6320    3.1590 h1        1 MFA      0.041700
     16 HM3        -0.3950   -0.0140    3.3720 h1        1 MFA      0.041700
     17 H2         -0.7500   -1.5000   -1.1940 h1        1 MFA      0.086700
     18 HO2        -2.7150    0.3840   -0.4420 ho        1 MFA      0.417000
     19 H3         -0.7110    1.6030   -0.8330 h1        1 MFA      0.092700
     20 HO3         0.0380   -0.0050   -3.0300 ho        1 MFA      0.414000
     21 H4          1.7640    1.4400   -1.2730 h1        1 MFA      0.095700
     22 HO4         1.5830   -1.3530   -1.0380 ho        1 MFA      0.411000
     23 H5          0.9040    1.3650    1.1180 h1        1 MFA      0.066700
     24 H61         2.8600    0.0860    2.1710 hc        1 MFA      0.051367
     25 H62         3.2750   -0.5690    0.5300 hc        1 MFA      0.051367
     26 H63         3.3650    1.2200    0.8380 hc        1 MFA      0.051367
@<TRIPOS>BOND
     1    1    3 1   
     2    1    4 1   
     3    1   11 1   
     4    1   13 1   
     5    2    3 1   
     6    2   14 1   
     7    2   15 1   
     8    2   16 1   
     9    4    5 1   
    10    4    6 1   
    11    4   17 1   
    12    5   18 1   
    13    6    7 1   
    14    6    8 1   
    15    6   19 1   
    16    7   20 1   
    17    8    9 1   
    18    8   10 1   
    19    8   21 1   
    20    9   22 1   
    21   10   11 1   
    22   10   12 1   
    23   10   23 1   
    24   12   24 1   
    25   12   25 1   
    26   12   26 1   
@<TRIPOS>SUBSTRUCTURE
     1 MFA         1 TEMP              0 ****  ****    0 ROOT
