@<TRIPOS>MOLECULE
MFB
   26    26     1     0     0
SMALL
bcc


@<TRIPOS>ATOM
      1 C1          1.6600   -2.3980    2.5110 c3        1 MFB      0.335900
      2 C2          0.5020   -2.9880    1.6830 c3        1 MFB      0.091100
      3 C3         -0.2930   -1.8910    0.9510 c3        1 MFB      0.072100
      4 C4          0.6470   -0.9020    0.2460 c3        1 MFB      0.082100
      5 C5          1.6520   -0.3570    1.2710 c3        1 MFB      0.118100
      6 C6          2.6280    0.6170    0.6430 c3        1 MFB     -0.092100
      7 O1          2.6040   -3.4300    2.6950 os        1 MFB     -0.401600
      8 O2         -0.3410   -3.6570    2.6050 oh        1 MFB     -0.587800
      9 O3         -1.1880   -2.4970    0.0400 oh        1 MFB     -0.595800
     10 O4          1.2820   -1.5430   -0.8450 oh        1 MFB     -0.597800
     11 O5          2.4280   -1.4420    1.7820 os        1 MFB     -0.450600
     12 CM          3.5920   -3.1360    3.6740 c3        1 MFB      0.119700
     13 H1          1.2980   -1.9580    3.4800 h2        1 MFB      0.061700
     14 H2          0.9140   -3.7230    0.9360 h1        1 MFB      0.065700
     15 H3         -0.9540   -1.3480    1.6840 h1        1 MFB      0.090700
     16 H4          0.0540   -0.0680   -0.2190 h1        1 MFB      0.094700
     17 H5          1.0900    0.1310    2.1150 h1        1 MFB      0.049700
     18 H61         3.4250    0.8860    1.3760 hc        1 MFB      0.053367
     19 H62         3.1070    0.1550   -0.2550 hc        1 MFB      0.053367
     20 H63         2.0810    1.5380    0.3320 hc        1 MFB      0.053367
     21 HO2        -1.0960   -3.9800    2.0940 ho        1 MFB      0.420000
     22 HO3        -0.6820   -2.7250   -0.7540 ho        1 MFB      0.420000
     23 HO4         2.0080   -2.0730   -0.4830 ho        1 MFB      0.421000
     24 HM1         3.1150   -2.9800    4.6730 h1        1 MFB      0.040700
     25 HM2         4.1800   -2.2330    3.3800 h1        1 MFB      0.040700
     26 HM3         4.2410   -4.0480    3.6840 h1        1 MFB      0.040700
@<TRIPOS>BOND
     1    1    2 1   
     2    1    7 1   
     3    1   11 1   
     4    1   13 1   
     5    2    3 1   
     6    2    8 1   
     7    2   14 1   
     8    3    4 1   
     9    3    9 1   
    10    3   15 1   
    11    4    5 1   
    12    4   10 1   
    13    4   16 1   
    14    5    6 1   
    15    5   11 1   
    16    5   17 1   
    17    6   18 1   
    18    6   19 1   
    19    6   20 1   
    20    7   12 1   
    21    8   21 1   
    22    9   22 1   
    23   10   23 1   
    24   12   24 1   
    25   12   25 1   
    26   12   26 1   
@<TRIPOS>SUBSTRUCTURE
     1 MFB         1 TEMP              0 ****  ****    0 ROOT
