@<TRIPOS>MOLECULE
MFC
   39    40     1     0     0
SMALL
bcc


@<TRIPOS>ATOM
      1 N           1.7970    3.3460   -3.6340 n3        1 MFC     -0.892800
      2 CA1         3.0690    2.7770   -4.0420 c3        1 MFC      0.078200
      3 CB1         3.4270    1.4410   -3.3230 c3        1 MFC      0.140100
      4 CG1         4.3920    0.5630   -4.0910 c3        1 MFC     -0.144100
      5 OG1         3.9520    1.7720   -2.0470 oh        1 MFC     -0.638800
      6 C1          3.1260    2.6020   -5.5480 cc        1 MFC      0.523900
      7 N2          2.2090    1.9340   -6.2630 nd        1 MFC     -0.669300
      8 N3          4.1620    3.1780   -6.3240 n         1 MFC     -0.383300
      9 C2          3.8990    2.8490   -7.6780 c         1 MFC      0.664700
     10 O2          4.5480    3.1880   -8.6720 o         1 MFC     -0.594500
     11 CA2         2.6120    2.0190   -7.6250 cd        1 MFC      0.046400
     12 CA3         5.2720    3.9670   -5.8670 c3        1 MFC     -0.036000
     13 C           6.2120    3.2720   -4.8340 c         1 MFC      0.903600
     14 O           5.9510    3.4440   -3.6050 o         1 MFC     -0.825800
     15 CB2         2.0600    1.5020   -8.7380 ce        1 MFC     -0.077200
     16 CG2         0.8560    0.7020   -8.8410 ca        1 MFC     -0.040800
     17 CD1        -0.1810    0.7610   -7.8980 ca        1 MFC     -0.073000
     18 CD2         0.7250   -0.1490   -9.9510 ca        1 MFC     -0.133000
     19 CE1        -1.3220   -0.0210   -8.0480 ca        1 MFC     -0.199000
     20 CE2        -0.4180   -0.9430  -10.1140 ca        1 MFC      0.088900
     21 F          -0.5340   -1.7640  -11.1850 f         1 MFC     -0.137900
     22 CZ         -1.4510   -0.8760   -9.1470 ca        1 MFC      0.080100
     23 OH         -2.5540   -1.6730   -9.3560 oh        1 MFC     -0.492100
     24 OXT         7.1810    2.6060   -5.2740 o         1 MFC     -0.825800
     25 H           1.8190    3.4780   -2.6390 hn        1 MFC      0.347300
     26 HN2         1.0410    2.7260   -3.8580 hn        1 MFC      0.347300
     27 HA1         3.8730    3.5320   -3.7400 h1        1 MFC      0.151700
     28 HB1         2.4870    0.8600   -3.0960 h1        1 MFC      0.044700
     29 HG11        3.9150    0.1610   -5.0140 hc        1 MFC      0.057700
     30 HG12        5.3140    1.1360   -4.3680 hc        1 MFC      0.057700
     31 HG13        4.6980   -0.2940   -3.4440 hc        1 MFC      0.057700
     32 HG1         4.8080    2.2130   -2.2000 ho        1 MFC      0.453000
     33 HA31        4.8700    4.9100   -5.3990 h1        1 MFC      0.054700
     34 HA32        5.8880    4.2310   -6.7710 h1        1 MFC      0.054700
     35 HB2         2.5890    1.6900   -9.6930 ha        1 MFC      0.144000
     36 HD1        -0.1020    1.4320   -7.0280 ha        1 MFC      0.172000
     37 HD2         1.5260   -0.2070  -10.7040 ha        1 MFC      0.150000
     38 HE1        -2.1260    0.0300   -7.3000 ha        1 MFC      0.133000
     39 HOH        -3.1470   -1.5510   -8.6000 ho        1 MFC      0.415000
@<TRIPOS>BOND
     1    1    2 1   
     2    1   25 1   
     3    1   26 1   
     4    2    3 1   
     5    2    6 1   
     6    2   27 1   
     7    3    4 1   
     8    3    5 1   
     9    3   28 1   
    10    4   29 1   
    11    4   30 1   
    12    4   31 1   
    13    5   32 1   
    14    6    7 2   
    15    6    8 1   
    16    7   11 1   
    17    8    9 1   
    18    8   12 1   
    19    9   10 2   
    20    9   11 1   
    21   11   15 2   
    22   12   13 1   
    23   12   33 1   
    24   12   34 1   
    25   13   14 1   
    26   13   24 1   
    27   15   16 1   
    28   15   35 1   
    29   16   17 ar  
    30   16   18 ar  
    31   17   19 ar  
    32   17   36 1   
    33   18   20 ar  
    34   18   37 1   
    35   19   22 ar  
    36   19   38 1   
    37   20   21 1   
    38   20   22 ar  
    39   22   23 1   
    40   23   39 1   
@<TRIPOS>SUBSTRUCTURE
     1 MFC         1 TEMP              0 ****  ****    0 ROOT
