@<TRIPOS>MOLECULE
MFD
   53    51     1     0     0
SMALL
bcc


@<TRIPOS>ATOM
      1 N3          1.0160    0.7050   -0.2730 n4        1 MFD      0.093000
      2 C2          1.9600   -1.5760   -0.1850 c3        1 MFD     -0.041000
      3 C1          0.0680    0.0800   -4.0810 c1        1 MFD      0.437000
      4 O1         -0.0030   -0.4260   -5.1510 o         1 MFD     -0.218000
      5 OXT         0.1340    0.5970   -3.0070 o         1 MFD     -0.218000
      6 C3          1.7620   -0.2700    0.4760 c2        1 MFD     -0.579000
      7 CM2         2.6240   -1.4750   -1.5410 c3        1 MFD     -0.218000
      8 C7          3.3140    1.0930    4.2640 c2        1 MFD     -0.086000
      9 C6          3.3580   -0.3310    3.9280 c2        1 MFD      0.002000
     10 C4          2.2180    0.0690    1.7670 c2        1 MFD      0.028000
     11 C'          4.0740    3.3580    6.8060 c3        1 MFD     -0.155000
     12 C9          2.9290    3.0100    5.8430 c3        1 MFD      0.067000
     13 C8          2.9820    1.5640    5.4710 c2        1 MFD     -0.201000
     14 C4'         2.9250    6.0320    9.9560 ca        1 MFD     -0.135000
     15 C3'         2.3300    4.7750    9.8530 ca        1 MFD     -0.128000
     16 C2'         2.6990    3.9090    8.8250 ca        1 MFD     -0.131500
     17 C1'         3.6650    4.2940    7.8870 ca        1 MFD     -0.071000
     18 C6'         4.2580    5.5570    7.9970 ca        1 MFD     -0.131500
     19 C5'         3.8890    6.4210    9.0270 ca        1 MFD     -0.128000
     20 O9          3.0340    3.7890    4.6440 os        1 MFD     -0.280000
     21 CM9         2.5800    5.1210    4.8020 c3        1 MFD     -0.075000
     22 CM8         7.8110    2.0410    6.7200 c3        1 MFD     -0.268000
     23 CM6         3.8250   -1.2320    4.8150 c2        1 MFD     -0.271000
     24 HN31        0.8410    1.5350    0.2910 hn        1 MFD      0.196333
     25 HN32        0.1230    0.3080   -0.5810 hn        1 MFD      0.196333
     26 H2          0.9760   -2.1130   -0.3080 hc        1 MFD      0.072000
     27 H3          2.5960   -2.2150    0.4830 hc        1 MFD      0.072000
     28 HM21        1.9450   -0.9960   -2.2910 hc        1 MFD      0.058333
     29 HM22        3.5590   -0.8690   -1.4750 hc        1 MFD      0.058333
     30 HM23        2.8860   -2.4930   -1.9190 hc        1 MFD      0.058333
     31 H7          3.5810    1.7850    3.4460 ha        1 MFD      0.137000
     32 H5          3.1700   -1.7650    2.3290 ha        1 MFD      0.117000
     33 H4          1.9740    1.0930    2.1230 ha        1 MFD      0.082000
     34 H'1         1.9360    3.2230    6.3360 h1        1 MFD      0.085000
     35 H'2         4.9190    3.7940    6.2070 hc        1 MFD      0.106000
     36 H9          4.4540    2.4110    7.2780 hc        1 MFD      0.106000
     37 H8          8.1240    1.8020    7.7590 hc        1 MFD      0.066750
     38 H6'         5.0210    5.8680    7.2680 ha        1 MFD      0.132500
     39 H5'         4.3630    7.4110    9.1070 ha        1 MFD      0.130000
     40 HM91        3.1450    5.6390    5.6170 h1        1 MFD      0.071333
     41 HM92        2.7830    5.6040    3.8130 h1        1 MFD      0.071333
     42 HM93        1.4850    5.1390    5.0280 h1        1 MFD      0.071333
     43 HM81        6.7610    2.4090    6.7240 hc        1 MFD      0.066750
     44 HM82        7.8790    1.1260    6.0920 hc        1 MFD      0.066750
     45 HM83        8.4770    2.8270    6.3030 hc        1 MFD      0.066750
     46 HM61        2.7120    0.8890    6.3000 ha        1 MFD      0.126000
     47 HM62        4.1780   -0.9450    5.8110 ha        1 MFD      0.104000
     48 HM63        3.8850   -2.3010    4.5800 ha        1 MFD      0.104000
     49 C5          2.9160   -0.7330    2.6100 c2        1 MFD     -0.306000
     50 H4'         2.6350    6.7140   10.7690 ha        1 MFD      0.130000
     51 H3'         1.5720    4.4630   10.5860 ha        1 MFD      0.130000
     52 H33         1.5310    0.9730   -1.1180 hn        1 MFD      0.196333
     53 H2'         2.2330    2.9150    8.7490 ha        1 MFD      0.132500
@<TRIPOS>BOND
     1    1    6 1   
     2    1   24 1   
     3    1   25 1   
     4    1   52 1   
     5    2    6 1   
     6    2    7 1   
     7    2   26 1   
     8    2   27 1   
     9    3    4 1   
    10    3    5 1   
    11    6   10 1   
    12    7   28 1   
    13    7   29 1   
    14    7   30 1   
    15    8    9 1   
    16    8   13 1   
    17    8   31 1   
    18    9   23 1   
    19    9   49 1   
    20   10   33 1   
    21   10   49 1   
    22   11   12 1   
    23   11   17 1   
    24   11   35 1   
    25   11   36 1   
    26   12   13 1   
    27   12   20 1   
    28   12   34 1   
    29   13   46 1   
    30   14   15 1   
    31   14   19 1   
    32   14   50 1   
    33   15   16 1   
    34   15   51 1   
    35   16   17 1   
    36   16   53 1   
    37   17   18 1   
    38   18   19 1   
    39   18   38 1   
    40   19   39 1   
    41   20   21 1   
    42   21   40 1   
    43   21   41 1   
    44   21   42 1   
    45   22   37 1   
    46   22   43 1   
    47   22   44 1   
    48   22   45 1   
    49   23   47 1   
    50   23   48 1   
    51   32   49 1   
@<TRIPOS>SUBSTRUCTURE
     1 MFD         1 TEMP              0 ****  ****    0 ROOT
