@<TRIPOS>MOLECULE
MFD
   52    52     1     0     0
SMALL
bcc


@<TRIPOS>ATOM
      1 N3          1.7320   -1.1490   -4.0430 n3        1 MFD     -0.894800
      2 C2          0.7550    1.0240   -4.8940 c3        1 MFD     -0.222700
      3 C1          1.1520    0.6080   -6.3340 c         1 MFD      0.909600
      4 O1          0.3080    0.7310   -7.2630 o         1 MFD     -0.842800
      5 OXT         2.3260    0.1600   -6.5000 o         1 MFD     -0.842800
      6 C3          0.5970   -0.2320   -4.0110 c3        1 MFD      0.194700
      7 CM2        -0.5110    1.8430   -4.8980 c3        1 MFD     -0.062100
      8 C7         -1.6810   -0.8050    0.3150 c2        1 MFD     -0.209200
      9 C6         -0.9360    0.0070   -0.4610 ce        1 MFD     -0.047200
     10 C4          0.3070    0.2030   -2.5970 c2        1 MFD     -0.093200
     11 C'         -1.2570   -0.0190    4.0450 c3        1 MFD     -0.044100
     12 C9         -0.9380   -0.6870    2.7010 c3        1 MFD      0.148100
     13 C8         -2.1080   -0.5260    1.7120 c3        1 MFD     -0.045500
     14 C4'         2.1820    1.7810    5.8720 ca        1 MFD     -0.138000
     15 C3'         1.6940    2.2720    4.6600 ca        1 MFD     -0.130500
     16 C2'         0.5820    1.6820    4.0640 ca        1 MFD     -0.126500
     17 C1'        -0.0560    0.5940    4.6750 ca        1 MFD     -0.070300
     18 C6'         0.4400    0.1050    5.8880 ca        1 MFD     -0.126500
     19 C5'         1.5540    0.6980    6.4840 ca        1 MFD     -0.130500
     20 O9         -0.6960   -2.0640    3.0030 os        1 MFD     -0.427600
     21 CM9         0.2160   -2.6920    2.1170 c3        1 MFD      0.114700
     22 CM8        -3.2790   -1.4040    2.1070 c3        1 MFD     -0.081100
     23 CM6        -0.4060    1.3160   -0.0040 c3        1 MFD     -0.064900
     24 HN31        2.5620   -0.6460   -3.7830 hn        1 MFD      0.354300
     25 HN32        1.8650   -1.4430   -4.9990 hn        1 MFD      0.354300
     26 H2          1.6000    1.6450   -4.4880 hc        1 MFD      0.031700
     27 H3         -0.2930   -0.8110   -4.4040 h1        1 MFD      0.057700
     28 HM21       -1.3410    1.2600   -5.3660 hc        1 MFD      0.019700
     29 HM22       -0.8080    2.1350   -3.8610 hc        1 MFD      0.019700
     30 HM23       -0.3590    2.7660   -5.5070 hc        1 MFD      0.019700
     31 H7         -2.0370   -1.7670   -0.0930 ha        1 MFD      0.124000
     32 H5         -1.1720   -1.2630   -2.2090 ha        1 MFD      0.125000
     33 H4          0.9020    1.0600   -2.2410 ha        1 MFD      0.110000
     34 H'1        -2.0280    0.7820    3.8860 hc        1 MFD      0.059200
     35 H'2        -1.7060   -0.7890    4.7290 hc        1 MFD      0.059200
     36 H9         -0.0180   -0.2210    2.2450 h1        1 MFD      0.055700
     37 H8         -2.4440    0.5510    1.7720 hc        1 MFD      0.048700
     38 H2'         0.2020    2.0650    3.1040 ha        1 MFD      0.133500
     39 H6'        -0.0470   -0.7550    6.3700 ha        1 MFD      0.133500
     40 H5'         1.9380    0.3050    7.4360 ha        1 MFD      0.126500
     41 HM91        0.2570   -3.7530    2.4690 h1        1 MFD      0.036700
     42 HM92       -0.1520   -2.6390    1.0630 h1        1 MFD      0.036700
     43 HM93        1.2260   -2.2170    2.1930 h1        1 MFD      0.036700
     44 HM81       -2.9730   -2.4780    2.1100 hc        1 MFD      0.034367
     45 HM82       -3.6270   -1.1340    3.1330 hc        1 MFD      0.034367
     46 HM83       -4.1230   -1.2700    1.3890 hc        1 MFD      0.034367
     47 HM61       -0.8560    1.6390    0.9660 hc        1 MFD      0.040033
     48 HM62        0.7030    1.2490    0.1310 hc        1 MFD      0.040033
     49 HM63       -0.6180    2.1040   -0.7700 hc        1 MFD      0.040033
     50 C5         -0.6090   -0.3950   -1.8240 ce        1 MFD     -0.186000
     51 H4'         3.0600    2.2470    6.3400 ha        1 MFD      0.125000
     52 H3'         2.1910    3.1230    4.1710 ha        1 MFD      0.126500
@<TRIPOS>BOND
     1    1    6 1   
     2    1   24 1   
     3    1   25 1   
     4    2    3 1   
     5    2    6 1   
     6    2    7 1   
     7    2   26 1   
     8    3    4 1   
     9    3    5 1   
    10    6   10 1   
    11    6   27 1   
    12    7   28 1   
    13    7   29 1   
    14    7   30 1   
    15    8    9 2   
    16    8   13 1   
    17    8   31 1   
    18    9   23 1   
    19    9   50 1   
    20   10   33 1   
    21   10   50 2   
    22   11   12 1   
    23   11   17 1   
    24   11   34 1   
    25   11   35 1   
    26   12   13 1   
    27   12   20 1   
    28   12   36 1   
    29   13   22 1   
    30   13   37 1   
    31   14   15 ar  
    32   14   19 ar  
    33   14   51 1   
    34   15   16 ar  
    35   15   52 1   
    36   16   17 ar  
    37   16   38 1   
    38   17   18 ar  
    39   18   19 ar  
    40   18   39 1   
    41   19   40 1   
    42   20   21 1   
    43   21   41 1   
    44   21   42 1   
    45   21   43 1   
    46   22   44 1   
    47   22   45 1   
    48   22   46 1   
    49   23   47 1   
    50   23   48 1   
    51   23   49 1   
    52   32   50 1   
@<TRIPOS>SUBSTRUCTURE
     1 MFD         1 TEMP              0 ****  ****    0 ROOT
