@<TRIPOS>MOLECULE
MFD
   53    52     1     0     0
SMALL
bcc


@<TRIPOS>ATOM
      1 N3          1.5580    0.5660   -0.6840 nz        1 MFD      0.090000
      2 C2          1.1320   -1.8830   -0.5530 c3        1 MFD     -0.046000
      3 C1          2.8070    0.4990   -4.4870 c1        1 MFD      0.438000
      4 O1          3.2760    0.1930   -5.5310 o         1 MFD     -0.218000
      5 OXT         2.3330    0.8140   -3.4370 o         1 MFD     -0.218000
      6 C3          1.5420   -0.6290    0.1150 c2        1 MFD     -0.562000
      7 CM2         2.0610   -2.2970   -1.6730 c3        1 MFD     -0.217000
      8 C7          3.4090    1.7480    4.0110 cx        1 MFD     -0.141000
      9 C6          2.6930    0.5430    3.5430 c2        1 MFD      0.026000
     10 C4          1.9170   -0.5660    1.4660 c2        1 MFD      0.047000
     11 C'          5.0750    3.2800    8.5180 c3        1 MFD     -0.207000
     12 C9          3.1540    2.3030    5.3990 cx        1 MFD     -0.042000
     13 C8          4.4800    1.6540    5.0810 cx        1 MFD     -0.142000
     14 C4'         2.8990    6.6150   10.1570 c2        1 MFD     -0.245000
     15 C3'         3.1990    5.5380   10.9410 c2        1 MFD     -0.009000
     16 C2'         3.9260    4.4190   10.4120 c2        1 MFD     -0.215000
     17 C1'         4.3380    4.4110    9.1170 c2        1 MFD     -0.034000
     18 C6'         4.0370    5.5660    8.2330 c3        1 MFD     -0.214000
     19 C5'         3.2980    6.6870    8.7990 c1        1 MFD     -0.106000
     20 O9          3.1820    3.6960    5.5830 os        1 MFD     -0.265000
     21 CM9         1.9500    4.3180    5.2360 c3        1 MFD     -0.076000
     22 CM8         5.7180    2.4670    4.9480 c3        1 MFD     -0.185000
     23 CM6         2.3820   -0.4520    4.3960 c2        1 MFD     -0.302000
     24 HN31        1.2000    1.3520   -0.1350 hn        1 MFD      0.203333
     25 HN32        2.5110    0.7940   -0.9820 hn        1 MFD      0.203333
     26 H2          0.0880   -1.7920   -0.9680 hc        1 MFD      0.070000
     27 H3          1.1030   -2.6980    0.2190 hc        1 MFD      0.070000
     28 HM21        3.1020   -2.4240   -1.2890 hc        1 MFD      0.061667
     29 HM22        1.7260   -3.2640   -2.1190 hc        1 MFD      0.061667
     30 HM23        2.0810   -1.5270   -2.4840 hc        1 MFD      0.061667
     31 H7          3.5910    2.4970    3.2120 hc        1 MFD      0.122000
     32 H5          2.5060    1.4930    1.6200 ha        1 MFD      0.081000
     33 H4          1.8310   -1.5280    2.0060 ha        1 MFD      0.125000
     34 H'1         5.1210    2.4030    9.2100 hc        1 MFD      0.096000
     35 H'2         6.1210    3.5930    8.2730 hc        1 MFD      0.096000
     36 H9          4.5780    2.9610    7.5630 hc        1 MFD      0.096000
     37 H8          2.4300    1.8030    6.0720 h1        1 MFD      0.124000
     38 H6'         3.4490    5.1980    7.3320 hc        1 MFD      0.171500
     39 H5'         5.0000    5.9800    7.8080 hc        1 MFD      0.171500
     40 HM91        2.1310    5.4080    5.4120 h1        1 MFD      0.077333
     41 HM92        1.1260    3.9430    5.8910 h1        1 MFD      0.077333
     42 HM93        1.7040    4.1250    4.1630 h1        1 MFD      0.077333
     43 HM81        5.4900    3.4800    4.5330 hc        1 MFD      0.078333
     44 HM82        6.4420    1.9550    4.2680 hc        1 MFD      0.078333
     45 HM83        6.2000    2.6000    5.9480 hc        1 MFD      0.078333
     46 HM61        4.6600    0.6580    5.5370 hc        1 MFD      0.124000
     47 HM62        2.6560   -0.4240    5.4560 ha        1 MFD      0.102500
     48 HM63        1.8360   -1.3480    4.0840 ha        1 MFD      0.102500
     49 C5          2.3590    0.5340    2.1380 c2        1 MFD     -0.367000
     50 H4'         2.3360    7.4680   10.5670 ha        1 MFD      0.140000
     51 H3'         2.8940    5.4890   11.9990 ha        1 MFD      0.124000
     52 H33         0.9870    0.4340   -1.5200 hn        1 MFD      0.203333
     53 H2'         4.1330    3.5720   11.0830 ha        1 MFD      0.132000
@<TRIPOS>BOND
     1    1    6 1   
     2    1   24 1   
     3    1   25 1   
     4    1   52 1   
     5    2    6 1   
     6    2    7 1   
     7    2   26 1   
     8    2   27 1   
     9    3    4 1   
    10    3    5 1   
    11    6   10 1   
    12    7   28 1   
    13    7   29 1   
    14    7   30 1   
    15    8    9 1   
    16    8   12 1   
    17    8   13 1   
    18    8   31 1   
    19    9   23 1   
    20    9   49 1   
    21   10   33 1   
    22   10   49 1   
    23   11   17 1   
    24   11   34 1   
    25   11   35 1   
    26   11   36 1   
    27   12   13 1   
    28   12   20 1   
    29   12   37 1   
    30   13   22 1   
    31   13   46 1   
    32   14   15 1   
    33   14   19 1   
    34   14   50 1   
    35   15   16 1   
    36   15   51 1   
    37   16   17 1   
    38   16   53 1   
    39   17   18 1   
    40   18   19 1   
    41   18   38 1   
    42   18   39 1   
    43   20   21 1   
    44   21   40 1   
    45   21   41 1   
    46   21   42 1   
    47   22   43 1   
    48   22   44 1   
    49   22   45 1   
    50   23   47 1   
    51   23   48 1   
    52   32   49 1   
@<TRIPOS>SUBSTRUCTURE
     1 MFD         1 TEMP              0 ****  ****    0 ROOT
