@<TRIPOS>MOLECULE
MFD
   53    52     1     0     0
SMALL
bcc


@<TRIPOS>ATOM
      1 N3          0.7950    1.2550   -0.3320 nh        1 MFD     -0.844600
      2 C2          1.5040   -1.0040   -0.8630 ce        1 MFD     -0.313400
      3 C1          0.7930   -1.0190   -2.1480 c         1 MFD      0.643300
      4 O1          0.0070   -1.8710   -2.5660 o         1 MFD     -0.494000
      5 OXT         0.9800    0.0130   -3.0340 oh        1 MFD     -0.600100
      6 C3          1.4420    0.0670   -0.0100 cf        1 MFD      0.192000
      7 CM2         2.2520   -2.2370   -0.5330 c3        1 MFD     -0.026900
      8 C7          3.8580    2.0790    3.7440 c2        1 MFD     -0.129200
      9 C6          3.4610    0.9390    3.1470 ce        1 MFD     -0.107200
     10 C4          2.1260   -0.0120    1.2910 cf        1 MFD     -0.172000
     11 C'          4.6360    3.5140    7.2180 c3        1 MFD     -0.068100
     12 C9          4.0890    3.4620    5.7880 c3        1 MFD      0.145100
     13 C8          4.5370    2.1780    5.0650 c3        1 MFD     -0.031500
     14 C4'         1.8860    5.1910   10.0510 ca        1 MFD     -0.131000
     15 C3'         1.5650    4.0120    9.3780 ca        1 MFD     -0.126500
     16 C2'         2.4550    3.4720    8.4520 ca        1 MFD     -0.130500
     17 C1'         3.6750    4.1070    8.1880 ca        1 MFD     -0.083300
     18 C6'         3.9910    5.2900    8.8680 ca        1 MFD     -0.130500
     19 C5'         3.1000    5.8270    9.7950 ca        1 MFD     -0.126500
     20 O9          4.5900    4.5610    5.0200 os        1 MFD     -0.423600
     21 CM9         3.9200    5.7830    5.2780 c3        1 MFD      0.112700
     22 CM8         6.0420    2.1360    4.8850 c3        1 MFD     -0.084100
     23 CM6         3.6710   -0.4090    3.7300 c3        1 MFD     -0.061900
     24 HN31        0.1100    1.2010   -1.0540 hn        1 MFD      0.410800
     25 HN32        0.5410    1.8280    0.4390 hn        1 MFD      0.410800
     26 H2          2.0190   -3.2660    2.6430 ha        1 MFD      0.001000
     27 H3          2.3810   -2.8500    3.0380 ha        1 MFD      0.001000
     28 HM21        1.8550   -2.7030    0.4060 hc        1 MFD      0.045033
     29 HM22        2.1590   -2.9870   -1.3570 hc        1 MFD      0.045033
     30 HM23        3.3360   -2.0090   -0.3760 hc        1 MFD      0.045033
     31 H7          3.6990    3.0540    3.2480 ha        1 MFD      0.137000
     32 H5          2.8410    1.9950    1.3530 ha        1 MFD      0.131000
     33 H4          2.0710   -1.0050    1.7720 ha        1 MFD      0.150000
     34 H'1         4.2210    1.3170    5.7230 hc        1 MFD      0.055700
     35 H'2         5.5950    4.0980    7.2110 hc        1 MFD      0.063700
     36 H9          4.8820    2.4710    7.5580 hc        1 MFD      0.063700
     37 H8          2.9630    3.4970    5.8050 h1        1 MFD      0.047700
     38 H6'         4.9480    5.7950    8.6710 ha        1 MFD      0.132000
     39 H5'         3.3570    6.7560   10.3260 ha        1 MFD      0.132000
     40 HM91        4.4590    6.5330    4.6470 h1        1 MFD      0.036033
     41 HM92        3.9930    6.0520    6.3620 h1        1 MFD      0.036033
     42 HM93        2.8460    5.7140    4.9740 h1        1 MFD      0.036033
     43 HM81        6.5490    2.1960    5.8780 hc        1 MFD      0.043367
     44 HM82        6.3430    1.1860    4.3810 hc        1 MFD      0.043367
     45 HM83        6.3790    3.0000    4.2630 hc        1 MFD      0.043367
     46 HM61        4.4520   -0.3950    4.5290 hc        1 MFD      0.045700
     47 HM62        2.7170   -0.7930    4.1710 hc        1 MFD      0.045700
     48 HM63        4.0040   -1.1290    2.9400 hc        1 MFD      0.045700
     49 C5          2.7810    1.0120    1.8580 ce        1 MFD     -0.084000
     50 H4'         1.1840    5.6160   10.7830 ha        1 MFD      0.133000
     51 H3'         0.6100    3.5060    9.5790 ha        1 MFD      0.132000
     52 H33         1.7200    0.5640   -2.7460 ho        1 MFD      0.432000
     53 H2'         2.2030    2.5390    7.9260 ha        1 MFD      0.132000
@<TRIPOS>BOND
     1    1    6 1   
     2    1   24 1   
     3    1   25 1   
     4    2    3 1   
     5    2    6 2   
     6    2    7 1   
     7    3    4 2   
     8    3    5 1   
     9    5   52 1   
    10    6   10 1   
    11    7   28 1   
    12    7   29 1   
    13    7   30 1   
    14    8    9 2   
    15    8   13 1   
    16    8   31 1   
    17    9   23 1   
    18    9   49 1   
    19   10   33 1   
    20   10   49 2   
    21   11   12 1   
    22   11   17 1   
    23   11   35 1   
    24   11   36 1   
    25   12   13 1   
    26   12   20 1   
    27   12   37 1   
    28   13   22 1   
    29   13   34 1   
    30   14   15 ar  
    31   14   19 ar  
    32   14   50 1   
    33   15   16 ar  
    34   15   51 1   
    35   16   17 ar  
    36   16   53 1   
    37   17   18 ar  
    38   18   19 ar  
    39   18   38 1   
    40   19   39 1   
    41   20   21 1   
    42   21   40 1   
    43   21   41 1   
    44   21   42 1   
    45   22   43 1   
    46   22   44 1   
    47   22   45 1   
    48   23   46 1   
    49   23   47 1   
    50   23   48 1   
    51   26   27 1   
    52   32   49 1   
@<TRIPOS>SUBSTRUCTURE
     1 MFD         1 TEMP              0 ****  ****    0 ROOT
