@<TRIPOS>MOLECULE
MFG
   25    25     1     0     0
SMALL
bcc


@<TRIPOS>ATOM
      1 F1         51.9160  157.1110   29.0160 f         1 MFG     -0.141900
      2 C2         52.1290  156.1600   28.0750 ca        1 MFG      0.121900
      3 C3         51.8820  154.8080   28.3750 ca        1 MFG     -0.163000
      4 C4         52.1040  153.8390   27.4010 ca        1 MFG     -0.103500
      5 C5         52.5680  154.1940   26.1300 ca        1 MFG     -0.094300
      6 C6         52.7950  153.1550   25.0890 c3        1 MFG     -0.034100
      7 C7         54.2780  152.9040   24.8650 c3        1 MFG     -0.041200
      8 C8         54.5080  151.8690   23.8150 ce        1 MFG     -0.205800
      9 C9         54.1310  150.4960   24.2030 ce        1 MFG      0.474500
     10 N10        54.0330  149.5260   23.3710 n2        1 MFG     -0.765100
     11 C13        52.8090  155.5430   25.8400 ca        1 MFG     -0.103500
     12 C14        52.5940  156.5270   26.7990 ca        1 MFG     -0.163000
     13 CAA        55.0400  152.1720   22.6250 c2        1 MFG     -0.157000
     14 H3         51.5160  154.5290   29.3740 ha        1 MFG      0.148500
     15 H14        52.7830  157.5860   26.5720 ha        1 MFG      0.148500
     16 H4         51.9080  152.7820   27.6370 ha        1 MFG      0.137000
     17 H6C1       52.2960  152.1940   25.3860 hc        1 MFG      0.053200
     18 H6C2       52.3250  153.4870   24.1230 hc        1 MFG      0.053200
     19 H13        53.1710  155.8270   24.8400 ha        1 MFG      0.137000
     20 H7C1       54.7730  153.8680   24.5710 hc        1 MFG      0.051700
     21 H7C2       54.7490  152.5690   25.8280 hc        1 MFG      0.051700
     22 H9         53.9390  150.3960   25.2970 h4        1 MFG     -0.040200
     23 HAA        55.3260  153.2000   22.3620 ha        1 MFG      0.124000
     24 H10        53.7720  148.6490   23.7720 hn        1 MFG      0.385400
     25 HAB        55.2240  151.4200   21.8470 ha        1 MFG      0.124000
@<TRIPOS>BOND
     1    1    2 1   
     2    2    3 ar  
     3    2   12 ar  
     4    3    4 ar  
     5    3   14 1   
     6    4    5 ar  
     7    4   16 1   
     8    5    6 1   
     9    5   11 ar  
    10    6    7 1   
    11    6   17 1   
    12    6   18 1   
    13    7    8 1   
    14    7   20 1   
    15    7   21 1   
    16    8    9 1   
    17    8   13 2   
    18    9   10 2   
    19    9   22 1   
    20   10   24 1   
    21   11   12 ar  
    22   11   19 1   
    23   12   15 1   
    24   13   23 1   
    25   13   25 1   
@<TRIPOS>SUBSTRUCTURE
     1 MFG         1 TEMP              0 ****  ****    0 ROOT
