@<TRIPOS>MOLECULE
MFG
   25    21     1     0     0
SMALL
bcc


@<TRIPOS>ATOM
      1 F1         -5.2070    0.8390   -0.0930 f         1 MFG     -0.106000
      2 C2         -3.8700    0.7610   -0.0940 c2        1 MFG      0.088000
      3 C3         -3.1740    0.7990    1.1040 c2        1 MFG     -0.163000
      4 C4         -1.7880    0.7610    1.1020 c1        1 MFG     -0.104000
      5 C5         -1.0990    0.6840   -0.0980 c1        1 MFG     -0.088000
      6 C6          0.4140    0.7210   -0.1040 c3        1 MFG     -0.118000
      7 C7          0.9520   -0.6030    0.3920 c3        1 MFG     -0.123000
      8 C8          2.4400   -0.6720    0.1310 c2        1 MFG     -0.140000
      9 C9          2.9770   -1.5800   -0.9520 c2        1 MFG     -0.034000
     10 N10         3.5350   -2.7210   -0.6340 n1        1 MFG     -0.221000
     11 C13        -1.7950    0.6460   -1.2960 c1        1 MFG     -0.102000
     12 C14        -3.1810    0.6840   -1.2930 c1        1 MFG     -0.163000
     13 CAA         3.2880    0.0760    0.8650 c1        1 MFG     -0.188000
     14 H3         -3.6590    0.8540    1.9490 ha        1 MFG      0.149000
     15 H14        -3.6710    0.6570   -2.1370 ha        1 MFG      0.149000
     16 H4         -1.2980    0.7890    1.9460 ha        1 MFG      0.137000
     17 H6C1        0.7320    0.8810   -1.0150 hc        1 MFG      0.092000
     18 H6C2        0.7250    1.4390    0.4810 hc        1 MFG      0.092000
     19 H13        -1.3100    0.5920   -2.1410 ha        1 MFG      0.138000
     20 H7C1        0.5040   -1.3340   -0.0790 hc        1 MFG      0.094000
     21 H7C2        0.7850   -0.6840    1.3520 hc        1 MFG      0.094000
     22 H9          2.9080   -1.3150   -1.8910 h4        1 MFG      0.145000
     23 HAA         2.9410    0.6640    1.5650 DU        1 MFG      0.128000
     24 H10         3.5990   -2.9680    0.2430 DU        1 MFG      0.128000
     25 HAB         4.2500    0.0320    0.6960 ha        1 MFG      0.116000
@<TRIPOS>BOND
     1    1    2 1   
     2    2    3 1   
     3    2   12 1   
     4    3    4 1   
     5    3   14 1   
     6    4   16 1   
     7    5    6 1   
     8    5   11 1   
     9    6    7 1   
    10    6   17 1   
    11    6   18 1   
    12    7    8 1   
    13    7   20 1   
    14    7   21 1   
    15    8    9 1   
    16    8   13 1   
    17    9   10 1   
    18    9   22 1   
    19   11   19 1   
    20   12   15 1   
    21   13   25 1   
@<TRIPOS>SUBSTRUCTURE
     1 MFG         1 TEMP              0 ****  ****    0 ROOT
