@<TRIPOS>MOLECULE
MFG
   25    25     1     0     0
SMALL
bcc


@<TRIPOS>ATOM
      1 F1          0.0130    0.1620   -0.7490 f         1 MFG     -0.140900
      2 C2          1.3160    0.1100   -0.3790 ca        1 MFG      0.122900
      3 C3          1.6650    0.2350    0.9780 ca        1 MFG     -0.163000
      4 C4          3.0060    0.1810    1.3460 ca        1 MFG     -0.103000
      5 C5          4.0070    0.0040    0.3850 ca        1 MFG     -0.095300
      6 C6          5.4380   -0.0620    0.7860 c3        1 MFG     -0.034100
      7 C7          6.1810    1.2100    0.4110 c3        1 MFG     -0.038200
      8 C8          7.6120    1.1530    0.8260 ce        1 MFG     -0.231800
      9 C9          7.8460    1.1280    2.2840 ce        1 MFG      0.469500
     10 N10         8.8610    0.7130    2.9380 n2        1 MFG     -0.754100
     11 C13         3.6480   -0.1200   -0.9630 ca        1 MFG     -0.103000
     12 C14         2.3150   -0.0690   -1.3540 ca        1 MFG     -0.163000
     13 CAA         8.6110    1.1570   -0.0620 c2        1 MFG     -0.188000
     14 H3          0.8780    0.3720    1.7330 ha        1 MFG      0.149000
     15 H14         2.0320   -0.1670   -2.4120 ha        1 MFG      0.149000
     16 H4          3.2780    0.2760    2.4090 ha        1 MFG      0.137500
     17 H6C1        5.5230   -0.2280    1.8940 hc        1 MFG      0.054700
     18 H6C2        5.9250   -0.9400    0.2810 hc        1 MFG      0.054700
     19 H13         4.4320   -0.2630   -1.7230 ha        1 MFG      0.137500
     20 H7C1        6.1030    1.3690   -0.6980 hc        1 MFG      0.054200
     21 H7C2        5.6900    2.0900    0.9070 hc        1 MFG      0.054200
     22 H9          7.0010    1.5300    2.8860 h4        1 MFG      0.016800
     23 HAA         8.4330    1.1930   -1.1450 ha        1 MFG      0.118500
     24 H10         9.6220    0.3470    2.4030 hn        1 MFG      0.379400
     25 HAB         9.6700    1.1370    0.2300 ha        1 MFG      0.118500
@<TRIPOS>BOND
     1    1    2 1   
     2    2    3 ar  
     3    2   12 ar  
     4    3    4 ar  
     5    3   14 1   
     6    4    5 ar  
     7    4   16 1   
     8    5    6 1   
     9    5   11 ar  
    10    6    7 1   
    11    6   17 1   
    12    6   18 1   
    13    7    8 1   
    14    7   20 1   
    15    7   21 1   
    16    8    9 1   
    17    8   13 2   
    18    9   10 2   
    19    9   22 1   
    20   10   24 1   
    21   11   12 ar  
    22   11   19 1   
    23   12   15 1   
    24   13   23 1   
    25   13   25 1   
@<TRIPOS>SUBSTRUCTURE
     1 MFG         1 TEMP              0 ****  ****    0 ROOT
