@<TRIPOS>MOLECULE
MFG
   25    25     1     0     0
SMALL
bcc


@<TRIPOS>ATOM
      1 F1          0.0350    0.0600   -0.8050 f         1 MFG     -0.140900
      2 C2          1.3340    0.0350   -0.4200 ca        1 MFG      0.122900
      3 C3          1.6660    0.1750    0.9400 ca        1 MFG     -0.163000
      4 C4          3.0030    0.1480    1.3240 ca        1 MFG     -0.103000
      5 C5          4.0180   -0.0180    0.3750 ca        1 MFG     -0.095300
      6 C6          5.4460   -0.0560    0.7930 c3        1 MFG     -0.034100
      7 C7          6.1690    1.2280    0.4180 c3        1 MFG     -0.038200
      8 C8          7.5960    1.1990    0.8500 ce        1 MFG     -0.231800
      9 C9          7.8140    1.1870    2.3100 ce        1 MFG      0.469500
     10 N10         8.8290    0.7950    2.9780 n2        1 MFG     -0.754100
     11 C13         3.6770   -0.1590   -0.9760 ca        1 MFG     -0.103000
     12 C14         2.3470   -0.1340   -1.3820 ca        1 MFG     -0.163000
     13 CAA         8.6050    1.2170   -0.0280 c2        1 MFG     -0.188000
     14 H3          0.8680    0.3040    1.6850 ha        1 MFG      0.149000
     15 H14         2.0790   -0.2450   -2.4420 ha        1 MFG      0.149000
     16 H4          3.2610    0.2550    2.3890 ha        1 MFG      0.137500
     17 H6C1        5.5200   -0.2130    1.9030 hc        1 MFG      0.054700
     18 H6C2        5.9540   -0.9270    0.2990 hc        1 MFG      0.054700
     19 H13         4.4720   -0.2920   -1.7260 ha        1 MFG      0.137500
     20 H7C1        6.1010    1.3780   -0.6930 hc        1 MFG      0.054200
     21 H7C2        5.6570    2.1020    0.9040 hc        1 MFG      0.054200
     22 H9          6.9550    1.5770    2.9000 h4        1 MFG      0.016800
     23 HAA         8.4380    1.2440   -1.1130 ha        1 MFG      0.118500
     24 H10         9.6020    0.4390    2.4530 hn        1 MFG      0.379400
     25 HAB         9.6610    1.2180    0.2770 ha        1 MFG      0.118500
@<TRIPOS>BOND
     1    1    2 1   
     2    2    3 ar  
     3    2   12 ar  
     4    3    4 ar  
     5    3   14 1   
     6    4    5 ar  
     7    4   16 1   
     8    5    6 1   
     9    5   11 ar  
    10    6    7 1   
    11    6   17 1   
    12    6   18 1   
    13    7    8 1   
    14    7   20 1   
    15    7   21 1   
    16    8    9 1   
    17    8   13 2   
    18    9   10 2   
    19    9   22 1   
    20   10   24 1   
    21   11   12 ar  
    22   11   19 1   
    23   12   15 1   
    24   13   23 1   
    25   13   25 1   
@<TRIPOS>SUBSTRUCTURE
     1 MFG         1 TEMP              0 ****  ****    0 ROOT
