@<TRIPOS>MOLECULE
MFG
   25    25     1     0     0
SMALL
bcc


@<TRIPOS>ATOM
      1 F1         -0.0010    0.1130   -0.6740 f         1 MFG     -0.140900
      2 C2          1.3060    0.0740   -0.3220 ca        1 MFG      0.122900
      3 C3          1.6730    0.2160    1.0290 ca        1 MFG     -0.163000
      4 C4          3.0190    0.1750    1.3800 ca        1 MFG     -0.103000
      5 C5          4.0080   -0.0050    0.4070 ca        1 MFG     -0.095300
      6 C6          5.4460   -0.0580    0.7900 c3        1 MFG     -0.034100
      7 C7          6.1750    1.2140    0.3870 c3        1 MFG     -0.038200
      8 C8          7.6110    1.1720    0.7840 ce        1 MFG     -0.231800
      9 C9          7.8650    1.1700    2.2390 ce        1 MFG      0.469500
     10 N10         8.8910    0.7710    2.8860 n2        1 MFG     -0.754100
     11 C13         3.6320   -0.1470   -0.9350 ca        1 MFG     -0.103000
     12 C14         2.2940   -0.1090   -1.3080 ca        1 MFG     -0.163000
     13 CAA         8.5990    1.1690   -0.1170 c2        1 MFG     -0.188000
     14 H3          0.8960    0.3570    1.7930 ha        1 MFG      0.149000
     15 H14         1.9980   -0.2210   -2.3610 ha        1 MFG      0.149000
     16 H4          3.3050    0.2840    2.4380 ha        1 MFG      0.137500
     17 H6C1        5.5460   -0.2080    1.8980 hc        1 MFG      0.054700
     18 H6C2        5.9310   -0.9390    0.2900 hc        1 MFG      0.054700
     19 H13         4.4070   -0.2930   -1.7030 ha        1 MFG      0.137500
     20 H7C1        5.6850    2.0980    0.8780 hc        1 MFG      0.054200
     21 H7C2        6.0820    1.3570   -0.7230 hc        1 MFG      0.054200
     22 H9          7.0250    1.5750    2.8460 h4        1 MFG      0.016800
     23 HAA         8.4060    1.1880   -1.1980 ha        1 MFG      0.118500
     24 H10         9.6470    0.4010    2.3460 hn        1 MFG      0.379400
     25 HAB         9.6620    1.1590    0.1620 ha        1 MFG      0.118500
@<TRIPOS>BOND
     1    1    2 1   
     2    2    3 ar  
     3    2   12 ar  
     4    3    4 ar  
     5    3   14 1   
     6    4    5 ar  
     7    4   16 1   
     8    5    6 1   
     9    5   11 ar  
    10    6    7 1   
    11    6   17 1   
    12    6   18 1   
    13    7    8 1   
    14    7   20 1   
    15    7   21 1   
    16    8    9 1   
    17    8   13 2   
    18    9   10 2   
    19    9   22 1   
    20   10   24 1   
    21   11   12 ar  
    22   11   19 1   
    23   12   15 1   
    24   13   23 1   
    25   13   25 1   
@<TRIPOS>SUBSTRUCTURE
     1 MFG         1 TEMP              0 ****  ****    0 ROOT
