@<TRIPOS>MOLECULE
MFM
   36    38     1     0     0
SMALL
bcc


@<TRIPOS>ATOM
      1 C4         -0.0850    0.2360    0.1880 ca        1 MFM     -0.093500
      2 C3          1.3040    0.3190    0.1180 ca        1 MFM     -0.131000
      3 C2          2.0610    0.2130    1.2880 ca        1 MFM      0.024400
      4 Cl1         3.7580    0.3150    1.2120 cl        1 MFM     -0.103400
      5 C1          1.4390    0.0220    2.5270 ca        1 MFM     -0.131000
      6 C6          0.0520   -0.0620    2.5930 ca        1 MFM     -0.093500
      7 C5         -0.7210    0.0440    1.4260 ca        1 MFM     -0.139500
      8 C7         -2.1580   -0.0460    1.5070 cc        1 MFM      0.327200
      9 O1         -2.8650    0.0780    0.3080 os        1 MFM     -0.293800
     10 C8         -3.0440   -0.2400    2.5630 cd        1 MFM     -0.270300
     11 C9         -4.3640   -0.2410    2.0020 cd        1 MFM     -0.236300
     12 C10        -4.2210   -0.0450    0.6290 cc        1 MFM      0.278500
     13 C11        -5.2090    0.0320   -0.4000 ce        1 MFM     -0.131800
     14 C12        -5.0590    0.2590   -1.7160 cd        1 MFM     -0.103600
     15 C14        -3.7830    0.5080   -2.4540 c         1 MFM      0.693700
     16 O2         -2.6560    0.5840   -1.9570 o         1 MFM     -0.538500
     17 S1         -6.3500    0.3060   -2.8230 ss        1 MFM     -0.160200
     18 C13        -5.3300    0.6120   -4.2380 c         1 MFM      0.398000
     19 S2         -6.0440    0.7640   -5.6030 s         1 MFM     -0.328400
     20 N1         -4.0140    0.6920   -3.8490 n         1 MFM     -0.421400
     21 C15        -2.9000    0.8370   -4.7820 c3        1 MFM      0.097000
     22 C16        -2.2350   -0.4620   -5.1960 c3        1 MFM     -0.226400
     23 C17        -0.9800   -0.1550   -6.0480 c         1 MFM      0.920600
     24 O4         -0.5610    1.0360   -6.0930 o         1 MFM     -0.837300
     25 O3         -0.4440   -1.1300   -6.6410 o         1 MFM     -0.837300
     26 H4         -0.6940    0.3210   -0.7330 ha        1 MFM      0.162500
     27 H3          1.7940    0.4660   -0.8580 ha        1 MFM      0.152500
     28 H1          2.0400   -0.0610    3.4440 ha        1 MFM      0.152500
     29 H6         -0.4410   -0.2120    3.5650 ha        1 MFM      0.162500
     30 H8         -2.7960   -0.3700    3.6120 ha        1 MFM      0.156000
     31 H9         -5.2930   -0.3700    2.5490 ha        1 MFM      0.155000
     32 H11        -6.2360   -0.1260   -0.0090 ha        1 MFM      0.142000
     33 H151       -2.1290    1.4930   -4.2820 h1        1 MFM      0.090200
     34 H152       -3.2850    1.3690   -5.6980 h1        1 MFM      0.090200
     35 H161       -1.9040   -1.0460   -4.3010 hc        1 MFM      0.038700
     36 H162       -2.9270   -1.1010   -5.7960 hc        1 MFM      0.038700
@<TRIPOS>BOND
     1    1    2 ar  
     2    1    7 ar  
     3    1   26 1   
     4    2    3 ar  
     5    2   27 1   
     6    3    4 1   
     7    3    5 ar  
     8    5    6 ar  
     9    5   28 1   
    10    6    7 ar  
    11    6   29 1   
    12    7    8 1   
    13    8    9 1   
    14    8   10 2   
    15    9   12 1   
    16   10   11 1   
    17   10   30 1   
    18   11   12 2   
    19   11   31 1   
    20   12   13 1   
    21   13   14 2   
    22   13   32 1   
    23   14   15 1   
    24   14   17 1   
    25   15   16 2   
    26   15   20 1   
    27   17   18 1   
    28   18   19 2   
    29   18   20 1   
    30   20   21 1   
    31   21   22 1   
    32   21   33 1   
    33   21   34 1   
    34   22   23 1   
    35   22   35 1   
    36   22   36 1   
    37   23   24 1   
    38   23   25 1   
@<TRIPOS>SUBSTRUCTURE
     1 MFM         1 TEMP              0 ****  ****    0 ROOT
