@<TRIPOS>MOLECULE
MFM
   36    38     1     0     0
SMALL
bcc


@<TRIPOS>ATOM
      1 C4         -0.0860    0.2280    0.1900 ca        1 MFM     -0.093500
      2 C3          1.3030    0.3070    0.1210 ca        1 MFM     -0.131000
      3 C2          2.0590    0.1970    1.2920 ca        1 MFM      0.024400
      4 CL1         3.7570    0.2950    1.2170 cl        1 MFM     -0.103400
      5 C1          1.4350    0.0070    2.5300 ca        1 MFM     -0.131000
      6 C6          0.0480   -0.0730    2.5940 ca        1 MFM     -0.093500
      7 C5         -0.7230    0.0370    1.4270 ca        1 MFM     -0.139500
      8 C7         -2.1600   -0.0500    1.5070 cc        1 MFM      0.327200
      9 O1         -2.8670    0.0780    0.3080 os        1 MFM     -0.293800
     10 C8         -3.0490   -0.2430    2.5620 cd        1 MFM     -0.270300
     11 C9         -4.3680   -0.2390    1.9990 cd        1 MFM     -0.236300
     12 C10        -4.2230   -0.0410    0.6270 cc        1 MFM      0.278500
     13 C11        -5.2100    0.0400   -0.4020 ce        1 MFM     -0.131800
     14 C12        -5.0580    0.2690   -1.7180 cd        1 MFM     -0.103600
     15 C14        -3.7810    0.5150   -2.4550 c         1 MFM      0.693700
     16 O2         -2.6550    0.5860   -1.9560 o         1 MFM     -0.538500
     17 S1         -6.3480    0.3210   -2.8260 ss        1 MFM     -0.160200
     18 C13        -5.3270    0.6250   -4.2400 c         1 MFM      0.398000
     19 S2         -6.0380    0.7820   -5.6050 s         1 MFM     -0.328400
     20 N1         -4.0110    0.7010   -3.8500 n         1 MFM     -0.421400
     21 C15        -2.8950    0.8440   -4.7820 c3        1 MFM      0.097000
     22 C16        -2.2330   -0.4570   -5.1970 c3        1 MFM     -0.226400
     23 C17        -0.9760   -0.1510   -6.0470 c         1 MFM      0.920600
     24 O4         -0.5550    1.0390   -6.0920 o         1 MFM     -0.837300
     25 O3         -0.4420   -1.1280   -6.6390 o         1 MFM     -0.837300
     26 H4         -0.6940    0.3150   -0.7320 ha        1 MFM      0.162500
     27 H3          1.7940    0.4530   -0.8550 ha        1 MFM      0.152500
     28 H1          2.0350   -0.0790    3.4470 ha        1 MFM      0.152500
     29 H6         -0.4460   -0.2230    3.5660 ha        1 MFM      0.162500
     30 H8         -2.8010   -0.3750    3.6100 ha        1 MFM      0.156000
     31 H9         -5.2980   -0.3660    2.5450 ha        1 MFM      0.155000
     32 H11        -6.2370   -0.1150   -0.0130 ha        1 MFM      0.142000
     33 H151       -2.1230    1.4980   -4.2800 h1        1 MFM      0.090200
     34 H152       -3.2780    1.3780   -5.6970 h1        1 MFM      0.090200
     35 H161       -1.9040   -1.0420   -4.3020 hc        1 MFM      0.038700
     36 H162       -2.9260   -1.0920   -5.7980 hc        1 MFM      0.038700
@<TRIPOS>BOND
     1    1    2 ar  
     2    1    7 ar  
     3    1   26 1   
     4    2    3 ar  
     5    2   27 1   
     6    3    4 1   
     7    3    5 ar  
     8    5    6 ar  
     9    5   28 1   
    10    6    7 ar  
    11    6   29 1   
    12    7    8 1   
    13    8    9 1   
    14    8   10 2   
    15    9   12 1   
    16   10   11 1   
    17   10   30 1   
    18   11   12 2   
    19   11   31 1   
    20   12   13 1   
    21   13   14 2   
    22   13   32 1   
    23   14   15 1   
    24   14   17 1   
    25   15   16 2   
    26   15   20 1   
    27   17   18 1   
    28   18   19 2   
    29   18   20 1   
    30   20   21 1   
    31   21   22 1   
    32   21   33 1   
    33   21   34 1   
    34   22   23 1   
    35   22   35 1   
    36   22   36 1   
    37   23   24 1   
    38   23   25 1   
@<TRIPOS>SUBSTRUCTURE
     1 MFM         1 TEMP              0 ****  ****    0 ROOT
