@<TRIPOS>MOLECULE
MFM
   36    38     1     0     0
SMALL
bcc


@<TRIPOS>ATOM
      1 C4          2.8110   -0.1120   -0.1740 ca        1 MFM     -0.093500
      2 C3          3.7650   -1.1220   -0.2660 ca        1 MFM     -0.131000
      3 C2          5.1240   -0.7960   -0.2070 ca        1 MFM      0.024400
      4 CL1         6.2960   -2.0250   -0.3210 cl        1 MFM     -0.103400
      5 C1          5.5330    0.5330   -0.0560 ca        1 MFM     -0.131000
      6 C6          4.5770    1.5390    0.0380 ca        1 MFM     -0.093500
      7 C5          3.2100    1.2260   -0.0210 ca        1 MFM     -0.139500
      8 C7          2.2290    2.2780    0.0790 cc        1 MFM      0.327200
      9 O1          0.8870    1.8970    0.0030 os        1 MFM     -0.293800
     10 C8          2.3210    3.6580    0.2430 cd        1 MFM     -0.270300
     11 C9          0.9790    4.1620    0.2740 cd        1 MFM     -0.236300
     12 C10         0.1300    3.0670    0.1250 cc        1 MFM      0.278500
     13 C11        -1.2960    3.0030    0.0920 ce        1 MFM     -0.131800
     14 C12        -2.1020    1.9430   -0.0900 cd        1 MFM     -0.103600
     15 C14        -1.6950    0.5230   -0.3230 c         1 MFM      0.693700
     16 O2         -0.5390    0.1040   -0.4250 o         1 MFM     -0.538500
     17 S1         -3.8010    2.0310   -0.0880 ss        1 MFM     -0.160200
     18 C13        -4.0480    0.2980   -0.3520 c         1 MFM      0.398000
     19 S2         -5.5100   -0.2000   -0.4500 s         1 MFM     -0.328400
     20 N1         -2.8300   -0.3300   -0.4560 n         1 MFM     -0.421400
     21 C15        -2.6700   -1.7770   -0.5770 c3        1 MFM      0.097000
     22 C16        -2.4350   -2.5100    0.7300 c3        1 MFM     -0.226400
     23 C17        -2.1230   -3.9980    0.4420 c         1 MFM      0.920600
     24 O4         -1.8890   -4.3440   -0.7500 o         1 MFM     -0.837300
     25 O3         -2.1130   -4.7770    1.4340 o         1 MFM     -0.837300
     26 H4          1.7330   -0.3600   -0.2210 ha        1 MFM      0.162500
     27 H3          3.4430   -2.1690   -0.3820 ha        1 MFM      0.152500
     28 H1          6.6030    0.7840   -0.0090 ha        1 MFM      0.152500
     29 H6          4.8950    2.5860    0.1580 ha        1 MFM      0.162500
     30 H8          3.2280    4.2470    0.3340 ha        1 MFM      0.156000
     31 H9          0.6880    5.2020    0.3920 ha        1 MFM      0.155000
     32 H11        -1.7650    3.9970    0.2440 ha        1 MFM      0.142000
     33 H151       -3.5960   -2.1840   -1.0740 h1        1 MFM      0.090200
     34 H152       -1.7880   -1.9600   -1.2580 h1        1 MFM      0.090200
     35 H161       -1.5610   -2.0790    1.2780 hc        1 MFM      0.038700
     36 H162       -3.3300   -2.4540    1.3950 hc        1 MFM      0.038700
@<TRIPOS>BOND
     1    1    2 ar  
     2    1    7 ar  
     3    1   26 1   
     4    2    3 ar  
     5    2   27 1   
     6    3    4 1   
     7    3    5 ar  
     8    5    6 ar  
     9    5   28 1   
    10    6    7 ar  
    11    6   29 1   
    12    7    8 1   
    13    8    9 1   
    14    8   10 2   
    15    9   12 1   
    16   10   11 1   
    17   10   30 1   
    18   11   12 2   
    19   11   31 1   
    20   12   13 1   
    21   13   14 2   
    22   13   32 1   
    23   14   15 1   
    24   14   17 1   
    25   15   16 2   
    26   15   20 1   
    27   17   18 1   
    28   18   19 2   
    29   18   20 1   
    30   20   21 1   
    31   21   22 1   
    32   21   33 1   
    33   21   34 1   
    34   22   23 1   
    35   22   35 1   
    36   22   36 1   
    37   23   24 1   
    38   23   25 1   
@<TRIPOS>SUBSTRUCTURE
     1 MFM         1 TEMP              0 ****  ****    0 ROOT
