@<TRIPOS>MOLECULE
MFP
   61    62     1     0     0
SMALL
bcc


@<TRIPOS>ATOM
      1 C22        -0.5820   -2.0430    1.3710 ca        1 MFP     -0.137500
      2 C1          2.7690    1.8820   -0.2990 c2        1 MFP      0.025000
      3 C5          3.2450    0.1640    1.1610 c2        1 MFP      0.199000
      4 C4          4.6360    0.4010    0.9500 c2        1 MFP     -0.341000
      5 C3          5.0120    1.4430    0.0530 c2        1 MFP      0.213000
      6 C11         7.5330    4.3130   -3.3360 ca        1 MFP     -0.048000
      7 C10         7.0100    3.0470   -3.6190 ca        1 MFP     -0.103000
      8 C9          6.6140    2.1870   -2.5930 ca        1 MFP     -0.153000
      9 C8          6.7370    2.5980   -1.2470 ca        1 MFP      0.049000
     10 C12         7.6520    4.7180   -2.0030 ca        1 MFP     -0.117000
     11 C16         7.4040    0.9860    0.4700 c3        1 MFP      0.075000
     12 C13         7.2590    3.8770   -0.9680 ca        1 MFP     -0.107000
     13 C20         1.5830   -1.3390    2.2300 ca        1 MFP      0.091000
     14 N2          4.0430    2.1990   -0.5870 n2        1 MFP     -0.212000
     15 N6          2.2870    0.9260    0.5350 n2        1 MFP     -0.307000
     16 N7          6.3570    1.7630   -0.1510 nh        1 MFP     -0.222000
     17 N18         7.6570   -1.5080   -0.3020 n1        1 MFP     -0.000000
     18 N19         2.8860   -0.8660    2.0340 nu        1 MFP     -0.282000
     19 C21         0.7000   -1.5560    1.1470 ca        1 MFP     -0.148500
     20 C23        -1.0070   -2.3060    2.6800 ca        1 MFP     -0.004000
     21 C24        -0.1320   -2.1480    3.7610 ca        1 MFP     -0.137500
     22 C25         1.1530   -1.6680    3.5390 ca        1 MFP     -0.148500
     23 O26        -2.3470   -2.6170    2.8860 os        1 MFP     -0.289000
     24 C27        -2.5770   -3.9750    3.2760 c3        1 MFP     -0.070000
     25 C28        -4.2210    0.1670    1.8210 c1        1 MFP      0.035000
     26 C29        -2.8050    0.5880    2.1530 c3        1 MFP     -0.279000
     27 N30        -2.3520    1.6250    1.1760 nx        1 MFP      0.031000
     28 C31        -3.0930    2.8980    1.3740 c3        1 MFP     -0.196000
     29 C32        -0.8830    1.8260    1.2680 c3        1 MFP     -0.196000
     30 O33        -4.7200   -0.8830    2.3480 oh        1 MFP     -0.103000
     31 H22        -1.2560   -2.2460    0.5260 ha        1 MFP      0.152000
     32 H1          2.0020    2.4920   -0.8240 h5        1 MFP      0.178000
     33 H4          5.3870   -0.2280    1.4410 ha        1 MFP      0.161000
     34 H10         6.9140    2.7280   -4.6700 ha        1 MFP      0.157000
     35 H12         8.0590    5.7140   -1.7680 ha        1 MFP      0.147000
     36 H161        8.3880    1.5090    0.2700 h1        1 MFP      0.133500
     37 H162        7.2270    0.9800    1.5890 h1        1 MFP      0.133500
     38 H13         7.3540    4.2200    0.0740 ha        1 MFP      0.146000
     39 H151        9.0260    4.9730   -4.7160 hc        1 MFP      0.094333
     40 H152        7.3270    5.0570   -5.3440 hc        1 MFP      0.094333
     41 H153        7.9080    6.2770   -4.1320 hc        1 MFP      0.094333
     42 H19         3.5890   -1.1850    2.6630 hn        1 MFP      0.254000
     43 H21         1.0300   -1.3660    0.1130 ha        1 MFP      0.158500
     44 H24        -0.4630   -2.4010    4.7800 ha        1 MFP      0.152000
     45 H25         1.8360   -1.5520    4.3960 ha        1 MFP      0.158500
     46 H271       -2.0380   -4.1980    4.2290 h1        1 MFP      0.093667
     47 H272       -2.2450   -4.6670    2.4660 h1        1 MFP      0.093667
     48 H28        -3.6850   -4.0260    3.4190 h1        1 MFP      0.093667
     49 H291       -2.0840   -0.2850    2.1060 hx        1 MFP      0.165000
     50 H292       -2.7640    1.0240    3.1920 hx        1 MFP      0.165000
     51 H311       -2.8040    3.6210    0.5660 hx        1 MFP      0.147833
     52 H312       -4.1970    2.6860    1.3230 hx        1 MFP      0.147833
     53 H313       -2.8360    3.3320    2.3760 hx        1 MFP      0.147833
     54 H321       -0.3540    0.8460    1.0860 hx        1 MFP      0.147833
     55 H322       -0.5640    2.5710    0.4920 hx        1 MFP      0.147833
     56 H323       -0.6190    2.2080    2.2880 hx        1 MFP      0.147833
     57 H33        -4.1470   -1.4170    2.9500 ho        1 MFP      0.223000
     58 C15         7.9660    5.2030   -4.4380 c3        1 MFP     -0.188000
     59 C17         7.5290   -0.4010    0.0270 c1        1 MFP     -0.188000
     60 H301       -2.5800    1.2750    0.2340 hn        1 MFP      0.254000
     61 Br          5.9380    0.5000   -3.0530 br        1 MFP      0.070000
@<TRIPOS>BOND
     1    1   19 1   
     2    1   20 1   
     3    1   31 1   
     4    2   14 1   
     5    2   15 1   
     6    2   32 1   
     7    3    4 1   
     8    3   15 1   
     9    3   18 1   
    10    4    5 1   
    11    4   33 1   
    12    5   14 1   
    13    5   16 1   
    14    6    7 1   
    15    6   10 1   
    16    6   58 1   
    17    7    8 1   
    18    7   34 1   
    19    8    9 1   
    20    8   61 1   
    21    9   12 1   
    22    9   16 1   
    23   10   12 1   
    24   10   35 1   
    25   11   16 1   
    26   11   36 1   
    27   11   37 1   
    28   11   59 1   
    29   12   38 1   
    30   13   18 1   
    31   13   19 1   
    32   13   22 1   
    33   17   59 1   
    34   18   42 1   
    35   19   43 1   
    36   20   21 1   
    37   20   23 1   
    38   21   22 1   
    39   21   44 1   
    40   22   45 1   
    41   23   24 1   
    42   24   46 1   
    43   24   47 1   
    44   24   48 1   
    45   25   26 1   
    46   25   30 1   
    47   26   27 1   
    48   26   49 1   
    49   26   50 1   
    50   27   28 1   
    51   27   29 1   
    52   27   60 1   
    53   28   51 1   
    54   28   52 1   
    55   28   53 1   
    56   29   54 1   
    57   29   55 1   
    58   29   56 1   
    59   30   57 1   
    60   39   58 1   
    61   40   58 1   
    62   41   58 1   
@<TRIPOS>SUBSTRUCTURE
     1 MFP         1 TEMP              0 ****  ****    0 ROOT
