@<TRIPOS>MOLECULE
MFP
   63    62     1     0     0
SMALL
bcc


@<TRIPOS>ATOM
      1 C22       129.0490 -226.8330    2.7520 c2        1 MFP     -0.246000
      2 C1        132.2920 -228.9780    0.3790 c2        1 MFP      0.006000
      3 C5        130.2760 -228.5570   -0.6750 c2        1 MFP      0.094000
      4 C4        130.8820 -228.8740   -1.9240 c2        1 MFP     -0.245000
      5 C3        132.2430 -229.2300   -1.9000 c2        1 MFP      0.001000
      6 C11      1372.9890  327.9240 -787.9090 ca        1 MFP      0.222000
      7 C10      1372.4310  328.8820 -788.7980 ca        1 MFP     -0.190000
      8 C9       1371.0870  329.1600 -788.8140 ca        1 MFP     -0.059000
      9 C8       1370.1930  328.5540 -787.8070 ca        1 MFP     -0.040000
     10 C12      1372.1180  327.1590 -787.0940 ca        1 MFP     -0.219000
     11 C16      1368.1610  329.9760 -787.7800 c3        1 MFP     -0.027000
     12 C13      1370.7780  327.4150 -787.0620 ca        1 MFP      0.082000
     13 C20       128.2780 -227.8980    0.6140 c3        1 MFP     -0.004000
     14 N2        132.9630 -229.2870   -0.7620 n2        1 MFP     -0.153000
     15 N6        130.9880 -228.6240    0.4970 n2        1 MFP     -0.258000
     16 N7       1368.9880  328.8710 -787.4430 n2        1 MFP     -0.007000
     17 N18      1369.1660  332.3880 -787.8570 n1        1 MFP      0.060000
     18 N19       128.9360 -228.0970   -0.6610 nh        1 MFP     -0.259000
     19 C21       128.9000 -226.7820    1.4070 c2        1 MFP      0.036500
     20 C23       128.7250 -228.0320    3.4740 c2        1 MFP      0.330000
     21 C24       128.2170 -229.1780    2.7750 c2        1 MFP     -0.246000
     22 C25       128.0510 -229.1390    1.4320 c2        1 MFP      0.036500
     23 O26       128.9470 -227.9850    4.7830 os        1 MFP     -0.122000
     24 C27       128.6810 -229.1510    5.5930 c3        1 MFP     -0.095000
     25 C28     -1921.5380  -22.9750  984.4720 c1        1 MFP     -0.143000
     26 C29     -1921.0570  -23.3280  985.5070 c1        1 MFP     -0.163000
     27 N30     -1924.6140  -22.0500  984.5250 n4        1 MFP     -0.026000
     28 C31     -1925.7280  -23.0250  984.5460 c3        1 MFP     -0.199000
     29 C32     -1925.0190  -20.7220  985.0410 c3        1 MFP     -0.199000
     30 O33     -1922.1110  -22.5750  983.3400 oh        1 MFP     -0.226000
     31 H22       129.4560 -225.9790    3.3260 ha        1 MFP      0.192500
     32 H1        132.8750 -229.0210    1.3250 h5        1 MFP      0.203000
     33 H4        130.3280 -228.8300   -2.8700 ha        1 MFP      0.170000
     34 H10      1373.1180  329.3790 -789.5130 ha        1 MFP      0.201000
     35 H12      1372.5430  326.3410 -786.4810 ha        1 MFP      0.196000
     36 H161     1367.3620  329.9950 -786.9650 h1        1 MFP      0.187000
     37 H162     1367.6240  329.7440 -788.7590 h1        1 MFP      0.187000
     38 H13      1370.1010  326.8120 -786.4220 ha        1 MFP      0.203000
     39 H151     1375.0060  328.6410 -788.0810 hc        1 MFP      0.151333
     40 H152     1374.7740  327.2530 -786.9150 hc        1 MFP      0.151333
     41 H153     1374.7070  326.9660 -788.7070 hc        1 MFP      0.151333
     42 H19       127.2200 -227.5150    0.3670 h1        1 MFP      0.181000
     43 H21       129.2030 -225.8830    0.8360 ha        1 MFP      0.186000
     44 H24       127.9940 -230.0970    3.3460 ha        1 MFP      0.192500
     45 H25       127.7010 -230.0350    0.8850 ha        1 MFP      0.186000
     46 H271      129.3310 -229.9960    5.2630 h1        1 MFP      0.131333
     47 H272      127.5970 -229.4090    5.5400 h1        1 MFP      0.131333
     48 H28       128.9660 -228.7940    6.6190 h1        1 MFP      0.131333
     49 H291    -1920.6330  -23.6410  986.4310 ha        1 MFP      0.264000
     50 H292    -1923.8290  -22.4120  985.0870 hn        1 MFP      0.262500
     51 H311    -1926.5710  -22.6470  983.9080 hx        1 MFP      0.148667
     52 H312    -1925.3630  -24.0100  984.1440 hx        1 MFP      0.148667
     53 H313    -1926.0910  -23.1600  985.6010 hx        1 MFP      0.148667
     54 H321    -1925.3710  -20.8220  986.1020 hx        1 MFP      0.148667
     55 H322    -1925.8520  -20.3110  984.4090 hx        1 MFP      0.148667
     56 H323    -1924.1370  -20.0260  985.0000 hx        1 MFP      0.148667
     57 H33     -1921.4270  -22.6440  982.6420 ho        1 MFP      0.274000
     58 C15      1374.4360  327.6940 -787.8890 c3        1 MFP     -0.256000
     59 C17      1368.7530  331.3020 -787.8450 c1        1 MFP     -0.207000
     60 H71       132.7800 -229.4810   -2.8360 h4        1 MFP      0.190000
     61 H192      128.3580 -228.5440   -1.3450 hn        1 MFP      0.230000
     62 H301    -1924.2630  -21.9510  983.5600 hn        1 MFP      0.262500
     63 BR       1370.4030  330.2000 -790.1880 br        1 MFP      0.213000
@<TRIPOS>BOND
     1    1   19 1   
     2    1   20 1   
     3    1   31 1   
     4    2   14 1   
     5    2   15 1   
     6    2   32 1   
     7    3    4 1   
     8    3   15 1   
     9    3   18 1   
    10    4    5 1   
    11    4   33 1   
    12    5   14 1   
    13    5   60 1   
    14    6    7 1   
    15    6   10 1   
    16    6   58 1   
    17    7    8 1   
    18    7   34 1   
    19    8    9 1   
    20    8   63 1   
    21    9   12 1   
    22    9   16 1   
    23   10   12 1   
    24   10   35 1   
    25   11   16 1   
    26   11   36 1   
    27   11   37 1   
    28   11   59 1   
    29   12   38 1   
    30   13   18 1   
    31   13   19 1   
    32   13   22 1   
    33   13   42 1   
    34   17   59 1   
    35   18   61 1   
    36   19   43 1   
    37   20   21 1   
    38   20   23 1   
    39   21   22 1   
    40   21   44 1   
    41   22   45 1   
    42   23   24 1   
    43   24   46 1   
    44   24   47 1   
    45   24   48 1   
    46   25   26 1   
    47   25   30 1   
    48   26   49 1   
    49   27   28 1   
    50   27   29 1   
    51   27   50 1   
    52   27   62 1   
    53   28   51 1   
    54   28   52 1   
    55   28   53 1   
    56   29   54 1   
    57   29   55 1   
    58   29   56 1   
    59   30   57 1   
    60   39   58 1   
    61   40   58 1   
    62   41   58 1   
@<TRIPOS>SUBSTRUCTURE
     1 MFP         1 TEMP              0 ****  ****    0 ROOT
