@<TRIPOS>MOLECULE
MFP
   60    52     1     0     0
SMALL
bcc


@<TRIPOS>ATOM
      1 C22        -2.2770   -0.6570   -1.6580 c1        1 MFP     -0.145000
      2 C1          2.7960    2.1890   -1.4760 c1        1 MFP      0.027000
      3 C5          2.1270    0.0900   -0.5500 c1        1 MFP      0.180000
      4 C4          3.4300   -0.1130   -0.1010 c1        1 MFP     -0.348000
      5 C3          4.3940    0.8310   -0.3430 c1        1 MFP      0.194000
      6 C11         7.2790    3.6560    2.9220 c1        1 MFP     -0.060000
      7 C10         7.1420    4.0640    1.6000 c1        1 MFP     -0.104000
      8 C9          6.6380    3.1710    0.6380 c1        1 MFP     -0.156000
      9 C8          6.2790    1.8850    1.0090 c1        1 MFP      0.070000
     10 C12         6.9200    2.3720    3.2910 c1        1 MFP     -0.119000
     11 C17         7.3060    0.8150   -1.8780 c1        1 MFP     -0.182000
     12 C16         6.7330    0.0940   -0.6600 c2        1 MFP      0.079000
     13 C13         6.4170    1.4790    2.3320 c1        1 MFP     -0.111000
     14 C15         7.9450    4.6050    3.9710 c3        1 MFP     -0.182000
     15 C20        -0.2380   -0.6360   -0.3730 c1        1 MFP      0.018000
     16 N2          4.0730    1.9880   -1.0350 n1        1 MFP     -0.229000
     17 N6          1.8120    1.2270   -1.2300 n1        1 MFP     -0.240000
     18 N7          5.8150    0.9230   -0.0150 n3        1 MFP     -0.236000
     19 BR          6.5170    3.7050   -1.2180 br        1 MFP      0.072000
     20 N18         7.7420    1.3630   -2.8060 n1        1 MFP     -0.018000
     21 N19         1.1560   -0.9570   -0.4230 n2        1 MFP     -0.241000
     22 C21        -0.8820   -0.6590   -1.6020 c1        1 MFP     -0.076000
     23 C23        -3.0190   -0.6330   -0.4880 c1        1 MFP      0.071000
     24 C24        -2.3700   -0.6100    0.7530 c1        1 MFP     -0.187000
     25 C25        -0.9920   -0.6110    0.8120 c2        1 MFP     -0.134000
     26 O26        -4.4490   -0.4830   -0.5520 os        1 MFP     -0.213000
     27 C27        -5.1600   -1.7260   -0.4890 c3        1 MFP     -0.055000
     28 C28        -6.6220   -1.5070   -0.9190 c3        1 MFP      0.029000
     29 C29        -7.4060   -2.7570   -0.6890 c3        1 MFP     -0.102000
     30 N30        -8.7240   -2.5500   -1.1070 n3        1 MFP     -0.265000
     31 C31        -8.8900   -3.0680   -2.4560 c3        1 MFP     -0.124000
     32 C32        -9.6340   -3.2320   -0.2070 c3        1 MFP     -0.124000
     33 O33        -7.1800   -0.4720   -0.1690 oh        1 MFP     -0.317000
     34 H22        -2.7300   -0.6720   -2.5170 ha        1 MFP      0.152000
     35 H1          2.5710    3.0090   -1.9660 ha        1 MFP      0.192000
     36 H4          3.6600   -0.9430    0.3930 ha        1 MFP      0.150000
     37 H10         7.3910    4.9600    1.3440 ha        1 MFP      0.151000
     38 H12         7.0190    2.0790    4.2480 ha        1 MFP      0.139000
     39 H161        7.4680   -0.1360   -0.0350 h4        1 MFP      0.127000
     40 H162        6.2850   -0.7180   -0.9470 h4        1 MFP      0.127000
     41 H13         6.1550    0.5350    2.6060 ha        1 MFP      0.145000
     42 H151        8.8470    4.2850    4.1750 hc        1 MFP      0.088667
     43 H152        7.9950    5.5080    3.6100 hc        1 MFP      0.088667
     44 H153        7.3920    4.6110    4.8130 hc        1 MFP      0.088667
     45 H19         1.4350   -1.8700   -0.4070 hn        1 MFP      0.222000
     46 H21        -0.3460   -0.6750   -2.4470 ha        1 MFP      0.159000
     47 H24        -2.8890   -0.5930    1.5670 ha        1 MFP      0.140000
     48 H25        -0.5230   -0.5940    1.7160 ha        1 MFP      0.130000
     49 H271       -4.7480   -2.3570   -1.0760 h1        1 MFP      0.087500
     50 H272       -5.1350   -2.0760    0.4470 h1        1 MFP      0.087500
     51 H28        -6.6530   -1.2700   -1.8910 h1        1 MFP      0.126000
     52 H291       -7.3970   -2.9830    0.2750 h1        1 MFP      0.085000
     53 H292       -7.0020   -3.5080   -1.2140 h1        1 MFP      0.085000
     54 H311       -9.6480   -3.6600   -2.4820 h1        1 MFP      0.074167
     55 H312       -8.0870   -3.5560   -2.7180 h1        1 MFP      0.074167
     56 H313       -9.0350   -2.3300   -3.0710 h1        1 MFP      0.074167
     57 H321      -10.4980   -3.4340   -0.6900 h1        1 MFP      0.074167
     58 H322       -9.8260   -2.6350    0.5960 h1        1 MFP      0.074167
     59 H323       -9.2200   -4.0770    0.1020 h1        1 MFP      0.074167
     60 H33        -7.1570   -0.6870    0.6860 ho        1 MFP      0.211000
@<TRIPOS>BOND
     1    1   23 1   
     2    1   34 1   
     3    2   17 1   
     4    2   35 1   
     5    3    4 1   
     6    3   21 1   
     7    4   36 1   
     8    5   16 1   
     9    5   18 1   
    10    6   10 1   
    11    6   14 1   
    12    7    8 1   
    13    7   37 1   
    14    8   19 1   
    15    9   13 1   
    16    9   18 1   
    17   10   38 1   
    18   11   20 1   
    19   12   18 1   
    20   12   39 1   
    21   12   40 1   
    22   13   41 1   
    23   14   42 1   
    24   14   43 1   
    25   14   44 1   
    26   15   22 1   
    27   15   25 1   
    28   21   45 1   
    29   22   46 1   
    30   23   26 1   
    31   24   25 1   
    32   24   47 1   
    33   25   48 1   
    34   26   27 1   
    35   27   28 1   
    36   27   49 1   
    37   27   50 1   
    38   28   29 1   
    39   28   33 1   
    40   28   51 1   
    41   29   30 1   
    42   29   52 1   
    43   29   53 1   
    44   30   31 1   
    45   30   32 1   
    46   31   54 1   
    47   31   55 1   
    48   31   56 1   
    49   32   57 1   
    50   32   58 1   
    51   32   59 1   
    52   33   60 1   
@<TRIPOS>SUBSTRUCTURE
     1 MFP         1 TEMP              0 ****  ****    0 ROOT
