@<TRIPOS>MOLECULE
MFP
   60    62     1     0     0
SMALL
bcc


@<TRIPOS>ATOM
      1 C22        -0.0740    0.5400    3.9950 ca        1 MFP     -0.166000
      2 C1          1.5570    0.4730   -1.2060 ca        1 MFP      0.689900
      3 C5         -0.0780   -0.8420   -0.2460 ca        1 MFP      0.701200
      4 C4         -0.3770   -1.3680   -1.5420 ca        1 MFP     -0.478600
      5 C3          0.3780   -0.8930   -2.6480 ca        1 MFP      0.715200
      6 C11         1.6520    0.6080   -7.3580 ca        1 MFP     -0.067300
      7 C10         0.6370    1.1850   -6.5910 ca        1 MFP     -0.104000
      8 C9          0.1300    0.5370   -5.4620 ca        1 MFP     -0.015900
      9 C8          0.6520   -0.7180   -5.0790 ca        1 MFP      0.151600
     10 C12         2.1640   -0.6380   -6.9820 ca        1 MFP     -0.119000
     11 C16        -0.7940   -2.4600   -4.1600 c3        1 MFP      0.288900
     12 C13         1.6770   -1.2940   -5.8580 ca        1 MFP     -0.111000
     13 C20        -0.5330   -1.0080    2.1800 ca        1 MFP      0.099600
     14 N2          1.3640    0.0570   -2.4760 nb        1 MFP     -0.755000
     15 N6          0.9190    0.0900   -0.0760 nb        1 MFP     -0.766000
     16 N7          0.1880   -1.4320   -3.9350 nh        1 MFP     -0.668700
     17 BR         -1.2430    1.3730   -4.5000 br        1 MFP     -0.068100
     18 N18        -3.3260   -1.7780   -4.0400 n1        1 MFP     -0.343800
     19 N19        -0.8700   -1.2590    0.8290 nh        1 MFP     -0.720300
     20 C21        -0.3360    0.3080    2.6530 ca        1 MFP     -0.105000
     21 C23        -0.0150   -0.5390    4.8960 ca        1 MFP      0.116100
     22 C24        -0.2170   -1.8470    4.4460 ca        1 MFP     -0.166000
     23 C25        -0.4670   -2.0780    3.0960 ca        1 MFP     -0.105000
     24 O26         0.2340   -0.1850    6.2080 os        1 MFP     -0.329900
     25 C27         0.3940   -1.2720    7.1240 c3        1 MFP      0.095400
     26 C28         0.7960   -0.6390    8.4660 c3        1 MFP      0.140100
     27 C29        -0.3940    0.1460    9.0370 c3        1 MFP      0.134800
     28 N30        -0.2400    0.5830   10.4160 n3        1 MFP     -0.739600
     29 C31         1.0310    1.2100   10.6970 c3        1 MFP      0.152100
     30 C32        -1.3700    1.3730   10.8540 c3        1 MFP      0.152100
     31 O33         1.2750   -1.6640    9.3150 oh        1 MFP     -0.589800
     32 H22         0.0870    1.5630    4.3670 ha        1 MFP      0.146000
     33 H1          2.3550    1.2360   -1.0690 h5        1 MFP      0.055100
     34 H4         -1.1900   -2.0910   -1.6710 ha        1 MFP      0.150000
     35 H10         0.2340    2.1680   -6.8860 ha        1 MFP      0.151000
     36 H12         2.9660   -1.1020   -7.5770 ha        1 MFP      0.139000
     37 H161       -0.6120   -2.8900   -5.1930 h1        1 MFP      0.087700
     38 H162       -0.6300   -3.2840   -3.4000 h1        1 MFP      0.087700
     39 H13         2.1050   -2.2670   -5.5700 ha        1 MFP      0.145000
     40 H151        1.3890    1.9210   -9.0420 hc        1 MFP      0.049367
     41 H152        3.0070    2.0130   -8.2300 hc        1 MFP      0.049367
     42 H153        2.6050    0.5960   -9.2870 hc        1 MFP      0.049367
     43 H19        -1.3420   -2.1260    0.6740 hn        1 MFP      0.426800
     44 H21        -0.3860    1.1640    1.9610 ha        1 MFP      0.144500
     45 H24        -0.1770   -2.7000    5.1380 ha        1 MFP      0.146000
     46 H25        -0.6190   -3.1150    2.7580 ha        1 MFP      0.144500
     47 H271        1.2070   -1.9600    6.7740 h1        1 MFP      0.048200
     48 H272       -0.5700   -1.8370    7.2130 h1        1 MFP      0.048200
     49 H28         1.6810    0.0410    8.3060 h1        1 MFP      0.086700
     50 H291       -1.3060   -0.5170    9.0100 h1        1 MFP      0.045700
     51 H292       -0.5790    1.0090    8.3300 h1        1 MFP      0.045700
     52 H311        1.0450    1.5510   11.7650 h1        1 MFP      0.034867
     53 H312        1.8420    0.4460   10.5550 h1        1 MFP      0.034867
     54 H313        1.2460    2.0950   10.0380 h1        1 MFP      0.034867
     55 H321       -2.3130    0.7880   10.6890 h1        1 MFP      0.034867
     56 H322       -1.2620    1.5770   11.9520 h1        1 MFP      0.034867
     57 H323       -1.4620    2.3560   10.3150 h1        1 MFP      0.034867
     58 H33         0.5180   -2.0360    9.7850 ho        1 MFP      0.412000
     59 C15         2.1870    1.3170   -8.5430 c3        1 MFP     -0.056800
     60 C17        -2.1990   -2.0590   -4.0880 c1        1 MFP      0.170700
@<TRIPOS>BOND
     1    1   20 ar  
     2    1   21 ar  
     3    1   32 1   
     4    2   14 ar  
     5    2   15 ar  
     6    2   33 1   
     7    3    4 ar  
     8    3   15 ar  
     9    3   19 1   
    10    4    5 ar  
    11    4   34 1   
    12    5   14 ar  
    13    5   16 1   
    14    6    7 ar  
    15    6   10 ar  
    16    6   59 1   
    17    7    8 ar  
    18    7   35 1   
    19    8    9 ar  
    20    8   17 1   
    21    9   12 ar  
    22    9   16 1   
    23   10   12 ar  
    24   10   36 1   
    25   11   16 1   
    26   11   37 1   
    27   11   38 1   
    28   11   60 1   
    29   12   39 1   
    30   13   19 1   
    31   13   20 ar  
    32   13   23 ar  
    33   18   60 3   
    34   19   43 1   
    35   20   44 1   
    36   21   22 ar  
    37   21   24 1   
    38   22   23 ar  
    39   22   45 1   
    40   23   46 1   
    41   24   25 1   
    42   25   26 1   
    43   25   47 1   
    44   25   48 1   
    45   26   27 1   
    46   26   31 1   
    47   26   49 1   
    48   27   28 1   
    49   27   50 1   
    50   27   51 1   
    51   28   29 1   
    52   28   30 1   
    53   29   52 1   
    54   29   53 1   
    55   29   54 1   
    56   30   55 1   
    57   30   56 1   
    58   30   57 1   
    59   31   58 1   
    60   40   59 1   
    61   41   59 1   
    62   42   59 1   
@<TRIPOS>SUBSTRUCTURE
     1 MFP         1 TEMP              0 ****  ****    0 ROOT
