@<TRIPOS>MOLECULE
MFQ
   60    62     1     0     0
SMALL
bcc


@<TRIPOS>ATOM
      1 C22        -0.0170    1.0010    3.9990 ca        1 MFQ     -0.166000
      2 C1          1.7730   -0.2950   -0.9850 ca        1 MFQ      0.689900
      3 C5         -0.4130   -0.3050   -0.2490 ca        1 MFQ      0.701200
      4 C4         -0.8340   -0.6010   -1.5840 ca        1 MFQ     -0.478600
      5 C3          0.1650   -0.7310   -2.5860 ca        1 MFQ      0.715200
      6 C11         2.5710   -0.5270   -7.0840 ca        1 MFQ     -0.067300
      7 C10         2.0440    0.5820   -6.4150 ca        1 MFQ     -0.104000
      8 C9          1.1340    0.4260   -5.3690 ca        1 MFQ     -0.015900
      9 C8          0.7410   -0.8700   -4.9650 ca        1 MFQ      0.151600
     10 C12         2.1790   -1.8090   -6.6880 ca        1 MFQ     -0.119000
     11 C16        -1.5520   -1.3330   -4.2610 c3        1 MFQ      0.288900
     12 C13         1.2800   -1.9840   -5.6420 ca        1 MFQ     -0.111000
     13 C20        -1.1250   -0.0460    2.1070 ca        1 MFQ      0.099600
     14 N2          1.5010   -0.5670   -2.2800 nb        1 MFQ     -0.755000
     15 N6          0.9190   -0.1620    0.0570 nb        1 MFQ     -0.766000
     16 N7         -0.1770   -1.1030   -3.9000 nh        1 MFQ     -0.667700
     17 BR          0.4620    1.9660   -4.5390 br        1 MFQ     -0.068100
     18 N18        -3.1410    0.7520   -4.4060 n1        1 MFQ     -0.343800
     19 N19        -1.4030   -0.1070    0.7210 nh        1 MFQ     -0.720300
     20 C21        -0.2260    0.9090    2.6310 ca        1 MFQ     -0.104500
     21 C23        -0.7120    0.1450    4.8730 ca        1 MFQ      0.117100
     22 C24        -1.6120   -0.7990    4.3720 ca        1 MFQ     -0.166000
     23 C25        -1.8110   -0.8960    2.9980 ca        1 MFQ     -0.104500
     24 O26        -0.4240    0.3290    6.2130 os        1 MFQ     -0.329900
     25 C27        -1.1260   -0.5220    7.1220 c3        1 MFQ      0.095400
     26 C28        -0.6890   -0.0880    8.5300 c3        1 MFQ      0.140100
     27 C29         0.7800   -0.4770    8.7510 c3        1 MFQ      0.134800
     28 N30         1.2500   -0.3580   10.1230 n3        1 MFQ     -0.739600
     29 C31         2.6570   -0.6740   10.2340 c3        1 MFQ      0.152100
     30 C32         0.8990    0.8920   10.7590 c3        1 MFQ      0.152100
     31 O33        -1.5860   -0.6540    9.4670 oh        1 MFQ     -0.589800
     32 H22         0.6850    1.7400    4.4110 ha        1 MFQ      0.146000
     33 H1L         2.8500   -0.1680   -0.7400 h5        1 MFQ      0.054100
     34 H4         -1.9000   -0.6860   -1.8210 ha        1 MFQ      0.150000
     35 H10         2.3580    1.5930   -6.7240 ha        1 MFQ      0.151000
     36 H12         2.5910   -2.6910   -7.2010 ha        1 MFQ      0.139000
     37 H161       -1.5620   -1.8320   -5.2780 h1        1 MFQ      0.087700
     38 H162       -2.0030   -2.0500   -3.5100 h1        1 MFQ      0.087700
     39 H13         0.9960   -3.0030   -5.3350 ha        1 MFQ      0.145000
     40 H151        2.9630   -0.1540   -9.1530 hc        1 MFQ      0.049367
     41 H152        4.1910    0.5380   -8.0130 hc        1 MFQ      0.049367
     42 H153        4.1620   -1.2460   -8.3420 hc        1 MFQ      0.049367
     43 H19        -2.2850   -0.5150    0.4920 hn        1 MFQ      0.427800
     44 H21         0.3210    1.5900    1.9590 ha        1 MFQ      0.144500
     45 H24        -2.1650   -1.4720    5.0430 ha        1 MFQ      0.146000
     46 H25        -2.5210   -1.6480    2.6190 ha        1 MFQ      0.144500
     47 H271       -0.8600   -1.5930    6.9240 h1        1 MFQ      0.048200
     48 H272       -2.2320   -0.3790    7.0100 h1        1 MFQ      0.048200
     49 H28        -0.8260    1.0250    8.6350 h1        1 MFQ      0.086700
     50 H291        1.3890    0.1460    8.0320 h1        1 MFQ      0.045700
     51 H292        0.9120   -1.5590    8.4610 h1        1 MFQ      0.045700
     52 H311        2.9370   -0.6890   11.3200 h1        1 MFQ      0.034867
     53 H312        2.8390   -1.6930    9.8020 h1        1 MFQ      0.034867
     54 H313        3.3210    0.0620    9.7030 h1        1 MFQ      0.034867
     55 H321       -0.2190    0.9460   10.8420 h1        1 MFQ      0.034867
     56 H322        1.3360    0.9150   11.7910 h1        1 MFQ      0.034867
     57 H323        1.2660    1.7950   10.1970 h1        1 MFQ      0.034867
     58 H33        -1.2550   -1.5300    9.7000 ho        1 MFQ      0.412000
     59 C15         3.5240   -0.3390   -8.2020 c3        1 MFQ     -0.056800
     60 C17        -2.4210   -0.1580   -4.3350 c1        1 MFQ      0.170700
@<TRIPOS>BOND
     1    1   20 ar  
     2    1   21 ar  
     3    1   32 1   
     4    2   14 ar  
     5    2   15 ar  
     6    2   33 1   
     7    3    4 ar  
     8    3   15 ar  
     9    3   19 1   
    10    4    5 ar  
    11    4   34 1   
    12    5   14 ar  
    13    5   16 1   
    14    6    7 ar  
    15    6   10 ar  
    16    6   59 1   
    17    7    8 ar  
    18    7   35 1   
    19    8    9 ar  
    20    8   17 1   
    21    9   12 ar  
    22    9   16 1   
    23   10   12 ar  
    24   10   36 1   
    25   11   16 1   
    26   11   37 1   
    27   11   38 1   
    28   11   60 1   
    29   12   39 1   
    30   13   19 1   
    31   13   20 ar  
    32   13   23 ar  
    33   18   60 3   
    34   19   43 1   
    35   20   44 1   
    36   21   22 ar  
    37   21   24 1   
    38   22   23 ar  
    39   22   45 1   
    40   23   46 1   
    41   24   25 1   
    42   25   26 1   
    43   25   47 1   
    44   25   48 1   
    45   26   27 1   
    46   26   31 1   
    47   26   49 1   
    48   27   28 1   
    49   27   50 1   
    50   27   51 1   
    51   28   29 1   
    52   28   30 1   
    53   29   52 1   
    54   29   53 1   
    55   29   54 1   
    56   30   55 1   
    57   30   56 1   
    58   30   57 1   
    59   31   58 1   
    60   40   59 1   
    61   41   59 1   
    62   42   59 1   
@<TRIPOS>SUBSTRUCTURE
     1 MFQ         1 TEMP              0 ****  ****    0 ROOT
