@<TRIPOS>MOLECULE
MFQ
   60    52     1     0     0
SMALL
bcc


@<TRIPOS>ATOM
      1 C22        -2.5170   -1.3980   -1.1890 c1        1 MFQ     -0.147000
      2 C1          2.6290    1.0570   -1.4570 c1        1 MFQ      0.027000
      3 C5          1.9840   -0.8840   -0.2980 c1        1 MFQ      0.181000
      4 C4          3.3150   -1.2370   -0.1730 c1        1 MFQ     -0.349000
      5 C3          4.2940   -0.4250   -0.7010 c1        1 MFQ      0.194000
      6 C11         8.3760    1.9040    1.4230 c1        1 MFQ     -0.060000
      7 C10         7.8390    2.3730    0.2250 c1        1 MFQ     -0.104000
      8 C9          6.9770    1.5630   -0.5200 c1        1 MFQ     -0.156000
      9 C8          6.6530    0.2870   -0.0650 c1        1 MFQ      0.070000
     10 C12         8.0510    0.6270    1.8770 c1        1 MFQ     -0.119000
     11 C17         6.3490   -1.0720   -3.1120 c1        1 MFQ     -0.182000
     12 C16         6.2920   -1.5790   -1.6960 c2        1 MFQ      0.079000
     13 C13         7.1890   -0.1830    1.1320 c1        1 MFQ     -0.111000
     14 C15         9.4510    2.7220    2.1500 c3        1 MFQ     -0.182000
     15 C20        -0.4390   -1.4480    0.0370 c1        1 MFQ      0.017000
     16 N2          3.9550    0.7060   -1.3340 n1        1 MFQ     -0.230000
     17 N6          1.6490    0.2470   -0.9310 n1        1 MFQ     -0.240000
     18 N7          5.7540   -0.5630   -0.8500 n3        1 MFQ     -0.236000
     19 BR          6.3090    2.1750   -2.1970 br        1 MFQ      0.072000
     20 N18         6.3920   -0.6910   -4.1780 n1        1 MFQ     -0.018000
     21 N19         0.9670   -1.6760    0.3460 n2        1 MFQ     -0.241000
     22 C21        -1.1230   -1.4520   -1.1750 c1        1 MFQ     -0.075000
     23 C23        -3.2250   -1.3420    0.0110 c1        1 MFQ      0.073000
     24 C24        -2.5400   -1.3390    1.2230 c1        1 MFQ     -0.188000
     25 C25        -1.1470   -1.3920    1.2370 c2        1 MFQ     -0.133000
     26 O26        -4.6230   -1.4660    0.0010 os        1 MFQ     -0.217000
     27 C27        -5.3080   -0.2310   -0.0620 c3        1 MFQ     -0.025000
     28 C28        -6.8040   -0.4850   -0.3560 c3        1 MFQ      0.033000
     29 C29        -7.6480    0.4750    0.4520 c3        1 MFQ     -0.107000
     30 N30        -9.0510    0.3000    0.1010 n3        1 MFQ     -0.277000
     31 C31        -9.8600    0.2760    1.3180 c3        1 MFQ     -0.119500
     32 C32        -9.4660    1.3740   -0.7210 c3        1 MFQ     -0.119500
     33 O33        -7.1280   -1.7840   -0.0110 oh        1 MFQ     -0.334000
     34 H22        -2.9970   -1.4010   -2.0410 ha        1 MFQ      0.151000
     35 H1L         2.3830    1.8830   -1.9200 ha        1 MFQ      0.191000
     36 H4          3.5630   -2.0710    0.2940 ha        1 MFQ      0.150000
     37 H10         8.0660    3.2670   -0.0940 ha        1 MFQ      0.150000
     38 H12         8.4270    0.2970    2.7180 ha        1 MFQ      0.139000
     39 H161        5.7240   -2.3700   -1.6560 h4        1 MFQ      0.127000
     40 H162        7.1950   -1.8100   -1.3950 h4        1 MFQ      0.127000
     41 H13         6.9630   -1.0730    1.4480 ha        1 MFQ      0.145000
     42 H151        9.0270    3.4780    2.6230 hc        1 MFQ      0.088667
     43 H152       10.1050    3.0700    1.4900 hc        1 MFQ      0.088667
     44 H153        9.9160    2.1470    2.8010 hc        1 MFQ      0.088667
     45 H19         1.2010   -2.3030    0.9640 hn        1 MFQ      0.222000
     46 H21        -0.6250   -1.4910   -2.0190 ha        1 MFQ      0.158000
     47 H24        -3.0380   -1.2990    2.0690 ha        1 MFQ      0.141000
     48 H25        -0.6680   -1.3900    2.0830 ha        1 MFQ      0.130000
     49 H271       -5.2170    0.2370    0.7930 h1        1 MFQ      0.093500
     50 H272       -4.9180    0.3260   -0.7860 h1        1 MFQ      0.093500
     51 H28        -6.9740   -0.3500   -1.2960 h1        1 MFQ      0.096000
     52 H291       -7.5250    0.2980    1.3950 h1        1 MFQ      0.090500
     53 H292       -7.3760    1.3940    0.2540 h1        1 MFQ      0.090500
     54 H311       -9.2750    0.3140    2.0990 h1        1 MFQ      0.072833
     55 H312      -10.3890   -0.5560    1.3450 h1        1 MFQ      0.072833
     56 H313      -10.4670    1.0520    1.3240 h1        1 MFQ      0.072833
     57 H321       -9.9110    1.0220   -1.5220 h1        1 MFQ      0.072833
     58 H322       -8.6790    1.9040   -0.9880 h1        1 MFQ      0.072833
     59 H323      -10.0880    1.9420   -0.2260 h1        1 MFQ      0.072833
     60 H33        -7.9680   -1.9570   -0.2610 ho        1 MFQ      0.222000
@<TRIPOS>BOND
     1    1   23 1   
     2    1   34 1   
     3    2   17 1   
     4    2   35 1   
     5    3    4 1   
     6    3   21 1   
     7    4   36 1   
     8    5   16 1   
     9    5   18 1   
    10    6   10 1   
    11    6   14 1   
    12    7    8 1   
    13    7   37 1   
    14    8   19 1   
    15    9   13 1   
    16    9   18 1   
    17   10   38 1   
    18   11   20 1   
    19   12   18 1   
    20   12   39 1   
    21   12   40 1   
    22   13   41 1   
    23   14   42 1   
    24   14   43 1   
    25   14   44 1   
    26   15   22 1   
    27   15   25 1   
    28   21   45 1   
    29   22   46 1   
    30   23   26 1   
    31   24   25 1   
    32   24   47 1   
    33   25   48 1   
    34   26   27 1   
    35   27   28 1   
    36   27   49 1   
    37   27   50 1   
    38   28   29 1   
    39   28   33 1   
    40   28   51 1   
    41   29   30 1   
    42   29   52 1   
    43   29   53 1   
    44   30   31 1   
    45   30   32 1   
    46   31   54 1   
    47   31   55 1   
    48   31   56 1   
    49   32   57 1   
    50   32   58 1   
    51   32   59 1   
    52   33   60 1   
@<TRIPOS>SUBSTRUCTURE
     1 MFQ         1 TEMP              0 ****  ****    0 ROOT
