@<TRIPOS>MOLECULE
MFQ
   63    63     1     0     0
SMALL
bcc


@<TRIPOS>ATOM
      1 C22       639.0820  163.7050 -184.4270 ca        1 MFQ     -0.171000
      2 C1        633.6710  164.6210 -183.9070 c2        1 MFQ      0.145000
      3 C5        634.8650  163.7820 -185.8180 c2        1 MFQ      0.255000
      4 C4        633.5580  163.3710 -186.3470 c2        1 MFQ     -0.222000
      5 C3        632.4270  163.6360 -185.5930 c2        1 MFQ      0.083000
      6 C11       629.5420  159.7440 -184.1910 ca        1 MFQ      0.030000
      7 C10       629.9520  159.7070 -185.5370 ca        1 MFQ     -0.082000
      8 C9        630.4650  160.8390 -186.1590 ca        1 MFQ     -0.159000
      9 C8        630.5740  162.0440 -185.4210 ca        1 MFQ     -0.159000
     10 C12       629.6620  160.9410 -183.4760 ca        1 MFQ     -0.110000
     11 C16       630.0880  164.3780 -186.0330 c3        1 MFQ      0.001000
     12 C13       630.1720  162.0890 -184.0770 ca        1 MFQ     -0.068000
     13 C20       637.2970  163.8950 -186.0540 ca        1 MFQ     -0.160000
     14 N2        632.4770  164.2660 -184.3520 n2        1 MFQ     -0.171000
     15 N6        634.8720  164.4140 -184.5710 na        1 MFQ     -0.231000
     16 N7        631.0870  163.2450 -186.1070 n4        1 MFQ      0.085000
     17 N18       630.9010  166.5260 -187.2740 n1        1 MFQ      0.122000
     18 N19       635.9940  163.5410 -186.5070 nh        1 MFQ     -0.127000
     19 C21       637.7970  163.3960 -184.8270 ca        1 MFQ     -0.069000
     20 C23       639.9040  164.5150 -185.2520 ca        1 MFQ      0.164000
     21 C24       639.4130  165.0000 -186.4770 ca        1 MFQ     -0.171000
     22 C25       638.1210  164.6900 -186.8790 ca        1 MFQ     -0.069000
     23 O26       641.1460  164.7590 -184.7570 os        1 MFQ     -0.172000
     24 C27       642.0420  165.5290 -185.5680 c3        1 MFQ     -0.089000
     25 C28     -1853.2250 -474.0960  546.5850 c2        1 MFQ      0.338000
     26 C29     -1851.8830 -474.6610  546.6940 c3        1 MFQ     -0.329000
     27 N30     -1854.4530 -476.2670  546.2010 n2        1 MFQ     -0.311000
     28 C31     -1853.7510 -477.3410  545.5660 c3        1 MFQ     -0.166000
     29 C32     -1855.6950 -476.3450  546.4930 c2        1 MFQ     -0.059000
     30 O33     -1853.9920 -473.8160  547.6030 oh        1 MFQ     -0.121000
     31 H22       639.4940  163.3180 -183.4800 ha        1 MFQ      0.184500
     32 H1L       633.7280  165.1350 -182.9110 h5        1 MFQ      0.264000
     33 H4        633.5310  162.8640 -187.3260 ha        1 MFQ      0.206000
     34 H10       629.8530  158.7600 -186.1010 ha        1 MFQ      0.194000
     35 H12       629.3410  160.9830 -182.4190 ha        1 MFQ      0.185000
     36 H161      629.1290  164.0000 -186.5090 hx        1 MFQ      0.195000
     37 H162      629.8780  164.6260 -184.9470 hx        1 MFQ      0.195000
     38 H13       630.2460  163.0140 -183.4810 ha        1 MFQ      0.170000
     39 H151      629.5160  157.6120 -183.9040 hc        1 MFQ      0.125000
     40 H152      629.0460  158.5860 -182.4420 hc        1 MFQ      0.125000
     41 H153      627.8980  158.4280 -183.8390 hc        1 MFQ      0.125000
     42 H19       635.9270  163.1330 -187.4240 hn        1 MFQ      0.296000
     43 H21       637.1910  162.7230 -184.1990 ha        1 MFQ      0.151500
     44 H24       640.0490  165.6210 -187.1290 ha        1 MFQ      0.184500
     45 H25       637.7570  165.0720 -187.8470 ha        1 MFQ      0.151500
     46 H271      642.2270  165.0130 -186.5400 h1        1 MFQ      0.112000
     47 H272      641.6360  166.5570 -185.7240 h1        1 MFQ      0.112000
     48 H28       642.9750  165.5560 -184.9450 h1        1 MFQ      0.112000
     49 H291    -1851.7920 -475.5630  546.0210 hc        1 MFQ      0.174667
     50 H292    -1851.6100 -474.9660  547.7370 hc        1 MFQ      0.174667
     51 H311    -1852.9150 -477.6730  546.2400 h1        1 MFQ      0.102667
     52 H312    -1854.3890 -478.2380  545.3330 h1        1 MFQ      0.102667
     53 H313    -1853.3120 -476.9640  544.6030 h1        1 MFQ      0.102667
     54 H321    -1856.1740 -475.4740  546.9820 h4        1 MFQ      0.139500
     55 H322    -1856.3560 -477.2140  546.3040 h4        1 MFQ      0.139500
     56 H323    -1853.6670 -473.7640  545.6120 h4        1 MFQ      0.236000
     57 H33     -1853.6250 -474.1070  548.4700 ho        1 MFQ      0.299000
     58 C15       628.9800  158.5320 -183.5580 c3        1 MFQ     -0.217000
     59 C17       630.5660  165.5550 -186.7300 c1        1 MFQ     -0.236000
     60 H71       631.2090  162.9890 -187.1160 hn        1 MFQ      0.276000
     61 H192      635.7400  164.7390 -184.1710 hn        1 MFQ      0.318000
     62 H301    -1851.1310 -473.9060  546.3250 hc        1 MFQ      0.174667
     63 BR        630.9790  160.7660 -187.9620 br        1 MFQ      0.117000
@<TRIPOS>BOND
     1    1   19 1   
     2    1   20 1   
     3    1   31 1   
     4    2   14 1   
     5    2   15 1   
     6    2   32 1   
     7    3    4 1   
     8    3   15 1   
     9    3   18 1   
    10    4    5 1   
    11    4   33 1   
    12    5   14 1   
    13    5   16 1   
    14    6    7 1   
    15    6   10 1   
    16    6   58 1   
    17    7    8 1   
    18    7   34 1   
    19    8    9 1   
    20    8   63 1   
    21    9   12 1   
    22    9   16 1   
    23   10   12 1   
    24   10   35 1   
    25   11   16 1   
    26   11   36 1   
    27   11   37 1   
    28   11   59 1   
    29   12   38 1   
    30   13   18 1   
    31   13   19 1   
    32   13   22 1   
    33   15   61 1   
    34   16   60 1   
    35   17   59 1   
    36   18   42 1   
    37   19   43 1   
    38   20   21 1   
    39   20   23 1   
    40   21   22 1   
    41   21   44 1   
    42   22   45 1   
    43   23   24 1   
    44   24   46 1   
    45   24   47 1   
    46   24   48 1   
    47   25   26 1   
    48   25   30 1   
    49   25   56 1   
    50   26   49 1   
    51   26   50 1   
    52   26   62 1   
    53   27   28 1   
    54   27   29 1   
    55   28   51 1   
    56   28   52 1   
    57   28   53 1   
    58   29   54 1   
    59   29   55 1   
    60   30   57 1   
    61   39   58 1   
    62   40   58 1   
    63   41   58 1   
@<TRIPOS>SUBSTRUCTURE
     1 MFQ         1 TEMP              0 ****  ****    0 ROOT
