@<TRIPOS>MOLECULE
MFQ
   61    64     1     0     0
SMALL
bcc


@<TRIPOS>ATOM
      1 C22         0.0000    0.0000    0.0000 ca        1 MFQ     -0.126500
      2 C1          4.1710    1.9970   -1.6730 c2        1 MFQ      0.048000
      3 C5          4.1680    0.6510    0.1960 c2        1 MFQ      0.003000
      4 C4          5.5560    0.5580    0.1190 c2        1 MFQ     -0.356000
      5 C3          6.2050    1.2300   -0.9100 c2        1 MFQ      0.084000
      6 C11         9.5000    3.1940   -4.1270 ca        1 MFQ     -0.013000
      7 C10         9.0800    1.8900   -4.3110 ca        1 MFQ     -0.078000
      8 C9          8.4500    1.2130   -3.2840 ca        1 MFQ     -0.092000
      9 C8          8.2280    1.8480   -2.0690 ca        1 MFQ     -0.040000
     10 C12         9.2860    3.8270   -2.9170 ca        1 MFQ     -0.127000
     11 C16         8.3710    0.3920   -0.0680 c3        1 MFQ      0.070000
     12 C13         8.6520    3.1590   -1.8880 ca        1 MFQ     -0.131000
     13 C20         2.0750    0.0000    1.2030 ca        1 MFQ     -0.084000
     14 N2          5.4820    1.9330   -1.7810 n2        1 MFQ     -0.160000
     15 N6          3.5190    1.3710   -0.7150 n2        1 MFQ     -0.236000
     16 N7          7.5860    1.1700   -1.0300 nh        1 MFQ      0.126000
     17 N18         7.6020   -2.0980   -0.1470 n1        1 MFQ     -0.034000
     18 N19         3.4750   -0.0000    1.2040 nu        1 MFQ      0.174000
     19 C21         1.3820    0.0000    0.0000 ca        1 MFQ     -0.085000
     20 C23        -0.6940    0.0010    1.2010 ca        1 MFQ     -0.010000
     21 C24        -0.0020    0.0070    2.4020 ca        1 MFQ     -0.126500
     22 C25         1.3790    0.0010    2.4040 ca        1 MFQ     -0.085000
     23 O26        -2.0540    0.0020    1.2000 os        1 MFQ     -0.153000
     24 C27        -2.4680    0.0030    2.5680 c3        1 MFQ      0.072000
     25 C28        -3.9960    0.0040    2.6380 c3        1 MFQ     -0.188000
     26 C29        -4.4400    0.0040    4.1010 DU        1 MFQ     -0.350000
     27 N30        -5.9070    0.0060    4.1690 nx        1 MFQ      0.505000
     28 C31        -6.2640    0.0070    5.5930 c3        1 MFQ     -0.232000
     29 C32        -6.3540    1.2930    3.6210 c3        1 MFQ     -0.232000
     30 O33        -4.5040   -1.1620    1.9860 oh        1 MFQ     -0.341000
     31 H22        -0.5880    0.2680   -0.8690 ha        1 MFQ      0.115500
     32 H1L         3.4740    2.3200   -2.4370 h5        1 MFQ      0.138000
     33 H4          5.9090   -0.1130    0.8930 ha        1 MFQ      0.141000
     34 H10         9.2920    1.4470   -5.2770 ha        1 MFQ      0.127000
     35 H12         9.4460    4.8410   -2.5700 ha        1 MFQ      0.118000
     36 H161        8.4040    0.8470    0.9150 h1        1 MFQ      0.078500
     37 H162        9.3280    0.8490   -0.2910 h1        1 MFQ      0.078500
     38 H13         9.1270    3.8170   -1.1710 ha        1 MFQ      0.144000
     39 H151        9.6160    4.0290   -6.1570 hc        1 MFQ      0.054667
     40 H152       11.0690    3.4640   -5.6840 hc        1 MFQ      0.054667
     41 H153       10.1140    5.0070   -5.2270 hc        1 MFQ      0.054667
     42 H19         4.0610   -0.3300    1.9450 hn        1 MFQ      0.091000
     43 H21         2.1650   -0.1030   -0.7410 ha        1 MFQ      0.140500
     44 H24        -0.6770   -0.0900    3.2440 ha        1 MFQ      0.115500
     45 H25         1.8950    0.4390    3.2510 ha        1 MFQ      0.140500
     46 H271       -1.7940   -0.7460    2.9660 h1        1 MFQ      0.136500
     47 H272       -2.2030    1.0530    2.5270 h1        1 MFQ      0.136500
     48 H28        -2.9210    0.0030    2.7770 h1        1 MFQ      0.139000
     49 H291       -3.7610    0.7520    4.4920 hx        1 MFQ      0.114500
     50 H292       -4.3110   -0.9430    4.6110 hx        1 MFQ      0.114500
     51 H311       -6.1350   -0.9700    6.0430 hx        1 MFQ      0.112000
     52 H312       -5.7380    0.6960    6.2430 hx        1 MFQ      0.112000
     53 H313       -7.3420   -0.1030    5.6150 hx        1 MFQ      0.112000
     54 H321       -7.1880    1.8490    4.0320 hx        1 MFQ      0.112000
     55 H322       -5.4120    1.7960    3.4380 hx        1 MFQ      0.112000
     56 H323       -6.4510    1.1390    2.5530 hx        1 MFQ      0.112000
     57 H33        -5.1010   -1.0350    1.2670 ho        1 MFQ      0.269000
     58 C15        10.1930    3.9270   -5.2460 c3        1 MFQ     -0.103000
     59 C17         7.9470   -1.0170   -0.1130 c1        1 MFQ     -0.151000
     60 H301       -5.3660   -0.6280    3.6150 DU        1 MFQ      0.235000
     61 Br          7.8760   -0.5700   -3.5380 br        1 MFQ      0.041000
@<TRIPOS>BOND
     1    1   19 1   
     2    1   20 1   
     3    1   31 1   
     4    2   14 1   
     5    2   15 1   
     6    2   32 1   
     7    3    4 1   
     8    3   15 1   
     9    3   18 1   
    10    4    5 1   
    11    4   33 1   
    12    5   14 1   
    13    5   16 1   
    14    6    7 1   
    15    6   10 1   
    16    6   58 1   
    17    7    8 1   
    18    7   34 1   
    19    8    9 1   
    20    8   61 1   
    21    9   12 1   
    22    9   16 1   
    23   10   12 1   
    24   10   35 1   
    25   11   16 1   
    26   11   36 1   
    27   11   37 1   
    28   11   59 1   
    29   12   38 1   
    30   13   18 1   
    31   13   19 1   
    32   13   22 1   
    33   17   59 1   
    34   18   42 1   
    35   19   43 1   
    36   20   21 1   
    37   20   23 1   
    38   21   22 1   
    39   21   44 1   
    40   22   45 1   
    41   23   24 1   
    42   24   25 1   
    43   24   46 1   
    44   24   47 1   
    45   25   26 1   
    46   25   30 1   
    47   25   48 1   
    48   26   27 1   
    49   26   49 1   
    50   26   50 1   
    51   26   60 1   
    52   27   28 1   
    53   27   29 1   
    54   27   60 1   
    55   28   51 1   
    56   28   52 1   
    57   28   53 1   
    58   29   54 1   
    59   29   55 1   
    60   29   56 1   
    61   30   57 1   
    62   39   58 1   
    63   40   58 1   
    64   41   58 1   
@<TRIPOS>SUBSTRUCTURE
     1 MFQ         1 TEMP              0 ****  ****    0 ROOT
