@<TRIPOS>MOLECULE
MFQ
   61    62     1     0     0
SMALL
bcc


@<TRIPOS>ATOM
      1 C22        -0.9090    1.8860    1.3000 ca        1 MFQ     -0.134500
      2 C1          3.8090    2.6430   -1.2840 c2        1 MFQ      0.032000
      3 C5          3.4870    1.5530    0.7210 c2        1 MFQ      0.167000
      4 C4          4.8320    1.0850    0.6610 c2        1 MFQ     -0.334000
      5 C3          5.6190    1.4560   -0.4680 c2        1 MFQ      0.204000
      6 C11         9.0880    1.5220   -4.2090 ca        1 MFQ     -0.049000
      7 C10         8.0760    0.5620   -4.1110 ca        1 MFQ     -0.103000
      8 C9          7.3620    0.3900   -2.9250 ca        1 MFQ     -0.153000
      9 C8          7.6560    1.1970   -1.8040 ca        1 MFQ      0.053000
     10 C12         9.3790    2.3210   -3.0990 ca        1 MFQ     -0.117000
     11 C16         7.5530    0.2090    0.4330 c3        1 MFQ      0.076000
     12 C13         8.6730    2.1670   -1.9110 ca        1 MFQ     -0.105000
     13 C20         1.3800    1.5310    2.0470 ca        1 MFQ      0.091000
     14 N2          5.0880    2.2550   -1.4620 n2        1 MFQ     -0.210000
     15 N6          2.9660    2.3530   -0.2620 n2        1 MFQ     -0.253000
     16 N7          6.9630    1.0700   -0.5620 nh        1 MFQ     -0.227000
     17 N18         6.6070   -2.2310    0.6270 n1        1 MFQ     -0.016000
     18 N19         2.7040    1.1310    1.8150 nh        1 MFQ     -0.252000
     19 C21         0.4130    1.5690    1.0140 ca        1 MFQ     -0.140500
     20 C23        -1.2970    2.1390    2.6210 ca        1 MFQ     -0.025000
     21 C24        -0.3610    2.1060    3.6590 ca        1 MFQ     -0.134500
     22 C25         0.9660    1.8090    3.3740 ca        1 MFQ     -0.140500
     23 O26        -2.6520    2.3390    2.8820 os        1 MFQ     -0.301000
     24 C27        -2.9600    3.6620    3.3340 c3        1 MFQ     -0.076000
     25 C28        -4.4550    0.2080    1.1090 c1        1 MFQ      0.031000
     26 C29        -3.5600   -0.2660    2.2330 c3        1 MFQ     -0.271000
     27 N30        -3.7200   -1.7450    2.3850 n4        1 MFQ      0.029000
     28 C31        -2.6880   -2.3000    3.2940 c3        1 MFQ     -0.193000
     29 C32        -5.0910   -2.0800    2.8540 c3        1 MFQ     -0.193000
     30 O33        -4.4630    1.4370    0.7630 oh        1 MFQ     -0.109000
     31 H22        -1.6470    1.9510    0.4860 ha        1 MFQ      0.142500
     32 H1L         3.3880    3.2920   -2.0840 h5        1 MFQ      0.199000
     33 H4          5.2320    0.4360    1.4490 ha        1 MFQ      0.155000
     34 H10         7.8450   -0.0650   -4.9890 ha        1 MFQ      0.155000
     35 H12        10.1690    3.0850   -3.1660 ha        1 MFQ      0.146000
     36 H161        8.6620    0.1310    0.2120 h1        1 MFQ      0.132000
     37 H162        7.4290    0.6990    1.4470 h1        1 MFQ      0.132000
     38 H13         8.9090    2.8160   -1.0520 ha        1 MFQ      0.148000
     39 H151       10.7080    0.9630   -5.4880 hc        1 MFQ      0.093667
     40 H152        9.1990    1.4670   -6.3570 hc        1 MFQ      0.093667
     41 H153       10.2520    2.7160   -5.5690 hc        1 MFQ      0.093667
     42 H19         3.2400    0.9520    2.6400 hn        1 MFQ      0.231000
     43 H21         0.6940    1.3600   -0.0310 ha        1 MFQ      0.161000
     44 H24        -0.6700    2.3300    4.6910 ha        1 MFQ      0.142500
     45 H25         1.6960    1.8010    4.1990 ha        1 MFQ      0.161000
     46 H271       -2.7060    4.4060    2.5410 h1        1 MFQ      0.094333
     47 H272       -2.4030    3.8890    4.2750 h1        1 MFQ      0.094333
     48 H28        -4.0630    3.6340    3.5210 h1        1 MFQ      0.094333
     49 H291       -3.8200    0.2400    3.2090 hx        1 MFQ      0.170000
     50 H292       -2.4730   -0.0320    2.0130 hx        1 MFQ      0.170000
     51 H311       -2.8360   -3.4090    3.3870 hx        1 MFQ      0.144833
     52 H312       -1.6670   -2.0900    2.8750 hx        1 MFQ      0.144833
     53 H313       -2.7820   -1.8220    4.3050 hx        1 MFQ      0.144833
     54 H321       -5.8370   -1.6300    2.1400 hx        1 MFQ      0.144833
     55 H322       -5.2110   -3.1960    2.8770 hx        1 MFQ      0.144833
     56 H323       -5.2500   -1.6610    3.8820 hx        1 MFQ      0.144833
     57 H33        -3.8710    2.0620    1.2510 ho        1 MFQ      0.227000
     58 C15         9.8470    1.6790   -5.4710 c3        1 MFQ     -0.187000
     59 C17         7.0140   -1.1470    0.5240 c1        1 MFQ     -0.180000
     60 H301       -3.6010   -2.1620    1.4480 hn        1 MFQ      0.257000
     61 BR          6.0260   -0.9250   -2.8700 br        1 MFQ      0.064000
@<TRIPOS>BOND
     1    1   19 1   
     2    1   20 1   
     3    1   31 1   
     4    2   14 1   
     5    2   15 1   
     6    2   32 1   
     7    3    4 1   
     8    3   15 1   
     9    3   18 1   
    10    4    5 1   
    11    4   33 1   
    12    5   14 1   
    13    5   16 1   
    14    6    7 1   
    15    6   10 1   
    16    6   58 1   
    17    7    8 1   
    18    7   34 1   
    19    8    9 1   
    20    8   61 1   
    21    9   12 1   
    22    9   16 1   
    23   10   12 1   
    24   10   35 1   
    25   11   16 1   
    26   11   36 1   
    27   11   37 1   
    28   11   59 1   
    29   12   38 1   
    30   13   18 1   
    31   13   19 1   
    32   13   22 1   
    33   17   59 1   
    34   18   42 1   
    35   19   43 1   
    36   20   21 1   
    37   20   23 1   
    38   21   22 1   
    39   21   44 1   
    40   22   45 1   
    41   23   24 1   
    42   24   46 1   
    43   24   47 1   
    44   24   48 1   
    45   25   26 1   
    46   25   30 1   
    47   26   27 1   
    48   26   49 1   
    49   26   50 1   
    50   27   28 1   
    51   27   29 1   
    52   27   60 1   
    53   28   51 1   
    54   28   52 1   
    55   28   53 1   
    56   29   54 1   
    57   29   55 1   
    58   29   56 1   
    59   30   57 1   
    60   39   58 1   
    61   40   58 1   
    62   41   58 1   
@<TRIPOS>SUBSTRUCTURE
     1 MFQ         1 TEMP              0 ****  ****    0 ROOT
