@<TRIPOS>MOLECULE
MFR
   29    30     1     0     0
SMALL
bcc


@<TRIPOS>ATOM
      1 C2          0.0300   -0.0170   -0.0560 c3        1 MFR     -0.270000
      2 C3          1.5280    0.0150    0.0590 c1        1 MFR     -0.131000
      3 C1         -0.7610   -0.0150    1.2210 c2        1 MFR      0.225000
      4 C11        -1.6680    0.0510    4.5590 c2        1 MFR      0.145000
      5 C12        -4.0020    0.1230    4.6480 c2        1 MFR      0.129000
      6 N7         -3.9920   -0.0040    6.0340 n7        1 MFR     -0.180000
      7 C13        -2.7620   -0.0590    6.6790 c2        1 MFR     -0.048000
      8 C14        -1.5850   -0.0540    5.9790 c1        1 MFR     -0.396000
      9 N5         -2.8520    0.1880    3.9020 n2        1 MFR     -0.195000
     10 C9         -0.4120    0.0470    3.8400 c2        1 MFR     -0.065000
     11 C8          0.7910    0.0590    4.5450 c2        1 MFR     -0.016000
     12 N2          1.8750    0.0570    3.6570 na        1 MFR     -0.207000
     13 C10        -0.0820    0.0300    2.4200 c2        1 MFR     -0.243000
     14 O1         -2.0960   -0.0660    1.1510 oh        1 MFR     -0.244000
     15 C15        -2.0730   -0.1150   -1.5730 c1        1 MFR     -0.082000
     16 C4          1.4020    0.0420    2.3530 c2        1 MFR      0.184000
     17 N1          2.1600    0.0380    1.2020 n2        1 MFR     -0.246000
     18 H2         -0.2450    0.8960   -0.6570 hc        1 MFR      0.140500
     19 H3         -0.2070   -0.9560   -0.6330 hc        1 MFR      0.140500
     20 HN6        -5.1740    0.0540    2.9930 hn        1 MFR      0.197500
     21 HN6A       -5.8540    0.8640    4.2660 hn        1 MFR      0.197500
     22 H13        -4.8530   -0.0820    6.5320 hn        1 MFR      0.237000
     23 H14        -2.8120   -0.1100    7.7800 h4        1 MFR      0.160000
     24 H8          0.9230    0.0620    5.6350 h4        1 MFR      0.216000
     25 HN2         2.8300    0.0630    3.9140 hn        1 MFR      0.269000
     26 H15        -2.3670   -0.0910    0.1750 ho        1 MFR      0.288000
     27 H15A       -1.9250    0.7920   -2.1730 ha        1 MFR      0.053500
     28 H15B       -1.8930   -1.0410   -2.1340 ha        1 MFR      0.053500
     29 N6         -5.2680    0.1020    3.9890 n8        1 MFR     -0.312000
@<TRIPOS>BOND
     1    1    2 1   
     2    1    3 1   
     3    1   18 1   
     4    1   19 1   
     5    2   17 1   
     6    3   13 1   
     7    3   14 1   
     8    4    8 1   
     9    4    9 1   
    10    4   10 1   
    11    5    6 1   
    12    5    9 1   
    13    5   29 1   
    14    6    7 1   
    15    6   22 1   
    16    7    8 1   
    17    7   23 1   
    18   10   11 1   
    19   10   13 1   
    20   11   12 1   
    21   11   24 1   
    22   12   16 1   
    23   12   25 1   
    24   13   16 1   
    25   14   26 1   
    26   15   27 1   
    27   15   28 1   
    28   16   17 1   
    29   20   29 1   
    30   21   29 1   
@<TRIPOS>SUBSTRUCTURE
     1 MFR         1 TEMP              0 ****  ****    0 ROOT
