@<TRIPOS>MOLECULE
MFR
   30    32     1     0     0
SMALL
bcc


@<TRIPOS>ATOM
      1 C2          0.0500   -0.0500   -0.1070 c2        1 MFR     -0.234000
      2 C3          1.4520   -0.0710    0.0440 c2        1 MFR     -0.002000
      3 C1         -0.7710   -0.0080    1.0290 c2        1 MFR      0.160000
      4 C11        -1.8210    0.0930    4.3490 c2        1 MFR      0.153000
      5 C12        -4.2410    0.1230    4.5460 c2        1 MFR      0.167000
      6 N7         -4.2290    0.0560    5.8620 n2        1 MFR     -0.217000
      7 C13        -2.9780    0.0810    6.5580 c3        1 MFR     -0.204000
      8 C14        -1.7230    0.1020    5.8360 c1        1 MFR     -0.013000
      9 N5         -3.0270    0.1280    3.7430 n3        1 MFR     -0.211000
     10 C9         -0.5850    0.0560    3.6920 c2        1 MFR     -0.180000
     11 C8          0.6340    0.0550    4.4780 c2        1 MFR      0.131000
     12 N2          1.7180    0.0140    3.6730 na        1 MFR     -0.134000
     13 C10        -0.1680    0.0150    2.3000 c2        1 MFR     -0.118000
     14 O1         -2.1430    0.0060    0.9750 os        1 MFR     -0.247000
     15 C15        -2.7370    0.0590   -0.3270 c3        1 MFR     -0.076000
     16 C4          1.2850   -0.0120    2.3100 c2        1 MFR      0.044000
     17 N1          2.0950   -0.0540    1.2240 n2        1 MFR     -0.117000
     18 H2         -0.3760   -0.0680   -1.1200 ha        1 MFR      0.174000
     19 H3          2.1110   -0.1050   -0.8470 h4        1 MFR      0.196000
     20 HN6        -3.8330    0.1080   -0.1010 h1        1 MFR      0.105333
     21 HN6A       -5.5660   -0.4090    3.0880 hn        1 MFR      0.224500
     22 H13        -2.9730    0.9840    7.2650 h1        1 MFR      0.222500
     23 H14        -2.9550   -0.8100    7.2770 h1        1 MFR      0.222500
     24 H8          0.6890    0.0850    5.5820 h4        1 MFR      0.238000
     25 HN2         2.6760    0.0060    3.9480 hn        1 MFR      0.301000
     26 H15        -3.1110    0.1930    2.7450 hn        1 MFR      0.291000
     27 H15A       -2.4890   -0.8670   -0.9010 h1        1 MFR      0.105333
     28 H15B       -2.4020    0.9750   -0.8710 h1        1 MFR      0.105333
     29 N6         -5.4380    0.2750    3.8040 n3        1 MFR     -0.312000
     30 H63        -6.2490    0.3990    4.3790 hn        1 MFR      0.224500
@<TRIPOS>BOND
     1    1    2 1   
     2    1    3 1   
     3    1   18 1   
     4    2   17 1   
     5    2   19 1   
     6    3   13 1   
     7    3   14 1   
     8    4    8 1   
     9    4    9 1   
    10    4   10 1   
    11    5    6 1   
    12    5    9 1   
    13    5   29 1   
    14    6    7 1   
    15    7    8 1   
    16    7   22 1   
    17    7   23 1   
    18    9   26 1   
    19   10   11 1   
    20   10   13 1   
    21   11   12 1   
    22   11   24 1   
    23   12   16 1   
    24   12   25 1   
    25   13   16 1   
    26   14   15 1   
    27   15   20 1   
    28   15   27 1   
    29   15   28 1   
    30   16   17 1   
    31   21   29 1   
    32   29   30 1   
@<TRIPOS>SUBSTRUCTURE
     1 MFR         1 TEMP              0 ****  ****    0 ROOT
