@<TRIPOS>MOLECULE
MFR
   29    30     1     0     0
SMALL
bcc


@<TRIPOS>ATOM
      1 C2          0.7670   -0.6860   -0.0440 c3        1 MFR     -0.264000
      2 C3          2.1830   -0.2990    0.2490 c1        1 MFR     -0.100000
      3 C1         -0.2120   -0.5520    1.0780 c2        1 MFR      0.164000
      4 C11        -1.7210    0.0590    4.1150 c2        1 MFR      0.158000
      5 C12        -4.0440   -0.0280    3.8440 c2        1 MFR      0.182000
      6 N7         -4.2190   -0.3080    5.1990 n3        1 MFR     -0.212000
      7 C13        -3.0970   -0.2990    6.0290 c2        1 MFR     -0.045000
      8 C14        -1.8420   -0.1340    5.5210 c1        1 MFR     -0.409000
      9 N5         -2.7950    0.2050    3.2950 n2        1 MFR     -0.245000
     10 C9         -0.3680    0.1680    3.6070 c2        1 MFR     -0.073000
     11 C8          0.6740    0.5320    4.4540 c2        1 MFR     -0.002000
     12 N2          1.8900    0.5710    3.7500 na        1 MFR     -0.216000
     13 C10         0.2070   -0.0780    2.2900 c2        1 MFR     -0.211000
     14 O1         -1.5080   -0.9090    0.8810 oh        1 MFR     -0.217000
     15 C15        -3.6900    1.3170    1.0420 c1        1 MFR     -0.048000
     16 C4          1.6710    0.2080    2.4300 c2        1 MFR      0.195000
     17 N1          2.5970    0.1110    1.4260 n2        1 MFR     -0.244000
     18 H2          0.4310   -0.0460   -0.9080 hc        1 MFR      0.149000
     19 H3          0.7860   -1.7540   -0.4000 hc        1 MFR      0.149000
     20 HN6        -4.9730    0.3240    2.0570 hn        1 MFR      0.232000
     21 HN6A       -6.0150    0.2470    3.3930 hn        1 MFR      0.232000
     22 H13        -5.1230   -0.5440    5.5460 hn        1 MFR      0.233000
     23 H14        -3.3100   -0.4450    7.1010 h4        1 MFR      0.159000
     24 H8          0.6170    0.7490    5.5280 h4        1 MFR      0.213000
     25 HN2         2.7710    0.7990    4.1370 hn        1 MFR      0.272000
     26 H15        -1.5890   -1.2720   -0.0180 ho        1 MFR      0.228000
     27 H15A       -3.0500    0.7320    0.3670 ha        1 MFR      0.033500
     28 H15B       -3.2230    2.2620    1.3500 ha        1 MFR      0.033500
     29 N6         -5.1590   -0.0590    2.9880 n3        1 MFR     -0.346000
@<TRIPOS>BOND
     1    1    2 1   
     2    1    3 1   
     3    1   18 1   
     4    1   19 1   
     5    2   17 1   
     6    3   13 1   
     7    3   14 1   
     8    4    8 1   
     9    4    9 1   
    10    4   10 1   
    11    5    6 1   
    12    5    9 1   
    13    5   29 1   
    14    6    7 1   
    15    6   22 1   
    16    7    8 1   
    17    7   23 1   
    18   10   11 1   
    19   10   13 1   
    20   11   12 1   
    21   11   24 1   
    22   12   16 1   
    23   12   25 1   
    24   13   16 1   
    25   14   26 1   
    26   15   27 1   
    27   15   28 1   
    28   16   17 1   
    29   20   29 1   
    30   21   29 1   
@<TRIPOS>SUBSTRUCTURE
     1 MFR         1 TEMP              0 ****  ****    0 ROOT
