@<TRIPOS>MOLECULE
MFR
   29    31     1     0     0
SMALL
bcc


@<TRIPOS>ATOM
      1 C2         -2.8420   -1.5290    0.2740 ca        1 MFR     -0.364300
      2 C3         -3.8930   -0.6270   -0.0250 ca        1 MFR      0.447200
      3 C1         -1.5220   -1.0770    0.2430 ca        1 MFR      0.217100
      4 C11         1.2770    0.7780   -0.1050 ca        1 MFR      0.571100
      5 C12         3.1320   -0.5210   -0.6560 ca        1 MFR      0.858900
      6 N7          3.9720    0.1420    0.2360 nb        1 MFR     -0.752000
      7 C13         3.4160    1.1490    0.9250 ca        1 MFR      0.460200
      8 C14         2.0710    1.5280    0.7960 ca        1 MFR     -0.416600
      9 N5          1.7810   -0.2420   -0.8350 nb        1 MFR     -0.725000
     10 C9         -0.1300    1.1260   -0.2530 cc        1 MFR     -0.184000
     11 C8         -0.6040    2.3990   -0.5870 cd        1 MFR     -0.091100
     12 N2         -1.9950    2.3930   -0.6570 na        1 MFR     -0.279100
     13 C10        -1.2800    0.2690   -0.1020 ca        1 MFR     -0.191100
     14 O1         -0.4270   -1.8480    0.5470 os        1 MFR     -0.302900
     15 C15        -0.6880   -3.2150    0.8540 c3        1 MFR      0.110700
     16 C4         -2.4480    1.0970   -0.3720 ca        1 MFR      0.438800
     17 N1         -3.7470    0.6620   -0.3390 nb        1 MFR     -0.694000
     18 H2         -3.0900   -2.5670    0.5260 ha        1 MFR      0.146000
     19 H3         -4.9390   -0.9870   -0.0020 h4        1 MFR      0.022100
     20 HN6         4.5660   -1.8820   -1.1760 hn        1 MFR      0.423300
     21 HN6A        3.0710   -2.1310   -1.9150 hn        1 MFR      0.423300
     22 H13         4.0920    1.6750    1.6250 h4        1 MFR      0.023100
     23 H14         1.6450    2.3500    1.3790 ha        1 MFR      0.153000
     24 H8         -0.0390    3.3120   -0.7860 h4        1 MFR      0.176000
     25 HN2        -2.5700    3.1550   -0.9060 hn        1 MFR      0.312700
     26 H15        -1.3250   -3.2970    1.7680 h1        1 MFR      0.047033
     27 H15A       -1.1720   -3.7280   -0.0120 h1        1 MFR      0.047033
     28 H15B        0.3320   -3.6340    1.0440 h1        1 MFR      0.047033
     29 N6          3.7030   -1.4970   -1.4830 nh        1 MFR     -0.924500
@<TRIPOS>BOND
     1    1    2 ar  
     2    1    3 ar  
     3    1   18 1   
     4    2   17 ar  
     5    2   19 1   
     6    3   13 ar  
     7    3   14 1   
     8    4    8 ar  
     9    4    9 ar  
    10    4   10 1   
    11    5    6 ar  
    12    5    9 ar  
    13    5   29 1   
    14    6    7 ar  
    15    7    8 ar  
    16    7   22 1   
    17    8   23 1   
    18   10   11 2   
    19   10   13 1   
    20   11   12 1   
    21   11   24 1   
    22   12   16 1   
    23   12   25 1   
    24   13   16 ar  
    25   14   15 1   
    26   15   26 1   
    27   15   27 1   
    28   15   28 1   
    29   16   17 ar  
    30   20   29 1   
    31   21   29 1   
@<TRIPOS>SUBSTRUCTURE
     1 MFR         1 TEMP              0 ****  ****    0 ROOT
