@<TRIPOS>MOLECULE
MFR
   29    23     1     0     0
SMALL
bcc


@<TRIPOS>ATOM
      1 C2          1.5380   -0.0350   -2.9440 c1        1 MFR     -0.293000
      2 C3          2.9180   -0.0860   -2.8140 c1        1 MFR     -0.021000
      3 C1          0.7550    0.0430   -1.8380 c1        1 MFR      0.159000
      4 C11        -0.3870    0.1460    1.4080 c1        1 MFR      0.131000
      5 N6         -2.8200   -2.2090    2.6070 n3        1 MFR     -0.317000
      6 C12        -2.2160   -1.0130    2.2650 c2        1 MFR      0.135000
      7 N7         -2.8310    0.1860    2.5750 n1        1 MFR     -0.224000
      8 C13        -2.2240    1.3340    2.3010 c1        1 MFR     -0.135000
      9 C14        -0.9940    1.3310    1.7140 c1        1 MFR     -0.135000
     10 N5         -1.0040   -1.0180    1.6860 n2        1 MFR     -0.235000
     11 C9          0.8050    0.1450    0.6940 c1        1 MFR     -0.108500
     12 C8          1.8510    0.1390    1.6040 c1        1 MFR      0.006500
     13 N2          3.0160    0.0630    0.9030 n2        1 MFR     -0.194000
     14 C10         1.3410    0.0710   -0.5700 c1        1 MFR     -0.108500
     15 O1         -0.6060   -0.3900   -1.9060 os        1 MFR     -0.200000
     16 C15        -1.4420    0.4310   -2.7510 c3        1 MFR     -0.079000
     17 C4          2.7040    0.0200   -0.4460 c1        1 MFR      0.006500
     18 N1          3.4930   -0.0580   -1.5660 n1        1 MFR     -0.163000
     19 H2          1.1270   -0.0550   -3.8390 ha        1 MFR      0.147000
     20 H3          3.4740   -0.1410   -3.6000 ha        1 MFR      0.160000
     21 HN6        -3.6580   -2.2080    2.9820 hn        1 MFR      0.213000
     22 HN6A       -2.3770   -2.9980    2.4780 hn        1 MFR      0.213000
     23 H13        -2.6650    2.1950    2.5240 ha        1 MFR      0.163000
     24 H14        -0.5590    2.1490    1.5170 ha        1 MFR      0.163000
     25 H8          1.7640    0.0670    2.5710 DU        1 MFR      0.226000
     26 HN2         3.9010    0.0430    1.2780 DU        1 MFR      0.226000
     27 H15        -1.4730    0.0410   -3.6650 h1        1 MFR      0.087667
     28 H15A       -1.0700    1.3420   -2.7930 h1        1 MFR      0.087667
     29 H15B       -2.3580    0.4650   -2.3760 h1        1 MFR      0.087667
@<TRIPOS>BOND
     1    1    3 1   
     2    1   19 1   
     3    2   18 1   
     4    2   20 1   
     5    3   15 1   
     6    4   10 1   
     7    5    6 1   
     8    5   21 1   
     9    5   22 1   
    10    6    7 1   
    11    6   10 1   
    12    8    9 1   
    13    8   23 1   
    14    9   24 1   
    15   11   12 1   
    16   11   14 1   
    17   12   13 1   
    18   13   17 1   
    19   14   17 1   
    20   15   16 1   
    21   16   27 1   
    22   16   28 1   
    23   16   29 1   
@<TRIPOS>SUBSTRUCTURE
     1 MFR         1 TEMP              0 ****  ****    0 ROOT
