@<TRIPOS>MOLECULE
MFT
   37    38     1     0     0
SMALL
bcc


@<TRIPOS>ATOM
      1 P           2.7700    0.6230   -1.4960 p5        1 MFT      1.340900
      2 N1         -1.9800   -0.8390    0.1630 n         1 MFT     -0.368000
      3 C2         -3.3160   -0.7660    0.6070 c         1 MFT      0.795500
      4 O2         -3.8130   -1.6290    1.3780 o         1 MFT     -0.708500
      5 N3         -4.1420    0.2820    0.1350 n         1 MFT     -0.503400
      6 C4         -3.6550    1.2840   -0.7480 c         1 MFT      0.719700
      7 O4         -4.4470    2.1790   -1.1140 o         1 MFT     -0.685500
      8 C5         -2.2580    1.1660   -1.1490 cc        1 MFT     -0.294400
      9 C6         -1.4800    0.1400   -0.6810 cd        1 MFT      0.059600
     10 C1'        -1.1010   -1.8670    0.7510 c3        1 MFT      0.303500
     11 O1P         1.2870    0.8790   -1.7000 o         1 MFT     -0.925500
     12 C2'        -0.3220   -2.6750   -0.3080 c3        1 MFT     -0.118400
     13 C21        -5.4960    0.3100    0.6140 c3        1 MFT      0.090300
     14 O2P         3.7060    1.7630   -1.7210 o         1 MFT     -0.925500
     15 C3'         1.0670   -2.0360   -0.3200 c3        1 MFT      0.107100
     16 O3'         2.0650   -3.0250   -0.4390 oh        1 MFT     -0.655800
     17 C4'         1.1770   -1.2780    1.0200 c3        1 MFT      0.062100
     18 O4'        -0.1400   -1.2850    1.6290 os        1 MFT     -0.440600
     19 C5'         1.6470    0.1920    0.8850 c3        1 MFT      0.222400
     20 O5'         2.8280    0.3170    0.2100 os        1 MFT     -0.568200
     21 C5M        -1.6790    2.1820   -2.0530 c3        1 MFT     -0.043900
     22 H6         -0.3860    0.0780   -0.9910 h4        1 MFT      0.301000
     23 H1'        -1.7490   -2.5240    1.4030 h2        1 MFT      0.085700
     24 H2'        -0.2660   -3.7420    0.0190 hc        1 MFT      0.051700
     25 H2'A       -0.7890   -2.6370   -1.3190 hc        1 MFT      0.051700
     26 H21        -5.5050    0.3300    1.7370 h1        1 MFT      0.040033
     27 H21A       -6.0170    1.2200    0.2150 h1        1 MFT      0.040033
     28 H21B       -6.0400   -0.6130    0.2780 h1        1 MFT      0.040033
     29 H3'         1.1780   -1.2900   -1.1760 h1        1 MFT      0.150700
     30 HO3'        2.7890   -2.5870   -0.9360 ho        1 MFT      0.480000
     31 H4'         1.8380   -1.8360    1.7340 h1        1 MFT      0.047700
     32 H5'         0.8290    0.7950    0.4010 h1        1 MFT     -0.001300
     33 H5'A        1.7880    0.5720    1.9410 h1        1 MFT     -0.001300
     34 H5M        -1.8750    3.2080   -1.6540 hc        1 MFT      0.058367
     35 H5MA       -0.5640    2.0210   -2.1440 hc        1 MFT      0.058367
     36 H5MB       -2.1480    2.1110   -3.0660 hc        1 MFT      0.058367
     37 O8          3.1470   -0.7670   -1.9510 o         1 MFT     -0.925500
@<TRIPOS>BOND
     1    1   11 1   
     2    1   14 1   
     3    1   20 1   
     4    1   37 1   
     5    2    3 1   
     6    2    9 1   
     7    2   10 1   
     8    3    4 2   
     9    3    5 1   
    10    5    6 1   
    11    5   13 1   
    12    6    7 2   
    13    6    8 1   
    14    8    9 2   
    15    8   21 1   
    16    9   22 1   
    17   10   12 1   
    18   10   18 1   
    19   10   23 1   
    20   12   15 1   
    21   12   24 1   
    22   12   25 1   
    23   13   26 1   
    24   13   27 1   
    25   13   28 1   
    26   15   16 1   
    27   15   17 1   
    28   15   29 1   
    29   16   30 1   
    30   17   18 1   
    31   17   19 1   
    32   17   31 1   
    33   19   20 1   
    34   19   32 1   
    35   19   33 1   
    36   21   34 1   
    37   21   35 1   
    38   21   36 1   
@<TRIPOS>SUBSTRUCTURE
     1 MFT         1 TEMP              0 ****  ****    0 ROOT
