@<TRIPOS>MOLECULE
MFU
   26    26     1     0     0
SMALL
bcc


@<TRIPOS>ATOM
      1 C1         -0.7170   -0.7300    0.8390 c3        1 MFU      0.290900
      2 C2         -1.0380   -0.5530   -0.6600 c3        1 MFU      0.098100
      3 C3         -0.2810    0.6570   -1.2340 c3        1 MFU      0.086100
      4 C4          1.2120    0.5570   -0.8700 c3        1 MFU      0.079100
      5 C5          1.3580    0.4510    0.6530 c3        1 MFU      0.110100
      6 C6          2.8020    0.2910    1.0790 c3        1 MFU     -0.091100
      7 O1         -1.2950    0.3640    1.5270 os        1 MFU     -0.455600
      8 O2         -2.4310   -0.4540   -0.8460 oh        1 MFU     -0.572800
      9 O3         -0.4540    0.7530   -2.6300 oh        1 MFU     -0.577800
     10 O4          1.8000   -0.5350   -1.5530 oh        1 MFU     -0.595800
     11 O5          0.6660   -0.7150    1.1240 os        1 MFU     -0.444600
     12 CM         -1.4020    0.1710    2.9310 c3        1 MFU      0.120700
     13 H1         -1.0840   -1.7210    1.2290 h2        1 MFU      0.089700
     14 H2         -0.7420   -1.4910   -1.2090 h1        1 MFU      0.086700
     15 H3         -0.7180    1.6090   -0.8210 h1        1 MFU      0.092700
     16 H4          1.7590    1.4610   -1.2590 h1        1 MFU      0.095700
     17 H5          0.8970    1.3610    1.1300 h1        1 MFU      0.066700
     18 H61         2.8580    0.0830    2.1730 hc        1 MFU      0.051367
     19 H62         3.2770   -0.5560    0.5270 hc        1 MFU      0.051367
     20 H63         3.3580    1.2310    0.8510 hc        1 MFU      0.051367
     21 HO2        -2.7160    0.3770   -0.4420 ho        1 MFU      0.417000
     22 HO3         0.0410    0.0240   -3.0300 ho        1 MFU      0.414000
     23 HO4         1.5910   -1.3340   -1.0490 ho        1 MFU      0.411000
     24 HM1        -1.8070    1.1400    3.3130 h1        1 MFU      0.041700
     25 HM2        -2.1070   -0.6670    3.1510 h1        1 MFU      0.041700
     26 HM3        -0.3970   -0.0430    3.3710 h1        1 MFU      0.041700
@<TRIPOS>BOND
     1    1    2 1   
     2    1    7 1   
     3    1   11 1   
     4    1   13 1   
     5    2    3 1   
     6    2    8 1   
     7    2   14 1   
     8    3    4 1   
     9    3    9 1   
    10    3   15 1   
    11    4    5 1   
    12    4   10 1   
    13    4   16 1   
    14    5    6 1   
    15    5   11 1   
    16    5   17 1   
    17    6   18 1   
    18    6   19 1   
    19    6   20 1   
    20    7   12 1   
    21    8   21 1   
    22    9   22 1   
    23   10   23 1   
    24   12   24 1   
    25   12   25 1   
    26   12   26 1   
@<TRIPOS>SUBSTRUCTURE
     1 MFU         1 TEMP              0 ****  ****    0 ROOT
