@<TRIPOS>MOLECULE
MFW
   14    14     1     0     0
SMALL
bcc


@<TRIPOS>ATOM
      1 C1          1.4520    0.7730   -0.0750 c3        1 MFW     -0.079400
      2 O1         -2.0670   -0.0360    0.2070 o         1 MFW     -0.529100
      3 C2          1.4760   -0.7530   -0.0250 c3        1 MFW     -0.079400
      4 C3          0.0380   -1.2420    0.0530 c3        1 MFW     -0.190400
      5 C4         -0.8400   -0.0200    0.1180 c         1 MFW      0.573100
      6 C5          0.0060    1.2250    0.0580 c3        1 MFW     -0.190400
      7 H1          2.0740    1.1990    0.7510 hc        1 MFW      0.047200
      8 H2          1.8870    1.1370   -1.0390 hc        1 MFW      0.047200
      9 H4          1.9820   -1.1650   -0.9340 hc        1 MFW      0.047200
     10 H5          2.0550   -1.1040    0.8650 hc        1 MFW      0.047200
     11 H6         -0.2380   -1.8530   -0.8450 hc        1 MFW      0.076200
     12 H7         -0.1320   -1.8790    0.9580 hc        1 MFW      0.076200
     13 H9         -0.1510    1.8300    0.9860 hc        1 MFW      0.076200
     14 H10        -0.3090    1.8550   -0.8120 hc        1 MFW      0.076200
@<TRIPOS>BOND
     1    1    3 1   
     2    1    6 1   
     3    1    7 1   
     4    1    8 1   
     5    2    5 2   
     6    3    4 1   
     7    3    9 1   
     8    3   10 1   
     9    4    5 1   
    10    4   11 1   
    11    4   12 1   
    12    5    6 1   
    13    6   13 1   
    14    6   14 1   
@<TRIPOS>SUBSTRUCTURE
     1 MFW         1 TEMP              0 ****  ****    0 ROOT
