@<TRIPOS>MOLECULE
MFW
   14    14     1     0     0
SMALL
bcc


@<TRIPOS>ATOM
      1 C1          0.0530    0.2300   -0.0730 c3        1 MFW     -0.079400
      2 O1          0.7570    0.9490    3.4060 o         1 MFW     -0.529100
      3 C2          1.5220   -0.1700    0.0480 c3        1 MFW     -0.079400
      4 C3          1.9500    0.0440    1.4910 c3        1 MFW     -0.190400
      5 C4          0.7680    0.6300    2.2180 c         1 MFW      0.573100
      6 C5         -0.4000    0.7670    1.2760 c3        1 MFW     -0.190400
      7 H1         -0.0760    1.0070   -0.8670 hc        1 MFW      0.047200
      8 H2         -0.5670   -0.6530   -0.3680 hc        1 MFW      0.047200
      9 H4          2.1500    0.4490   -0.6410 hc        1 MFW      0.047200
     10 H5          1.6610   -1.2390   -0.2490 hc        1 MFW      0.047200
     11 H6          2.2500   -0.9190    1.9780 hc        1 MFW      0.076200
     12 H7          2.8220    0.7430    1.5630 hc        1 MFW      0.076200
     13 H9         -1.2760    0.1940    1.6740 hc        1 MFW      0.076200
     14 H10        -0.7030    1.8430    1.2100 hc        1 MFW      0.076200
@<TRIPOS>BOND
     1    1    3 1   
     2    1    6 1   
     3    1    7 1   
     4    1    8 1   
     5    2    5 2   
     6    3    4 1   
     7    3    9 1   
     8    3   10 1   
     9    4    5 1   
    10    4   11 1   
    11    4   12 1   
    12    5    6 1   
    13    6   13 1   
    14    6   14 1   
@<TRIPOS>SUBSTRUCTURE
     1 MFW         1 TEMP              0 ****  ****    0 ROOT
