@<TRIPOS>MOLECULE
MFW
   14    14     1     0     0
SMALL
bcc


@<TRIPOS>ATOM
      1 C1          0.0490    0.2030   -0.0640 c3        1 MFW     -0.079400
      2 O1          0.7540    0.9860    3.4020 o         1 MFW     -0.529100
      3 C2          1.5260   -0.1650    0.0560 c3        1 MFW     -0.079400
      4 C3          1.9560    0.0780    1.4940 c3        1 MFW     -0.190400
      5 C4          0.7660    0.6500    2.2180 c         1 MFW      0.573100
      6 C5         -0.4080    0.7500    1.2800 c3        1 MFW     -0.190400
      7 H1         -0.1000    0.9650   -0.8690 hc        1 MFW      0.047200
      8 H2         -0.5530   -0.6980   -0.3430 hc        1 MFW      0.047200
      9 H4          2.1390    0.4580   -0.6440 hc        1 MFW      0.047200
     10 H5          1.6860   -1.2350   -0.2270 hc        1 MFW      0.047200
     11 H6          2.2770   -0.8720    1.9930 hc        1 MFW      0.076200
     12 H7          2.8140    0.7950    1.5520 hc        1 MFW      0.076200
     13 H9         -0.7330    1.8190    1.1990 hc        1 MFW      0.076200
     14 H10        -1.2710    0.1670    1.6900 hc        1 MFW      0.076200
@<TRIPOS>BOND
     1    1    3 1   
     2    1    6 1   
     3    1    7 1   
     4    1    8 1   
     5    2    5 2   
     6    3    4 1   
     7    3    9 1   
     8    3   10 1   
     9    4    5 1   
    10    4   11 1   
    11    4   12 1   
    12    5    6 1   
    13    6   13 1   
    14    6   14 1   
@<TRIPOS>SUBSTRUCTURE
     1 MFW         1 TEMP              0 ****  ****    0 ROOT
