@<TRIPOS>MOLECULE
MFX
   52    52     1     0     0
SMALL
bcc


@<TRIPOS>ATOM
      1 F           1.4620    3.9360    1.0960 f         1 MFX     -0.136000
      2 O02         1.2080   -0.5320    0.8920 o         1 MFX     -0.425000
      3 O03         1.7370   -4.0170   -0.0960 o         1 MFX     -0.319000
      4 O           3.6190   -3.3370   -1.3290 os        1 MFX     -0.294000
      5 N01         3.0460    3.1540    3.3790 n7        1 MFX     -0.310000
      6 N02         1.9610   -2.4230    2.9970 n8        1 MFX     -0.367000
      7 N           5.2690    0.0870    0.3080 n7        1 MFX     -0.240000
      8 C01         0.7260    2.9340    4.3920 c1        1 MFX     -0.091000
      9 C02         0.9030   -3.1740    3.6400 c3        1 MFX     -0.177000
     10 C03         1.8350    3.7370    3.9130 c3        1 MFX     -0.101000
     11 C04         0.4360   -4.4290    3.0890 c1        1 MFX     -0.120000
     12 C05         0.6290    1.4880    4.3020 c3        1 MFX     -0.198000
     13 C06         6.5650   -0.0120    0.9480 c3        1 MFX     -0.084000
     14 C07        -0.1140    1.0840    3.0280 c3        1 MFX     -0.227000
     15 C08         6.7720   -1.3650    1.6480 c3        1 MFX     -0.232000
     16 C09         7.6700    0.2800    0.0190 c1        1 MFX     -0.024000
     17 C10        -0.3830   -0.3370    2.9860 c1        1 MFX     -0.065000
     18 C11         3.1020    2.5100    2.1630 c2        1 MFX      0.211000
     19 C12         4.1980    0.7740    0.7480 c2        1 MFX      0.192000
     20 C13         4.0980    1.4970    1.9570 c2        1 MFX     -0.258000
     21 C14         2.9630    0.7790   -0.1510 c3        1 MFX     -0.132000
     22 C15         2.2200    2.8000    1.0560 c2        1 MFX     -0.148000
     23 C16         3.9220   -1.9880   -1.2810 c1        1 MFX      0.032000
     24 C17         2.0990    1.9400   -0.0040 c1        1 MFX     -0.199000
     25 C18         2.7720   -1.6710   -0.4610 c2        1 MFX     -0.603000
     26 C19         2.2030   -0.5380    0.1400 c2        1 MFX      0.382000
     27 C20         2.4390   -3.1020   -0.4760 c2        1 MFX      0.359000
     28 C           4.6050    0.2420    3.8820 c3        1 MFX     -0.094000
     29 H01         2.1440    4.4150    4.7690 h1        1 MFX      0.159000
     30 H02         1.2360   -3.3730    4.7050 h1        1 MFX      0.140000
     31 H03        -0.0610   -2.5560    3.7310 h1        1 MFX      0.140000
     32 H03A        1.3680    4.4140    3.1220 h1        1 MFX      0.159000
     33 H04         3.6860    2.8110    4.0660 hn        1 MFX      0.209000
     34 H04A        0.7440   -4.6990    2.0670 ha        1 MFX      0.069000
     35 H05         0.0460    1.1150    5.1900 hc        1 MFX      0.097500
     36 H05A        1.6220    0.9570    4.3110 hc        1 MFX      0.097500
     37 H06         6.6390    0.8100    1.7420 h1        1 MFX      0.171000
     38 H07        -1.0490    1.7000    2.9180 hc        1 MFX      0.151000
     39 H07A        0.5370    1.3170    2.1180 hc        1 MFX      0.151000
     40 HN02        1.7570   -1.4380    3.0520 hn        1 MFX      0.152000
     41 H08         6.0110   -1.5020    2.4540 hc        1 MFX      0.092333
     42 H08A        6.6750   -2.2070    0.9210 hc        1 MFX      0.092333
     43 H09         7.7890   -1.3900    2.1060 hc        1 MFX      0.092333
     44 H09A        8.6640    0.0880    0.4600 ha        1 MFX      0.030000
     45 H10         2.0250   -2.6610    2.0220 hn        1 MFX      0.152000
     46 H10A       -0.9830   -0.6710    2.1250 ha        1 MFX      0.061000
     47 H16         5.1600   -0.4680   -0.5340 hn        1 MFX      0.294000
     48 H17         3.2760    0.7470   -1.2390 hc        1 MFX      0.165000
     49 H           4.1750   -0.6330    3.3380 h1        1 MFX      0.078000
     50 HA          3.8480    0.6470    4.5980 h1        1 MFX      0.078000
     51 HB          5.5400   -0.0420    4.4260 h1        1 MFX      0.078000
     52 O01         5.0200    1.2730    2.9810 os        1 MFX     -0.238000
@<TRIPOS>BOND
     1    1   22 1   
     2    2   26 1   
     3    3   27 1   
     4    4   23 1   
     5    4   27 1   
     6    5   10 1   
     7    5   18 1   
     8    5   33 1   
     9    6    9 1   
    10    6   40 1   
    11    6   45 1   
    12    7   13 1   
    13    7   19 1   
    14    7   47 1   
    15    8   10 1   
    16    8   12 1   
    17    9   11 1   
    18    9   30 1   
    19    9   31 1   
    20   10   29 1   
    21   10   32 1   
    22   11   34 1   
    23   12   14 1   
    24   12   35 1   
    25   12   36 1   
    26   13   15 1   
    27   13   16 1   
    28   13   37 1   
    29   14   17 1   
    30   14   38 1   
    31   14   39 1   
    32   15   41 1   
    33   15   42 1   
    34   15   43 1   
    35   16   44 1   
    36   17   46 1   
    37   18   20 1   
    38   18   22 1   
    39   19   20 1   
    40   19   21 1   
    41   20   52 1   
    42   21   24 1   
    43   21   26 1   
    44   21   48 1   
    45   22   24 1   
    46   23   25 1   
    47   25   26 1   
    48   25   27 1   
    49   28   49 1   
    50   28   50 1   
    51   28   51 1   
    52   28   52 1   
@<TRIPOS>SUBSTRUCTURE
     1 MFX         1 TEMP              0 ****  ****    0 ROOT
