@<TRIPOS>MOLECULE
MFX
   52    50     1     0     0
SMALL
bcc


@<TRIPOS>ATOM
      1 F           0.8440    2.7160    2.4390 f         1 MFX     -0.205500
      2 O02         3.3520   -0.2240   -4.1760 o         1 MFX     -0.391500
      3 O03         4.5260   -3.0720   -2.5130 o         1 MFX     -0.803800
      4 O           5.4160   -2.3700   -0.5740 o         1 MFX     -0.803800
      5 N01         1.9040    0.4070    3.6780 nh        1 MFX     -0.354100
      6 N02         1.0980   -2.4550    4.7120 n3        1 MFX     -0.704400
      7 N           5.3470    0.3150    0.1350 n4        1 MFX     -0.483000
      8 C01        -1.4540   -0.2100    3.6720 c2        1 MFX     -0.195000
      9 C02         0.7220   -3.6950    4.3310 c1        1 MFX     -0.035200
     10 C03         2.7470    0.4130    4.8490 c3        1 MFX     -0.034400
     11 C04         0.3820   -4.8230    4.0960 c1        1 MFX     -0.233500
     12 C05        -1.6350    1.0590    4.0510 ce        1 MFX     -0.048700
     13 C06         6.5620    1.2780    0.0970 cy        1 MFX      0.191700
     14 C07        -2.4780    1.4540    5.1040 cg        1 MFX     -0.147300
     15 C08         7.7900    0.7850    0.8100 c3        1 MFX     -0.112100
     16 C09         6.5230    1.0780   -1.4100 cv        1 MFX     -0.250200
     17 C10        -3.1920    1.8120    5.9970 c1        1 MFX     -0.177500
     18 C11         2.4860    0.9760    2.5080 ce        1 MFX      0.157900
     19 C12         4.1530    0.9210    0.7010 cf        1 MFX     -0.064000
     20 C13         3.6090    0.3780    1.8910 ce        1 MFX     -0.038500
     21 C14         3.5660    2.0640    0.1240 cf        1 MFX     -0.174100
     22 C15         1.9320    2.1300    1.8650 ce        1 MFX     -0.028200
     23 C16         5.4580    0.2340   -1.3690 ce        1 MFX      0.217000
     24 C17         2.4620    2.6640    0.6930 c1        1 MFX     -0.252800
     25 C18         4.7520   -0.7100   -2.1560 ce        1 MFX     -0.467300
     26 C19         4.0190   -0.4160   -3.2130 c1        1 MFX      0.659600
     27 C20         4.9020   -2.1880   -1.7140 c         1 MFX      0.971800
     28 C           3.7120   -1.9660    2.1590 c3        1 MFX      0.094700
     29 H01         2.1770   -0.0510    5.6970 h1        1 MFX      0.034033
     30 H02        -0.7860   -0.4680    2.8370 ha        1 MFX      0.124500
     31 H03         3.0740    1.4430    5.1660 h1        1 MFX      0.034033
     32 H03A        3.6640   -0.1990    4.6410 h1        1 MFX      0.034033
     33 H04         1.0320    0.8740    3.8740 hn        1 MFX      0.213700
     34 H04A        0.0890   -5.8140    3.8800 ha        1 MFX      0.165500
     35 H05        -1.9550   -1.0580    4.1580 ha        1 MFX      0.124500
     36 H05A       -1.1090    1.8880    3.5320 ha        1 MFX      0.165000
     37 H06         6.2520    2.2970    0.4510 hx        1 MFX      0.110700
     38 H07         3.7610    3.6180    5.6040 ha        1 MFX      0.000500
     39 H07A        3.9050    3.4570    6.2450 ha        1 MFX      0.000500
     40 HN02        0.4320   -1.7560    4.4290 hn        1 MFX      0.401300
     41 H08         7.6130    0.7520    1.9130 hc        1 MFX      0.060367
     42 H08A        8.0830   -0.2370    0.4640 hc        1 MFX      0.060367
     43 H09         8.6310    1.4890    0.6000 hc        1 MFX      0.060367
     44 H09A        7.1610    1.4780   -2.1820 ha        1 MFX      0.174000
     45 H10         2.0210   -2.2190    4.3850 hn        1 MFX      0.401300
     46 H10A       -3.8200    2.1330    6.7860 ha        1 MFX      0.157500
     47 H16         5.5340   -0.6140    0.5550 hn        1 MFX      0.497800
     48 H17         3.9940    2.4890   -0.7970 ha        1 MFX      0.111000
     49 H           4.0370   -2.2570    1.1280 h1        1 MFX      0.051367
     50 HA          4.1460   -2.6580    2.9230 h1        1 MFX      0.051367
     51 HB          2.5980   -1.9490    2.2290 h1        1 MFX      0.051367
     52 O01         4.2670   -0.6900    2.4980 os        1 MFX     -0.373900
@<TRIPOS>BOND
     1    1   22 1   
     2    2   26 2   
     3    3   27 1   
     4    4   27 1   
     5    5   10 1   
     6    5   18 2   
     7    5   33 1   
     8    6    9 1   
     9    6   40 1   
    10    6   45 1   
    11    7   13 1   
    12    7   19 1   
    13    7   23 1   
    14    7   47 1   
    15    8   12 2   
    16    8   30 1   
    17    8   35 1   
    18    9   11 3   
    19   10   29 1   
    20   10   31 1   
    21   10   32 1   
    22   11   34 1   
    23   12   14 1   
    24   12   36 1   
    25   13   15 1   
    26   13   16 1   
    27   13   37 1   
    28   14   17 3   
    29   15   41 1   
    30   15   42 1   
    31   15   43 1   
    32   16   23 2   
    33   16   44 1   
    34   17   46 1   
    35   18   20 1   
    36   18   22 1   
    37   19   20 2   
    38   19   21 1   
    39   20   52 1   
    40   21   24 2   
    41   21   48 1   
    42   22   24 2   
    43   23   25 1   
    44   25   26 2   
    45   25   27 1   
    46   28   49 1   
    47   28   50 1   
    48   28   51 1   
    49   28   52 1   
    50   38   39 1   
@<TRIPOS>SUBSTRUCTURE
     1 MFX         1 TEMP              0 ****  ****    0 ROOT
