@<TRIPOS>MOLECULE
MFX
   52    56     1     0     0
SMALL
bcc


@<TRIPOS>ATOM
      1 F           1.6390   -2.3860   -0.8770 f         1 MFX     -0.160900
      2 O02        -3.3330   -2.5830   -1.0930 o         1 MFX     -0.548100
      3 O03        -5.6360   -2.3690    1.0260 o         1 MFX     -0.816800
      4 O          -6.4490   -0.3900    0.3670 o         1 MFX     -0.816800
      5 N01         2.3360    0.3260   -0.1340 nh        1 MFX     -0.604000
      6 N02         5.5590    0.5820   -1.0680 n3        1 MFX     -0.824200
      7 N          -2.5110    1.1290    0.4260 na        1 MFX     -0.499800
      8 C01         4.2850   -1.0320    0.4350 c3        1 MFX     -0.089700
      9 C02         4.5270   -0.4360   -0.9750 c3        1 MFX      0.173500
     10 C03         3.1000   -0.2180    0.9930 c3        1 MFX      0.177800
     11 C04         3.1270    0.1560   -1.3560 c3        1 MFX      0.167800
     12 C05         5.4760   -1.0590    1.3620 c3        1 MFX     -0.064400
     13 C06        -2.4060    2.5510    0.4950 cx        1 MFX      0.172500
     14 C07         6.3500    0.1660    1.2360 c3        1 MFX     -0.078400
     15 C08        -2.4860    3.4470   -0.7330 cx        1 MFX     -0.144900
     16 C09        -3.5960    3.4660    0.2720 cx        1 MFX     -0.144900
     17 C10         6.7180    0.3950   -0.2270 c3        1 MFX      0.178800
     18 C11         0.9880   -0.1510   -0.2170 ca        1 MFX      0.072600
     19 C12        -1.4430    0.3170    0.0440 ca        1 MFX      0.194600
     20 C13        -0.0700    0.7290    0.0920 ca        1 MFX      0.061100
     21 C14        -1.7140   -1.0220   -0.3560 ca        1 MFX     -0.197600
     22 C15         0.6580   -1.4870   -0.5910 ca        1 MFX      0.022900
     23 C16        -3.7790    0.5500    0.5800 cc        1 MFX      0.061000
     24 C17        -0.6730   -1.8950   -0.6630 ca        1 MFX     -0.083000
     25 C18        -4.1000   -0.7160    0.2180 cd        1 MFX     -0.265400
     26 C19        -3.1100   -1.5450   -0.4550 c         1 MFX      0.599900
     27 C20        -5.5080   -1.2140    0.5500 c         1 MFX      0.932800
     28 C           0.6670    2.9250   -0.4050 c3        1 MFX      0.117700
     29 H01         3.9320   -2.0910    0.2820 hc        1 MFX      0.062700
     30 H02         4.7500   -1.2900   -1.6820 h1        1 MFX      0.021700
     31 H03         3.4780    0.6630    1.5810 h1        1 MFX      0.056700
     32 H03A        2.4670   -0.8540    1.6670 h1        1 MFX      0.056700
     33 H04         2.6370   -0.5340   -2.0950 h1        1 MFX      0.052200
     34 H04A        3.2190    1.1730   -1.8260 h1        1 MFX      0.052200
     35 H05         5.1150   -1.1580    2.4210 hc        1 MFX      0.039200
     36 H05A        6.0910   -1.9710    1.1350 hc        1 MFX      0.039200
     37 H06        -1.6780    2.8530    1.2860 h1        1 MFX      0.103700
     38 H07         5.8150    1.0640    1.6410 hc        1 MFX      0.047200
     39 H07A        7.2910    0.0310    1.8280 hc        1 MFX      0.047200
     40 HN02        5.8380    0.6880   -2.0250 hn        1 MFX      0.359800
     41 H08        -1.7880    4.3010   -0.7900 hc        1 MFX      0.076950
     42 H08A       -2.6770    3.0010   -1.7250 hc        1 MFX      0.076950
     43 H09        -4.5770    3.0450   -0.0160 hc        1 MFX      0.076950
     44 H09A       -3.7010    4.3300    0.9510 hc        1 MFX      0.076950
     45 H10         7.3630   -0.4690   -0.5690 h1        1 MFX      0.018700
     46 H10A        7.3390    1.3320   -0.3110 h1        1 MFX      0.018700
     47 H16        -4.5420    1.2020    1.0480 h4        1 MFX      0.175000
     48 H17        -0.9210   -2.9280   -0.9670 ha        1 MFX      0.171000
     49 H           0.5850    3.9160    0.1090 h1        1 MFX      0.036700
     50 HA          1.7260    2.7210   -0.6880 h1        1 MFX      0.036700
     51 HB          0.0090    2.8990   -1.3080 h1        1 MFX      0.036700
     52 O01         0.2150    1.9990    0.5820 os        1 MFX     -0.332900
@<TRIPOS>BOND
     1    1   22 1   
     2    2   26 2   
     3    3   27 1   
     4    4   27 1   
     5    5   10 1   
     6    5   11 1   
     7    5   18 1   
     8    6    9 1   
     9    6   17 1   
    10    6   40 1   
    11    7   13 1   
    12    7   19 1   
    13    7   23 1   
    14    8    9 1   
    15    8   10 1   
    16    8   12 1   
    17    8   29 1   
    18    9   11 1   
    19    9   30 1   
    20   10   31 1   
    21   10   32 1   
    22   11   33 1   
    23   11   34 1   
    24   12   14 1   
    25   12   35 1   
    26   12   36 1   
    27   13   15 1   
    28   13   16 1   
    29   13   37 1   
    30   14   17 1   
    31   14   38 1   
    32   14   39 1   
    33   15   16 1   
    34   15   41 1   
    35   15   42 1   
    36   16   43 1   
    37   16   44 1   
    38   17   45 1   
    39   17   46 1   
    40   18   20 ar  
    41   18   22 ar  
    42   19   20 ar  
    43   19   21 ar  
    44   20   52 1   
    45   21   24 ar  
    46   21   26 1   
    47   22   24 ar  
    48   23   25 2   
    49   23   47 1   
    50   24   48 1   
    51   25   26 1   
    52   25   27 1   
    53   28   49 1   
    54   28   50 1   
    55   28   51 1   
    56   28   52 1   
@<TRIPOS>SUBSTRUCTURE
     1 MFX         1 TEMP              0 ****  ****    0 ROOT
