@<TRIPOS>MOLECULE
MFY
   27    27     1     0     0
SMALL
bcc


@<TRIPOS>ATOM
      1 CAG         0.0200    0.0030   -0.0130 ca        1 MFY     -0.095000
      2 CAE         1.4100    0.0810   -0.0180 ca        1 MFY     -0.121000
      3 CAM         2.1050    0.1180    1.1980 ca        1 MFY      0.043400
      4 CL          3.7960    0.2110    1.1980 cl        1 MFY     -0.055400
      5 CAF         1.4100    0.0810    2.4130 ca        1 MFY     -0.121000
      6 CAH         0.0200    0.0030    2.4090 ca        1 MFY     -0.095000
      7 CAN        -0.6790   -0.0380    1.1980 ca        1 MFY     -0.171300
      8 CAK        -2.1710   -0.0940    1.1970 c3        1 MFY      0.159100
      9 NAL        -2.6750   -1.4950    1.1940 n4        1 MFY     -0.770000
     10 CAI        -4.1830   -1.5620    1.1930 c3        1 MFY      0.162800
     11 CAJ        -4.6810   -2.9580    1.1900 c3        1 MFY     -0.305600
     12 SAO        -6.5680   -2.8570    1.1890 s6        1 MFY      1.444800
     13 OAC        -6.9410   -4.1960    1.1860 o         1 MFY     -0.723200
     14 OAB        -6.7780   -2.1350    2.3690 o         1 MFY     -0.723200
     15 OAA        -6.7770   -2.1290    0.0120 o         1 MFY     -0.723200
     16 H1         -0.5260   -0.0150   -0.9700 ha        1 MFY      0.146000
     17 H2          1.9580    0.1160   -0.9730 ha        1 MFY      0.164000
     18 H3          1.9580    0.1170    3.3680 ha        1 MFY      0.164000
     19 H4         -0.5260   -0.0140    3.3650 ha        1 MFY      0.146000
     20 H5         -2.5880    0.4230    0.2850 hx        1 MFY      0.106200
     21 H6         -2.5880    0.4190    2.1120 hx        1 MFY      0.106200
     22 H7         -2.3230   -1.9880    0.3680 hn        1 MFY      0.435800
     23 H9         -4.5460   -1.0170    2.1150 hx        1 MFY      0.111700
     24 H10        -4.5450   -1.0130    0.2730 hx        1 MFY      0.111700
     25 H11        -4.4030   -3.5340    2.0970 h1        1 MFY      0.082700
     26 H12        -4.4020   -3.5300    0.2810 h1        1 MFY      0.082700
     27 HAL2       -2.3240   -1.9920    2.0180 hn        1 MFY      0.435800
@<TRIPOS>BOND
     1    1    2 ar  
     2    1    7 ar  
     3    1   16 1   
     4    2    3 ar  
     5    2   17 1   
     6    3    4 1   
     7    3    5 ar  
     8    5    6 ar  
     9    5   18 1   
    10    6    7 ar  
    11    6   19 1   
    12    7    8 1   
    13    8    9 1   
    14    8   20 1   
    15    8   21 1   
    16    9   10 1   
    17    9   22 1   
    18    9   27 1   
    19   10   11 1   
    20   10   23 1   
    21   10   24 1   
    22   11   12 1   
    23   11   25 1   
    24   11   26 1   
    25   12   13 1   
    26   12   14 1   
    27   12   15 1   
@<TRIPOS>SUBSTRUCTURE
     1 MFY         1 TEMP              0 ****  ****    0 ROOT
