@<TRIPOS>MOLECULE
MFY
   27    27     1     0     0
SMALL
bcc


@<TRIPOS>ATOM
      1 CAG         0.0260   -0.0040    0.0010 ca        1 MFY     -0.095000
      2 CAE         1.4170    0.0700    0.0000 ca        1 MFY     -0.121500
      3 CAM         2.1080    0.1050    1.2180 ca        1 MFY      0.043400
      4 Cl          3.7990    0.1940    1.2220 cl        1 MFY     -0.055400
      5 CAF         1.4100    0.0710    2.4310 ca        1 MFY     -0.121500
      6 CAH         0.0190   -0.0030    2.4230 ca        1 MFY     -0.095000
      7 CAN        -0.6760   -0.0430    1.2100 ca        1 MFY     -0.171300
      8 CAK        -2.1680   -0.0940    1.2060 c3        1 MFY      0.159100
      9 NAL        -2.6760   -1.4940    1.1920 ny        1 MFY     -0.770000
     10 CAI        -4.1840   -1.5560    1.1840 c3        1 MFY      0.162800
     11 CAJ        -4.6870   -2.9500    1.1700 c3        1 MFY     -0.305600
     12 SAO        -6.5740   -2.8440    1.1610 s6        1 MFY      1.444800
     13 OAC        -6.9500   -4.1810    1.1450 o         1 MFY     -0.723200
     14 OAB        -6.7870   -2.1300    2.3450 o         1 MFY     -0.723200
     15 OAA        -6.7740   -2.1060   -0.0120 o         1 MFY     -0.723200
     16 H1         -0.5170   -0.0200   -0.9570 ha        1 MFY      0.146000
     17 H2          1.9680    0.1030   -0.9540 ha        1 MFY      0.164000
     18 H3          1.9550    0.1050    3.3880 ha        1 MFY      0.164000
     19 H4         -0.5290   -0.0190    3.3780 ha        1 MFY      0.146000
     20 H5         -2.5810    0.4300    0.2950 hx        1 MFY      0.106200
     21 H6         -2.5870    0.4140    2.1230 hx        1 MFY      0.106200
     22 H7         -2.3220   -1.9820    0.3640 hn        1 MFY      0.435800
     23 H9         -4.5490   -1.0160    2.1080 hx        1 MFY      0.111700
     24 H10        -4.5410   -1.0000    0.2660 hx        1 MFY      0.111700
     25 H11        -4.4150   -3.5320    2.0750 h1        1 MFY      0.082700
     26 H12        -4.4050   -3.5180    0.2590 h1        1 MFY      0.082700
     27 HAL2       -2.3300   -1.9960    2.0140 hn        1 MFY      0.435800
@<TRIPOS>BOND
     1    1    2 ar  
     2    1    7 ar  
     3    1   16 1   
     4    2    3 ar  
     5    2   17 1   
     6    3    4 1   
     7    3    5 ar  
     8    5    6 ar  
     9    5   18 1   
    10    6    7 ar  
    11    6   19 1   
    12    7    8 1   
    13    8    9 1   
    14    8   20 1   
    15    8   21 1   
    16    9   10 1   
    17    9   22 1   
    18    9   27 1   
    19   10   11 1   
    20   10   23 1   
    21   10   24 1   
    22   11   12 1   
    23   11   25 1   
    24   11   26 1   
    25   12   13 1   
    26   12   14 1   
    27   12   15 1   
@<TRIPOS>SUBSTRUCTURE
     1 MFY         1 TEMP              0 ****  ****    0 ROOT
