@<TRIPOS>MOLECULE
MFY
   27    27     1     0     0
SMALL
bcc


@<TRIPOS>ATOM
      1 CAG         0.0220    0.0030   -0.0160 ca        1 MFY     -0.095000
      2 CAE         1.4130    0.0800   -0.0180 ca        1 MFY     -0.121000
      3 CAM         2.1060    0.1140    1.1980 ca        1 MFY      0.043400
      4 CL          3.7970    0.2060    1.2010 cl        1 MFY     -0.055400
      5 CAF         1.4100    0.0760    2.4120 ca        1 MFY     -0.121000
      6 CAH         0.0190   -0.0010    2.4060 ca        1 MFY     -0.095000
      7 CAN        -0.6780   -0.0400    1.1940 ca        1 MFY     -0.171300
      8 CAK        -2.1700   -0.0940    1.1920 c3        1 MFY      0.159100
      9 NAL        -2.6750   -1.4950    1.1930 n4        1 MFY     -0.770000
     10 CAI        -4.1830   -1.5600    1.1920 c3        1 MFY      0.162800
     11 CAJ        -4.6830   -2.9550    1.1950 c3        1 MFY     -0.305600
     12 SAO        -6.5700   -2.8530    1.1940 s6        1 MFY      1.444800
     13 OAC        -6.9430   -4.1910    1.1990 o         1 MFY     -0.723200
     14 OAB        -6.7780   -2.1230    2.3700 o         1 MFY     -0.723200
     15 OAA        -6.7780   -2.1320    0.0130 o         1 MFY     -0.723200
     16 H1         -0.5220   -0.0120   -0.9740 ha        1 MFY      0.146000
     17 H2          1.9620    0.1160   -0.9730 ha        1 MFY      0.164000
     18 H3          1.9560    0.1090    3.3690 ha        1 MFY      0.164000
     19 H4         -0.5280   -0.0190    3.3620 ha        1 MFY      0.146000
     20 H5         -2.5860    0.4200    0.2770 hx        1 MFY      0.106200
     21 H6         -2.5880    0.4230    2.1040 hx        1 MFY      0.106200
     22 H7         -2.3240   -1.9910    0.3690 hn        1 MFY      0.435800
     23 H9         -4.5450   -1.0150    0.2710 hx        1 MFY      0.111700
     24 H10        -4.5460   -1.0120    2.1120 hx        1 MFY      0.111700
     25 H11        -4.4050   -3.5280    2.1030 h1        1 MFY      0.082700
     26 H12        -4.4040   -3.5310    0.2880 h1        1 MFY      0.082700
     27 HAL2       -2.3250   -1.9890    2.0200 hn        1 MFY      0.435800
@<TRIPOS>BOND
     1    1    2 ar  
     2    1    7 ar  
     3    1   16 1   
     4    2    3 ar  
     5    2   17 1   
     6    3    4 1   
     7    3    5 ar  
     8    5    6 ar  
     9    5   18 1   
    10    6    7 ar  
    11    6   19 1   
    12    7    8 1   
    13    8    9 1   
    14    8   20 1   
    15    8   21 1   
    16    9   10 1   
    17    9   22 1   
    18    9   27 1   
    19   10   11 1   
    20   10   23 1   
    21   10   24 1   
    22   11   12 1   
    23   11   25 1   
    24   11   26 1   
    25   12   13 1   
    26   12   14 1   
    27   12   15 1   
@<TRIPOS>SUBSTRUCTURE
     1 MFY         1 TEMP              0 ****  ****    0 ROOT
