@<TRIPOS>MOLECULE
MFY
   26    26     1     0     0
SMALL
bcc


@<TRIPOS>ATOM
      1 CAG        -2.4330    1.3030   -0.0590 ca        1 MFY     -0.114500
      2 CAE        -3.8090    1.2580    0.1540 ca        1 MFY     -0.132000
      3 CAM        -4.5000    0.0650   -0.0740 ca        1 MFY      0.007400
      4 CL         -6.1840    0.0010    0.1860 cl        1 MFY     -0.125400
      5 CAF        -3.8230   -1.0770   -0.5120 ca        1 MFY     -0.132000
      6 CAH        -2.4470   -1.0190   -0.7260 ca        1 MFY     -0.114500
      7 CAN        -1.7420    0.1690   -0.5020 ca        1 MFY     -0.067300
      8 CAK        -0.2670    0.2530   -0.7690 c3        1 MFY      0.194100
      9 NAL         0.4820   -0.8830   -0.2620 n3        1 MFY     -0.817200
     10 CAI         1.9170   -0.7640   -0.4640 c3        1 MFY      0.185800
     11 CAJ         2.6570    0.2370    0.3930 c3        1 MFY     -0.325600
     12 SAO         4.4020    0.2840    0.0100 s6        1 MFY      1.431800
     13 OAC         4.4600    0.6180   -1.3630 o         1 MFY     -0.750533
     14 OAB         4.9040    1.2900    0.8680 o         1 MFY     -0.750533
     15 OAA         4.8750   -1.0150    0.3070 o         1 MFY     -0.750533
     16 H1         -1.8860    2.2410    0.1250 ha        1 MFY      0.148500
     17 H2         -4.3440    2.1540    0.5010 ha        1 MFY      0.137500
     18 H3         -4.3700   -2.0150   -0.6880 ha        1 MFY      0.137500
     19 H4         -1.9070   -1.9150   -1.0710 ha        1 MFY      0.148500
     20 H5         -0.1180    0.2800   -1.8890 h1        1 MFY      0.043700
     21 H6          0.1200    1.2360   -0.3640 h1        1 MFY      0.043700
     22 H7          0.2890   -1.0000    0.7170 hn        1 MFY      0.345800
     23 H9          2.3460   -1.7900   -0.2650 h1        1 MFY      0.064200
     24 H10         2.1040   -0.5170   -1.5490 h1        1 MFY      0.064200
     25 H11         2.2450    1.2630    0.2460 h1        1 MFY      0.062700
     26 H12         2.5410   -0.0140    1.4730 h1        1 MFY      0.062700
@<TRIPOS>BOND
     1    1    2 ar  
     2    1    7 ar  
     3    1   16 1   
     4    2    3 ar  
     5    2   17 1   
     6    3    4 1   
     7    3    5 ar  
     8    5    6 ar  
     9    5   18 1   
    10    6    7 ar  
    11    6   19 1   
    12    7    8 1   
    13    8    9 1   
    14    8   20 1   
    15    8   21 1   
    16    9   10 1   
    17    9   22 1   
    18   10   11 1   
    19   10   23 1   
    20   10   24 1   
    21   11   12 1   
    22   11   25 1   
    23   11   26 1   
    24   12   13 1   
    25   12   14 1   
    26   12   15 1   
@<TRIPOS>SUBSTRUCTURE
     1 MFY         1 TEMP              0 ****  ****    0 ROOT
