@<TRIPOS>MOLECULE
MG0
   51    53     1     0     0
SMALL
bcc


@<TRIPOS>ATOM
      1 C18        -0.0630    0.1320    0.0210 ca        1 MG0      0.031000
      2 C17         1.3420    0.1860    0.0170 ca        1 MG0     -0.219300
      3 C16         1.9820    0.1890    1.2670 ca        1 MG0      0.477200
      4 N4          3.4600    0.2610    1.3330 n4        1 MG0     -0.824300
      5 N3          1.3320    0.1440    2.4680 nb        1 MG0     -0.664000
      6 C15        -0.0050    0.0950    2.4250 ca        1 MG0      0.526200
      7 C14        -0.7550    0.0800    1.2260 ca        1 MG0     -0.383800
      8 S1         -2.5100    0.1090    1.2760 sy        1 MG0      1.498200
      9 O2         -2.8090    0.7280    2.4980 o         1 MG0     -0.619300
     10 O3         -2.8830    0.7170    0.0680 o         1 MG0     -0.619300
     11 N2         -2.9010   -1.4430    1.2960 n3        1 MG0     -0.827500
     12 C11        -3.1780   -2.2130    0.1040 c3        1 MG0      0.213300
     13 C10        -2.3970   -3.5450    0.0450 c3        1 MG0      0.177800
     14 C12        -3.0390   -2.2150    2.5100 c3        1 MG0      0.213300
     15 C13        -2.2600   -3.5480    2.4760 c3        1 MG0      0.177800
     16 N1         -2.5170   -4.3140    1.2690 nh        1 MG0     -0.638000
     17 C5         -1.9780   -5.6260    1.2490 ca        1 MG0      0.155600
     18 C4         -1.2290   -6.1160    0.1550 ca        1 MG0     -0.175500
     19 C3         -0.7710   -7.4270    0.1380 ca        1 MG0     -0.055500
     20 C6         -2.2500   -6.5120    2.3170 ca        1 MG0     -0.175500
     21 C1         -1.7820   -7.8200    2.2930 ca        1 MG0     -0.055500
     22 C2         -1.0320   -8.2890    1.2090 ca        1 MG0     -0.144300
     23 C7         -0.5150   -9.6940    1.1910 c3        1 MG0      0.165100
     24 C8         -1.0980  -10.5160   -0.0430 c3        1 MG0      0.601400
     25 F6         -0.8340  -11.8570    0.0750 f         1 MG0     -0.219300
     26 F4         -2.4570  -10.4330   -0.1600 f         1 MG0     -0.219300
     27 F5         -0.6000  -10.1510   -1.2630 f         1 MG0     -0.219300
     28 C9          1.0770   -9.7200    1.1260 c3        1 MG0      0.601400
     29 F3          1.5770  -10.9730    1.3750 f         1 MG0     -0.219300
     30 F1          1.6130   -9.3440   -0.0740 f         1 MG0     -0.219300
     31 F2          1.6750   -8.9140    2.0560 f         1 MG0     -0.219300
     32 O1         -0.9040  -10.3500    2.3730 oh        1 MG0     -0.551800
     33 H1         -0.6130    0.1560   -0.9410 ha        1 MG0      0.197000
     34 H2          1.8890    0.2330   -0.9370 ha        1 MG0      0.175000
     35 H3          3.8440    0.2480    0.3820 hn        1 MG0      0.475133
     36 H4          3.8270   -0.5400    1.8650 hn        1 MG0      0.475133
     37 H5         -0.5130    0.0950    3.4170 h4        1 MG0      0.084100
     38 H6         -2.9110   -1.6050   -0.8070 h1        1 MG0      0.075700
     39 H7         -4.2840   -2.4390    0.0670 h1        1 MG0      0.075700
     40 H8         -1.3180   -3.3220   -0.2020 h1        1 MG0      0.047950
     41 H9         -2.8340   -4.1530   -0.7970 h1        1 MG0      0.047950
     42 H10        -2.6670   -1.6080    3.3850 h1        1 MG0      0.075700
     43 H11        -4.1340   -2.4370    2.6760 h1        1 MG0      0.075700
     44 H12        -2.5920   -4.1500    3.3680 h1        1 MG0      0.047950
     45 H13        -1.1580   -3.3320    2.5940 h1        1 MG0      0.047950
     46 H14        -0.9990   -5.4770   -0.7110 ha        1 MG0      0.141000
     47 H15        -0.1920   -7.7900   -0.7290 ha        1 MG0      0.162000
     48 H16        -2.8570   -6.1870    3.1770 ha        1 MG0      0.141000
     49 H17        -2.0100   -8.4960    3.1360 ha        1 MG0      0.162000
     50 H18        -0.5790  -11.2650    2.3280 ho        1 MG0      0.446000
     51 H43         3.7440    1.1290    1.8070 hn        1 MG0      0.475133
@<TRIPOS>BOND
     1    1    2 ar  
     2    1    7 ar  
     3    1   33 1   
     4    2    3 ar  
     5    2   34 1   
     6    3    4 1   
     7    3    5 ar  
     8    4   35 1   
     9    4   36 1   
    10    4   51 1   
    11    5    6 ar  
    12    6    7 ar  
    13    6   37 1   
    14    7    8 1   
    15    8    9 2   
    16    8   10 2   
    17    8   11 1   
    18   11   12 1   
    19   11   14 1   
    20   12   13 1   
    21   12   38 1   
    22   12   39 1   
    23   13   16 1   
    24   13   40 1   
    25   13   41 1   
    26   14   15 1   
    27   14   42 1   
    28   14   43 1   
    29   15   16 1   
    30   15   44 1   
    31   15   45 1   
    32   16   17 1   
    33   17   18 ar  
    34   17   20 ar  
    35   18   19 ar  
    36   18   46 1   
    37   19   22 ar  
    38   19   47 1   
    39   20   21 ar  
    40   20   48 1   
    41   21   22 ar  
    42   21   49 1   
    43   22   23 1   
    44   23   24 1   
    45   23   28 1   
    46   23   32 1   
    47   24   25 1   
    48   24   26 1   
    49   24   27 1   
    50   28   29 1   
    51   28   30 1   
    52   28   31 1   
    53   32   50 1   
@<TRIPOS>SUBSTRUCTURE
     1 MG0         1 TEMP              0 ****  ****    0 ROOT
