@<TRIPOS>MOLECULE
MG0
   50    52     1     0     0
SMALL
bcc


@<TRIPOS>ATOM
      1 C18        -0.0840    0.1490    0.0260 ca        1 MG0      0.065000
      2 C17         1.2960    0.1650    0.0450 ca        1 MG0     -0.352300
      3 C16         1.9720    0.1530    1.3150 ca        1 MG0      0.731200
      4 N4          3.3420    0.1250    1.3630 nh        1 MG0     -0.959500
      5 N3          1.2600    0.1490    2.5040 nb        1 MG0     -0.754000
      6 C15        -0.0680    0.1380    2.4230 ca        1 MG0      0.562200
      7 C14        -0.8200    0.1240    1.2250 ca        1 MG0     -0.594800
      8 S1         -2.4850    0.1440    1.2360 sy        1 MG0      1.531200
      9 O2         -2.9140    0.7410    2.4430 o         1 MG0     -0.655300
     10 O3         -2.9340    0.7220    0.0270 o         1 MG0     -0.655300
     11 N2         -2.9020   -1.4370    1.2530 n3        1 MG0     -0.812500
     12 C11        -3.1140   -2.2090    0.0600 c3        1 MG0      0.225300
     13 C10        -2.3170   -3.5340    0.0310 c3        1 MG0      0.174300
     14 C12        -3.0630   -2.1960    2.4630 c3        1 MG0      0.225300
     15 C13        -2.2680   -3.5210    2.4720 c3        1 MG0      0.174300
     16 N1         -2.4500   -4.3000    1.2580 nh        1 MG0     -0.639000
     17 C5         -1.9070   -5.6010    1.2570 ca        1 MG0      0.184600
     18 C4         -1.2240   -6.1310    0.1340 ca        1 MG0     -0.187500
     19 C3         -0.7800   -7.4450    0.1230 ca        1 MG0     -0.051000
     20 C6         -2.1070   -6.4600    2.3660 ca        1 MG0     -0.187500
     21 C1         -1.6540   -7.7720    2.3460 ca        1 MG0     -0.051000
     22 C2         -0.9850   -8.2810    1.2270 ca        1 MG0     -0.170300
     23 C7         -0.4970   -9.6930    1.2080 c3        1 MG0      0.177100
     24 C8         -1.1750  -10.5330    0.0350 c3        1 MG0      0.598900
     25 F6         -0.9250  -11.8770    0.1650 f         1 MG0     -0.222300
     26 F4         -2.5370  -10.4340    0.0060 f         1 MG0     -0.222300
     27 F5         -0.7560  -10.2090   -1.2260 f         1 MG0     -0.222300
     28 C9          1.0860   -9.7620    1.0370 c3        1 MG0      0.598900
     29 F3          1.5680  -11.0260    1.2750 f         1 MG0     -0.222300
     30 F1          1.5520   -9.4260   -0.2040 f         1 MG0     -0.222300
     31 F2          1.7680   -8.9630    1.9120 f         1 MG0     -0.222300
     32 O1         -0.8210  -10.3210    2.4250 oh        1 MG0     -0.551800
     33 H1         -0.6250    0.1740   -0.9370 ha        1 MG0      0.155000
     34 H2          1.8710    0.1890   -0.8890 ha        1 MG0      0.148000
     35 H3          3.8210    0.1820    2.2280 hn        1 MG0      0.444800
     36 H4          3.8500    0.2340    0.5220 hn        1 MG0      0.444800
     37 H5         -0.5970    0.1600    3.4010 h4        1 MG0      0.041100
     38 H6         -2.8110   -1.6010   -0.8400 h1        1 MG0      0.063450
     39 H7         -4.2130   -2.4510   -0.0340 h1        1 MG0      0.063450
     40 H8         -2.7310   -4.1520   -0.8160 h1        1 MG0      0.047950
     41 H9         -1.2350   -3.3040   -0.1910 h1        1 MG0      0.047950
     42 H10        -4.1570   -2.4330    2.6070 h1        1 MG0      0.063450
     43 H11        -2.7200   -1.5770    3.3410 h1        1 MG0      0.063450
     44 H12        -1.1750   -3.2930    2.6380 h1        1 MG0      0.047950
     45 H13        -2.6360   -4.1180    3.3510 h1        1 MG0      0.047950
     46 H14        -1.0270   -5.5120   -0.7540 ha        1 MG0      0.142000
     47 H15        -0.2530   -7.8330   -0.7660 ha        1 MG0      0.153500
     48 H16        -2.6440   -6.1090    3.2600 ha        1 MG0      0.142000
     49 H17        -1.8280   -8.4200    3.2210 ha        1 MG0      0.153500
     50 H18        -0.4960  -11.2370    2.3820 ho        1 MG0      0.438000
@<TRIPOS>BOND
     1    1    2 ar  
     2    1    7 ar  
     3    1   33 1   
     4    2    3 ar  
     5    2   34 1   
     6    3    4 1   
     7    3    5 ar  
     8    4   35 1   
     9    4   36 1   
    10    5    6 ar  
    11    6    7 ar  
    12    6   37 1   
    13    7    8 1   
    14    8    9 2   
    15    8   10 2   
    16    8   11 1   
    17   11   12 1   
    18   11   14 1   
    19   12   13 1   
    20   12   38 1   
    21   12   39 1   
    22   13   16 1   
    23   13   40 1   
    24   13   41 1   
    25   14   15 1   
    26   14   42 1   
    27   14   43 1   
    28   15   16 1   
    29   15   44 1   
    30   15   45 1   
    31   16   17 1   
    32   17   18 ar  
    33   17   20 ar  
    34   18   19 ar  
    35   18   46 1   
    36   19   22 ar  
    37   19   47 1   
    38   20   21 ar  
    39   20   48 1   
    40   21   22 ar  
    41   21   49 1   
    42   22   23 1   
    43   23   24 1   
    44   23   28 1   
    45   23   32 1   
    46   24   25 1   
    47   24   26 1   
    48   24   27 1   
    49   28   29 1   
    50   28   30 1   
    51   28   31 1   
    52   32   50 1   
@<TRIPOS>SUBSTRUCTURE
     1 MG0         1 TEMP              0 ****  ****    0 ROOT
