@<TRIPOS>MOLECULE
MG0
   50    52     1     0     0
SMALL
bcc


@<TRIPOS>ATOM
      1 C18        -0.0810    0.1460    0.0370 ca        1 MG0      0.065000
      2 C17         1.2990    0.1580    0.0600 ca        1 MG0     -0.352300
      3 C16         1.9710    0.1440    1.3310 ca        1 MG0      0.731200
      4 N4          3.3410    0.1120    1.3810 nv        1 MG0     -0.959500
      5 N3          1.2570    0.1410    2.5180 nb        1 MG0     -0.754000
      6 C15        -0.0710    0.1320    2.4340 ca        1 MG0      0.562200
      7 C14        -0.8200    0.1210    1.2340 ca        1 MG0     -0.594800
      8 S1         -2.4850    0.1440    1.2420 sy        1 MG0      1.531200
      9 O2         -2.9160    0.7410    2.4480 o         1 MG0     -0.655300
     10 O3         -2.9300    0.7230    0.0320 o         1 MG0     -0.655300
     11 N2         -2.9050   -1.4360    1.2560 n3        1 MG0     -0.812500
     12 C11        -3.1200   -2.2070    0.0620 c3        1 MG0      0.225300
     13 C10        -2.3240   -3.5320    0.0300 c3        1 MG0      0.174300
     14 C12        -3.0650   -2.1970    2.4650 c3        1 MG0      0.225300
     15 C13        -2.2700   -3.5230    2.4710 c3        1 MG0      0.174300
     16 N1         -2.4540   -4.3000    1.2550 nh        1 MG0     -0.639000
     17 C5         -1.9110   -5.6010    1.2510 ca        1 MG0      0.184600
     18 C4         -1.2320   -6.1290    0.1250 ca        1 MG0     -0.187500
     19 C3         -0.7880   -7.4430    0.1110 ca        1 MG0     -0.051000
     20 C6         -2.1080   -6.4620    2.3600 ca        1 MG0     -0.187500
     21 C1         -1.6550   -7.7730    2.3360 ca        1 MG0     -0.051000
     22 C2         -0.9900   -8.2810    1.2140 ca        1 MG0     -0.170300
     23 C7         -0.5010   -9.6930    1.1920 c3        1 MG0      0.177100
     24 C8         -1.1820  -10.5300    0.0200 c3        1 MG0      0.598400
     25 F6         -0.9330  -11.8750    0.1470 f         1 MG0     -0.222300
     26 F4         -2.5450  -10.4320   -0.0050 f         1 MG0     -0.222300
     27 F5         -0.7670  -10.2050   -1.2410 f         1 MG0     -0.222300
     28 C9          1.0820   -9.7610    1.0170 c3        1 MG0      0.598400
     29 F3          1.5640  -11.0260    1.2510 f         1 MG0     -0.222300
     30 F1          1.5430   -9.4230   -0.2240 f         1 MG0     -0.222300
     31 F2          1.7660   -8.9640    1.8910 f         1 MG0     -0.222300
     32 O1         -0.8220  -10.3230    2.4090 oh        1 MG0     -0.551800
     33 H1         -0.6210    0.1720   -0.9270 ha        1 MG0      0.155000
     34 H2          1.8760    0.1820   -0.8740 ha        1 MG0      0.148000
     35 H3          3.8520    0.2210    0.5420 hn        1 MG0      0.444800
     36 H4          3.8180    0.1670    2.2480 hn        1 MG0      0.444800
     37 H5         -0.6020    0.1540    3.4110 h4        1 MG0      0.041100
     38 H6         -2.8180   -1.5970   -0.8370 h1        1 MG0      0.063450
     39 H7         -4.2190   -2.4470   -0.0290 h1        1 MG0      0.063450
     40 H8         -2.7400   -4.1470   -0.8170 h1        1 MG0      0.047700
     41 H9         -1.2420   -3.3020   -0.1950 h1        1 MG0      0.047700
     42 H10        -4.1590   -2.4340    2.6110 h1        1 MG0      0.063450
     43 H11        -2.7200   -1.5810    3.3440 h1        1 MG0      0.063450
     44 H12        -1.1770   -3.2960    2.6360 h1        1 MG0      0.047700
     45 H13        -2.6380   -4.1220    3.3490 h1        1 MG0      0.047700
     46 H14        -1.0370   -5.5090   -0.7630 ha        1 MG0      0.142000
     47 H15        -0.2630   -7.8300   -0.7800 ha        1 MG0      0.153500
     48 H16        -2.6420   -6.1120    3.2560 ha        1 MG0      0.142000
     49 H17        -1.8260   -8.4230    3.2110 ha        1 MG0      0.153500
     50 H18        -0.4970  -11.2380    2.3640 ho        1 MG0      0.438000
@<TRIPOS>BOND
     1    1    2 ar  
     2    1    7 ar  
     3    1   33 1   
     4    2    3 ar  
     5    2   34 1   
     6    3    4 1   
     7    3    5 ar  
     8    4   35 1   
     9    4   36 1   
    10    5    6 ar  
    11    6    7 ar  
    12    6   37 1   
    13    7    8 1   
    14    8    9 2   
    15    8   10 2   
    16    8   11 1   
    17   11   12 1   
    18   11   14 1   
    19   12   13 1   
    20   12   38 1   
    21   12   39 1   
    22   13   16 1   
    23   13   40 1   
    24   13   41 1   
    25   14   15 1   
    26   14   42 1   
    27   14   43 1   
    28   15   16 1   
    29   15   44 1   
    30   15   45 1   
    31   16   17 1   
    32   17   18 ar  
    33   17   20 ar  
    34   18   19 ar  
    35   18   46 1   
    36   19   22 ar  
    37   19   47 1   
    38   20   21 ar  
    39   20   48 1   
    40   21   22 ar  
    41   21   49 1   
    42   22   23 1   
    43   23   24 1   
    44   23   28 1   
    45   23   32 1   
    46   24   25 1   
    47   24   26 1   
    48   24   27 1   
    49   28   29 1   
    50   28   30 1   
    51   28   31 1   
    52   32   50 1   
@<TRIPOS>SUBSTRUCTURE
     1 MG0         1 TEMP              0 ****  ****    0 ROOT
