@<TRIPOS>MOLECULE
MG1
   38    40     1     0     0
SMALL
bcc


@<TRIPOS>ATOM
      1 OP3         1.9110   -0.8700   -5.4580 oh        1 MG1     -0.787400
      2 P           2.3310   -2.0790   -4.4380 p5        1 MG1      1.430800
      3 OP1         3.3470   -2.9470   -5.0630 o         1 MG1     -0.843000
      4 OP2         1.0170   -2.4950   -3.8960 o         1 MG1     -0.843000
      5 O5'         3.0700   -1.1790   -3.2700 os        1 MG1     -0.579200
      6 C5'         2.2600   -0.3460   -2.4970 c3        1 MG1      0.186400
      7 C4'         2.2860   -0.7980   -1.0290 c3        1 MG1      0.087100
      8 O4'         2.3480    0.3500   -0.1710 os        1 MG1     -0.441600
      9 C3'         1.0450   -1.6200   -0.6240 c3        1 MG1      0.099100
     10 O3'         1.3980   -2.7100    0.2170 oh        1 MG1     -0.607800
     11 C2'         0.1620   -0.6190    0.1240 c3        1 MG1     -0.139400
     12 C1'         1.1450    0.4560    0.6400 c3        1 MG1      0.270800
     13 N9          0.6210    1.7880    0.6610 nh        1 MG1     -0.127600
     14 C8         -0.5960    2.2560    0.0960 c1        1 MG1      0.042400
     15 N7         -0.7790    3.5720    0.3840 ne        1 MG1     -0.616000
     16 C5          0.3160    3.9770    1.1360 cc        1 MG1     -0.044600
     17 C6          0.6500    5.2600    1.7140 c         1 MG1      0.733700
     18 O6         -0.0150    6.3180    1.6450 o         1 MG1     -0.695500
     19 N1          1.8800    5.3010    2.4350 n         1 MG1     -0.391300
     20 CM1         2.2960    6.5270    3.0530 c3        1 MG1      0.087300
     21 C2          2.6870    4.1360    2.5760 cc        1 MG1      0.504800
     22 N2          3.8880    4.2670    3.3780 nh        1 MG1     -0.850800
     23 N3          2.4020    2.9410    2.0440 nd        1 MG1     -0.588300
     24 C4          1.2240    2.8680    1.3350 cd        1 MG1      0.018500
     25 H5'         2.6800    0.6990   -2.5460 h1        1 MG1      0.038200
     26 H5''        1.2060   -0.3470   -2.8900 h1        1 MG1      0.038200
     27 H4'         3.2310   -1.3750   -0.8360 h1        1 MG1      0.065700
     28 H3'         0.5420   -2.0960   -1.5110 h1        1 MG1      0.145700
     29 HO3'        1.9170   -2.3430    0.9430 ho        1 MG1      0.380000
     30 H2'        -0.5950   -0.1670   -0.5670 hc        1 MG1      0.079700
     31 H2''       -0.3710   -1.1000    0.9770 hc        1 MG1      0.079700
     32 H1'         1.4950    0.1970    1.6880 h2        1 MG1      0.027700
     33 H8          1.0200   -0.5770   -5.3070 ho        1 MG1      0.423000
     34 HM11        1.5250    7.3230    2.8700 h1        1 MG1      0.032700
     35 HM12        3.2750    6.8730    2.6210 h1        1 MG1      0.032700
     36 HM13        2.4230    6.3930    4.1600 h1        1 MG1      0.032700
     37 H21         4.2810    3.3610    3.5540 hn        1 MG1      0.359300
     38 H22         4.5560    4.8190    2.8710 hn        1 MG1      0.359300
@<TRIPOS>BOND
     1    1    2 1   
     2    1   33 1   
     3    2    3 1   
     4    2    4 1   
     5    2    5 1   
     6    5    6 1   
     7    6    7 1   
     8    6   25 1   
     9    6   26 1   
    10    7    8 1   
    11    7    9 1   
    12    7   27 1   
    13    8   12 1   
    14    9   10 1   
    15    9   11 1   
    16    9   28 1   
    17   10   29 1   
    18   11   12 1   
    19   11   30 1   
    20   11   31 1   
    21   12   13 1   
    22   12   32 1   
    23   13   14 2   
    24   13   24 1   
    25   14   15 2   
    26   15   16 1   
    27   16   17 1   
    28   16   24 2   
    29   17   18 2   
    30   17   19 1   
    31   19   20 1   
    32   19   21 1   
    33   20   34 1   
    34   20   35 1   
    35   20   36 1   
    36   21   22 1   
    37   21   23 2   
    38   22   37 1   
    39   22   38 1   
    40   23   24 1   
@<TRIPOS>SUBSTRUCTURE
     1 MG1         1 TEMP              0 ****  ****    0 ROOT
