@<TRIPOS>MOLECULE
MG2
   44    42     1     0     0
SMALL
bcc


@<TRIPOS>ATOM
      1 F22        -2.4910   -1.9040    5.5660 f         1 MG2     -0.154667
      2 C5         -1.8600   -1.2340    4.5890 c3        1 MG2      0.457000
      3 F20        -0.8750   -0.4910    5.1190 f         1 MG2     -0.154667
      4 F21        -1.3400   -2.1060    3.7130 f         1 MG2     -0.154667
      5 C3         -2.8530   -0.3250    3.8730 c2        1 MG2     -0.038000
      6 C23        -4.1540   -0.2050    4.3510 c1        1 MG2     -0.121000
      7 C25        -5.0340    0.6930    3.7560 c1        1 MG2     -0.097000
      8 C26        -4.6140    1.4720    2.6820 c1        1 MG2     -0.097000
      9 C24        -3.3130    1.3520    2.2030 c1        1 MG2     -0.033000
     10 C4         -2.4320    0.4550    2.7970 c2        1 MG2     -0.769000
     11 S1         -0.7190    0.3950    2.2640 s4        1 MG2      2.033800
     12 O14        -0.1960    1.7180    2.0360 o         1 MG2     -0.530400
     13 O15         0.1420   -0.0680    3.3210 o         1 MG2     -0.530400
     14 C2         -0.5550   -0.6540    0.7630 c2        1 MG2     -0.814000
     15 C16         0.8050   -1.5030    0.8470 c3        1 MG2     -0.062000
     16 N9          1.5400   -1.2880   -0.4350 n3        1 MG2     -0.260000
     17 C10         0.7030   -0.7320   -1.2450 c3        1 MG2     -0.065000
     18 C8         -0.3430    0.0750   -0.2400 c3        1 MG2     -0.135000
     19 C7          1.3790    0.1840   -2.3180 c2        1 MG2      0.301000
     20 O19         0.9070    1.2800   -2.5670 o         1 MG2     -0.370000
     21 N11         2.4830   -0.3170   -3.0980 n         1 MG2     -0.344000
     22 C6          3.0280    0.4780   -4.1700 cx        1 MG2     -0.039000
     23 C18         4.6650    0.5950   -3.6950 cx        1 MG2     -0.188000
     24 C17         3.6550    1.8150   -3.3050 cx        1 MG2     -0.188000
     25 C12         1.9210    0.0240   -5.6250 c2        1 MG2     -0.035000
     26 N13         2.1110   -1.1060   -6.2680 n1        1 MG2     -0.222000
     27 H23        -5.2360    2.1050    2.2620 ha        1 MG2      0.152500
     28 H24        -3.0170    1.9010    1.4460 ha        1 MG2      0.187000
     29 H25        -1.4020   -1.1530    0.7880 ha        1 MG2      0.176000
     30 H26         1.3500   -1.1890    1.6020 h1        1 MG2      0.113000
     31 HA         -4.4510   -0.7540    5.1090 ha        1 MG2      0.162000
     32 HB         -5.9530    0.7770    4.0940 ha        1 MG2      0.152500
     33 H16         0.5970   -2.4590    0.9580 h1        1 MG2      0.113000
     34 H81C        0.0590    0.9250    0.0460 hc        1 MG2      0.114500
     35 H82C       -1.1910    0.2490   -0.7100 hc        1 MG2      0.114500
     36 H9          2.2480   -0.7230   -0.2910 hn        1 MG2      0.165000
     37 H10         0.2390   -1.3930   -1.8080 h1        1 MG2      0.127000
     38 H11         2.8090   -1.1610   -2.9420 hn        1 MG2      0.241000
     39 H181        5.3040    0.7870   -4.4170 hc        1 MG2      0.125500
     40 H182        4.9350    0.0130   -2.9530 hc        1 MG2      0.125500
     41 H171        3.7660    2.6420   -3.8230 hc        1 MG2      0.125500
     42 H172        3.3980    1.8670   -2.3600 hc        1 MG2      0.125500
     43 H13         2.7800   -1.6730   -6.0090 DU        1 MG2      0.144000
     44 H12         1.2040    0.6320   -5.9030 h4        1 MG2      0.146000
@<TRIPOS>BOND
     1    1    2 1   
     2    2    3 1   
     3    2    4 1   
     4    2    5 1   
     5    5    6 1   
     6    5   10 1   
     7    6   31 1   
     8    7    8 1   
     9    7   32 1   
    10    8   27 1   
    11    9   10 1   
    12    9   28 1   
    13   10   11 1   
    14   11   12 1   
    15   11   13 1   
    16   14   15 1   
    17   14   18 1   
    18   14   29 1   
    19   15   16 1   
    20   15   30 1   
    21   15   33 1   
    22   16   17 1   
    23   16   36 1   
    24   17   18 1   
    25   17   19 1   
    26   17   37 1   
    27   18   34 1   
    28   18   35 1   
    29   19   20 1   
    30   19   21 1   
    31   21   22 1   
    32   21   38 1   
    33   22   23 1   
    34   22   24 1   
    35   22   25 1   
    36   23   24 1   
    37   23   39 1   
    38   23   40 1   
    39   24   41 1   
    40   24   42 1   
    41   25   26 1   
    42   25   44 1   
@<TRIPOS>SUBSTRUCTURE
     1 MG2         1 TEMP              0 ****  ****    0 ROOT
