@<TRIPOS>MOLECULE
MG2
   44    46     1     0     0
SMALL
bcc


@<TRIPOS>ATOM
      1 F22        -3.4580    1.7780    2.5760 f         1 MG2     -0.224967
      2 C5         -2.9060    1.4400    1.3610 c3        1 MG2      0.678200
      3 F20        -3.2660    2.4750    0.5400 f         1 MG2     -0.224967
      4 F21        -1.5600    1.5870    1.5810 f         1 MG2     -0.224967
      5 C3         -3.3270    0.0490    0.8530 ca        1 MG2     -0.046300
      6 C23        -4.4040   -0.5470    1.5120 ca        1 MG2     -0.118000
      7 C25        -4.8810   -1.7950    1.1080 ca        1 MG2     -0.074000
      8 C26        -4.2820   -2.4430    0.0320 ca        1 MG2     -0.125000
      9 C24        -3.2100   -1.8410   -0.6220 ca        1 MG2     -0.047000
     10 C4         -2.7020   -0.5920   -0.2280 ca        1 MG2     -0.310500
     11 S1         -1.4170   -0.0040   -1.1850 sy        1 MG2      1.365300
     12 O14        -1.4390   -0.6630   -2.4220 o         1 MG2     -0.636300
     13 O15        -1.4420    1.3920   -1.2000 o         1 MG2     -0.636300
     14 C2         -0.0700   -0.5350   -0.2590 c3        1 MG2     -0.316900
     15 C16         0.0610   -2.0630   -0.0970 c3        1 MG2      0.192800
     16 N9          1.4520   -2.4620   -0.2620 n3        1 MG2     -0.778200
     17 C10         2.1870   -1.3290   -0.8260 c3        1 MG2      0.094500
     18 C8          1.2490   -0.1000   -0.9000 c3        1 MG2     -0.064400
     19 C7          3.4610   -0.9560   -0.0410 c         1 MG2      0.644100
     20 O19         3.6960   -1.4370    1.0840 o         1 MG2     -0.600100
     21 N11         4.3480   -0.1180   -0.7020 n         1 MG2     -0.499900
     22 C6          5.3940    0.5730   -0.0120 cx        1 MG2     -0.037900
     23 C18         6.8470    0.3170   -0.4210 cx        1 MG2     -0.103900
     24 C17         6.3560   -0.1830    0.8980 cx        1 MG2     -0.103900
     25 C12         5.1120    1.9910    0.4100 c2        1 MG2      0.446200
     26 N13         4.0450    2.6180    0.0920 n2        1 MG2     -0.778100
     27 H23        -4.6530   -3.4240   -0.3060 ha        1 MG2      0.151000
     28 H24        -2.7560   -2.3560   -1.4920 ha        1 MG2      0.172000
     29 H25        -0.1170   -0.0820    0.7710 h1        1 MG2      0.131700
     30 H26        -0.3480   -2.3930    0.8940 h1        1 MG2      0.055700
     31 HA         -4.8870   -0.0310    2.3590 ha        1 MG2      0.163000
     32 HB         -5.7300   -2.2550    1.6370 ha        1 MG2      0.149000
     33 H16        -0.5270   -2.5740   -0.9130 h1        1 MG2      0.055700
     34 H81C        1.0930    0.1870   -1.9720 hc        1 MG2      0.076200
     35 H82C        1.6780    0.7830   -0.3650 hc        1 MG2      0.076200
     36 H9          1.8560   -2.7420    0.6170 hn        1 MG2      0.383800
     37 H10         2.4900   -1.6420   -1.8690 h1        1 MG2      0.092700
     38 H11         3.9970    0.3690   -1.4980 hn        1 MG2      0.317500
     39 H181        7.0520   -0.4080   -1.2290 hc        1 MG2      0.085700
     40 H182        7.5330    1.1820   -0.4550 hc        1 MG2      0.085700
     41 H171        6.6850    0.3150    1.8280 hc        1 MG2      0.085700
     42 H172        6.1910   -1.2670    1.0460 hc        1 MG2      0.085700
     43 H13         3.9730    3.5530    0.4340 hn        1 MG2      0.396400
     44 H12         5.9420    2.4130    1.0220 h4        1 MG2     -0.031200
@<TRIPOS>BOND
     1    1    2 1   
     2    2    3 1   
     3    2    4 1   
     4    2    5 1   
     5    5    6 ar  
     6    5   10 ar  
     7    6    7 ar  
     8    6   31 1   
     9    7    8 ar  
    10    7   32 1   
    11    8    9 ar  
    12    8   27 1   
    13    9   10 ar  
    14    9   28 1   
    15   10   11 1   
    16   11   12 2   
    17   11   13 2   
    18   11   14 1   
    19   14   15 1   
    20   14   18 1   
    21   14   29 1   
    22   15   16 1   
    23   15   30 1   
    24   15   33 1   
    25   16   17 1   
    26   16   36 1   
    27   17   18 1   
    28   17   19 1   
    29   17   37 1   
    30   18   34 1   
    31   18   35 1   
    32   19   20 2   
    33   19   21 1   
    34   21   22 1   
    35   21   38 1   
    36   22   23 1   
    37   22   24 1   
    38   22   25 1   
    39   23   24 1   
    40   23   39 1   
    41   23   40 1   
    42   24   41 1   
    43   24   42 1   
    44   25   26 2   
    45   25   44 1   
    46   26   43 1   
@<TRIPOS>SUBSTRUCTURE
     1 MG2         1 TEMP              0 ****  ****    0 ROOT
