@<TRIPOS>MOLECULE
MG2
   45    47     1     0     0
SMALL
bcc


@<TRIPOS>ATOM
      1 F22         0.9580   -1.4730   -0.5670 f         1 MG2     -0.223300
      2 C5          2.1560   -0.8340   -0.3610 c3        1 MG2      0.675200
      3 F20         2.3250   -0.8590    0.9970 f         1 MG2     -0.223300
      4 F21         3.0780   -1.7250   -0.8600 f         1 MG2     -0.223300
      5 C3          2.2350    0.5700   -0.9890 ca        1 MG2     -0.043300
      6 C23         1.0250    1.1310   -1.3980 ca        1 MG2     -0.109000
      7 C25         0.9900    2.4070   -1.9660 ca        1 MG2     -0.049000
      8 C26         2.1730    3.1230   -2.1220 ca        1 MG2     -0.120000
      9 C24         3.3770    2.5590   -1.7060 ca        1 MG2     -0.038000
     10 C4          3.4430    1.2770   -1.1320 ca        1 MG2     -0.355500
     11 S1          4.9680    0.7990   -0.6250 sy        1 MG2      1.361300
     12 O14         5.8460    1.8930   -0.5750 o         1 MG2     -0.635800
     13 O15         4.9180   -0.0350    0.4940 o         1 MG2     -0.635800
     14 C2          5.4820   -0.1830   -1.9860 c3        1 MG2     -0.294900
     15 C16         6.2530    0.6140   -3.0590 c3        1 MG2      0.197800
     16 N9          7.6790    0.3520   -2.9000 n3        1 MG2     -0.800200
     17 C10         7.8500   -0.7940   -2.0250 c3        1 MG2      0.127500
     18 C8          6.4540   -1.2800   -1.5580 c3        1 MG2     -0.078400
     19 C7          8.5770   -1.9220   -2.7730 c         1 MG2      0.539100
     20 O19         9.0210   -1.9660   -3.9010 o         1 MG2     -0.368100
     21 N11         8.8150   -3.1660   -1.9040 n4        1 MG2     -0.648800
     22 C6          8.4740   -4.4340   -2.5840 cx        1 MG2     -0.103100
     23 C18         9.1730   -5.7150   -2.1460 cx        1 MG2     -0.088400
     24 C17         9.5010   -5.1190   -3.4770 cx        1 MG2     -0.088400
     25 C12         7.0380   -4.4890   -3.0330 c2        1 MG2      0.420200
     26 N13         6.1010   -5.2280   -2.6030 n2        1 MG2     -0.673100
     27 H23         2.1610    4.1330   -2.5620 ha        1 MG2      0.165000
     28 H24         4.3080    3.1500   -1.8130 ha        1 MG2      0.170000
     29 H25         4.5870   -0.6620   -2.4680 h1        1 MG2      0.140700
     30 H26         5.9540    0.2640   -4.0860 h1        1 MG2      0.082700
     31 HA          0.0830    0.5680   -1.2710 ha        1 MG2      0.175000
     32 HB          0.0260    2.8400   -2.2830 ha        1 MG2      0.165000
     33 H16         6.0400    1.7160   -2.9800 h1        1 MG2      0.082700
     34 H81C        6.4410   -1.4370   -0.4470 hc        1 MG2      0.085700
     35 H82C        6.1700   -2.2450   -2.0490 hc        1 MG2      0.085700
     36 H9          8.1880    1.1510   -2.5730 hn        1 MG2      0.413800
     37 H10         8.5050   -0.5450   -1.1360 h1        1 MG2      0.089700
     38 H11         9.8070   -3.1920   -1.6400 hn        1 MG2      0.454300
     39 H181        9.9290   -5.6820   -1.3380 hc        1 MG2      0.112700
     40 H182        8.5670   -6.6410   -2.0920 hc        1 MG2      0.112700
     41 H171        9.1250   -5.5960   -4.4040 hc        1 MG2      0.112700
     42 H172       10.4900   -4.6480   -3.6350 hc        1 MG2      0.112700
     43 H13         6.2860   -5.8640   -1.8550 hn        1 MG2      0.412400
     44 H12         6.8170   -3.8090   -3.8860 h4        1 MG2      0.049800
     45 H112        8.2480   -3.0960   -1.0520 hn        1 MG2      0.454300
@<TRIPOS>BOND
     1    1    2 1   
     2    2    3 1   
     3    2    4 1   
     4    2    5 1   
     5    5    6 ar  
     6    5   10 ar  
     7    6    7 ar  
     8    6   31 1   
     9    7    8 ar  
    10    7   32 1   
    11    8    9 ar  
    12    8   27 1   
    13    9   10 ar  
    14    9   28 1   
    15   10   11 1   
    16   11   12 2   
    17   11   13 2   
    18   11   14 1   
    19   14   15 1   
    20   14   18 1   
    21   14   29 1   
    22   15   16 1   
    23   15   30 1   
    24   15   33 1   
    25   16   17 1   
    26   16   36 1   
    27   17   18 1   
    28   17   19 1   
    29   17   37 1   
    30   18   34 1   
    31   18   35 1   
    32   19   20 2   
    33   19   21 1   
    34   21   22 1   
    35   21   38 1   
    36   21   45 1   
    37   22   23 1   
    38   22   24 1   
    39   22   25 1   
    40   23   24 1   
    41   23   39 1   
    42   23   40 1   
    43   24   41 1   
    44   24   42 1   
    45   25   26 2   
    46   25   44 1   
    47   26   43 1   
@<TRIPOS>SUBSTRUCTURE
     1 MG2         1 TEMP              0 ****  ****    0 ROOT
