@<TRIPOS>MOLECULE
MG2
   45    47     1     0     0
SMALL
bcc


@<TRIPOS>ATOM
      1 F22         0.9630   -1.4840   -0.5510 f         1 MG2     -0.223300
      2 C5          2.1590   -0.8400   -0.3520 c3        1 MG2      0.675200
      3 F20         2.3320   -0.8560    1.0050 f         1 MG2     -0.223300
      4 F21         3.0830   -1.7300   -0.8490 f         1 MG2     -0.223300
      5 C3          2.2300    0.5610   -0.9880 ca        1 MG2     -0.043300
      6 C23         1.0170    1.1150   -1.3970 ca        1 MG2     -0.109000
      7 C25         0.9750    2.3870   -1.9730 ca        1 MG2     -0.049000
      8 C26         2.1550    3.1070   -2.1360 ca        1 MG2     -0.120000
      9 C24         3.3620    2.5500   -1.7210 ca        1 MG2     -0.038000
     10 C4          3.4360    1.2720   -1.1390 ca        1 MG2     -0.355500
     11 S1          4.9640    0.8030   -0.6340 sy        1 MG2      1.361300
     12 O14         5.8370    1.9000   -0.5930 o         1 MG2     -0.635800
     13 O15         4.9200   -0.0240    0.4900 o         1 MG2     -0.635800
     14 C2          5.4780   -0.1850   -1.9910 c3        1 MG2     -0.294900
     15 C16         6.2420    0.6090   -3.0710 c3        1 MG2      0.197800
     16 N9          7.6700    0.3540   -2.9150 n7        1 MG2     -0.800200
     17 C10         7.8480   -0.7850   -2.0340 c3        1 MG2      0.127500
     18 C8          6.4550   -1.2750   -1.5600 c3        1 MG2     -0.078400
     19 C7          8.5780   -1.9150   -2.7760 c         1 MG2      0.539100
     20 O19         9.0200   -1.9630   -3.9050 o         1 MG2     -0.368100
     21 N11         8.8240   -3.1530   -1.9020 ny        1 MG2     -0.648800
     22 C6          8.4860   -4.4260   -2.5740 cx        1 MG2     -0.103100
     23 C18         9.1920   -5.7010   -2.1310 cx        1 MG2     -0.088400
     24 C17         9.5140   -5.1110   -3.4650 cx        1 MG2     -0.088400
     25 C12         7.0490   -4.4900   -3.0180 c2        1 MG2      0.420200
     26 N13         6.1160   -5.2300   -2.5820 n2        1 MG2     -0.673100
     27 H23         2.1380    4.1140   -2.5830 ha        1 MG2      0.165000
     28 H24         4.2900    3.1440   -1.8340 ha        1 MG2      0.170000
     29 H25         4.5830   -0.6700   -2.4670 h1        1 MG2      0.140700
     30 H26         6.0240    1.7110   -2.9980 h1        1 MG2      0.082700
     31 HA          0.0780    0.5480   -1.2640 ha        1 MG2      0.175000
     32 HB          0.0090    2.8140   -2.2890 ha        1 MG2      0.165000
     33 H16         5.9410    0.2520   -4.0950 h1        1 MG2      0.082700
     34 H81C        6.1740   -2.2440   -2.0450 hc        1 MG2      0.085700
     35 H82C        6.4460   -1.4260   -0.4480 hc        1 MG2      0.085700
     36 H9          8.1750    1.1580   -2.5940 hn        1 MG2      0.413800
     37 H10         8.5040   -0.5280   -1.1480 h1        1 MG2      0.089700
     38 H11         8.2580   -3.0810   -1.0490 hn        1 MG2      0.454300
     39 H181        9.9490   -5.6610   -1.3250 hc        1 MG2      0.112700
     40 H182        8.5900   -6.6300   -2.0700 hc        1 MG2      0.112700
     41 H171        9.1370   -5.5950   -4.3890 hc        1 MG2      0.112700
     42 H172       10.5000   -4.6370   -3.6290 hc        1 MG2      0.112700
     43 H13         6.3060   -5.8620   -1.8310 hn        1 MG2      0.412400
     44 H12         6.8220   -3.8150   -3.8740 h4        1 MG2      0.049800
     45 H112        9.8160   -3.1730   -1.6400 hn        1 MG2      0.454300
@<TRIPOS>BOND
     1    1    2 1   
     2    2    3 1   
     3    2    4 1   
     4    2    5 1   
     5    5    6 ar  
     6    5   10 ar  
     7    6    7 ar  
     8    6   31 1   
     9    7    8 ar  
    10    7   32 1   
    11    8    9 ar  
    12    8   27 1   
    13    9   10 ar  
    14    9   28 1   
    15   10   11 1   
    16   11   12 2   
    17   11   13 2   
    18   11   14 1   
    19   14   15 1   
    20   14   18 1   
    21   14   29 1   
    22   15   16 1   
    23   15   30 1   
    24   15   33 1   
    25   16   17 1   
    26   16   36 1   
    27   17   18 1   
    28   17   19 1   
    29   17   37 1   
    30   18   34 1   
    31   18   35 1   
    32   19   20 2   
    33   19   21 1   
    34   21   22 1   
    35   21   38 1   
    36   21   45 1   
    37   22   23 1   
    38   22   24 1   
    39   22   25 1   
    40   23   24 1   
    41   23   39 1   
    42   23   40 1   
    43   24   41 1   
    44   24   42 1   
    45   25   26 2   
    46   25   44 1   
    47   26   43 1   
@<TRIPOS>SUBSTRUCTURE
     1 MG2         1 TEMP              0 ****  ****    0 ROOT
