@<TRIPOS>MOLECULE
MG2
   45    47     1     0     0
SMALL
bcc


@<TRIPOS>ATOM
      1 F22         0.7070   -1.1430   -0.3250 f         1 MG2     -0.223300
      2 C5          1.9520   -0.5870   -0.1700 c3        1 MG2      0.675200
      3 F20         2.1610   -0.5920    1.1820 f         1 MG2     -0.223300
      4 F21         2.7930   -1.5530   -0.6730 f         1 MG2     -0.223300
      5 C3          2.1100    0.7930   -0.8350 ca        1 MG2     -0.043300
      6 C23         0.9310    1.4260   -1.2280 ca        1 MG2     -0.109000
      7 C25         0.9680    2.6880   -1.8290 ca        1 MG2     -0.049000
      8 C26         2.1930    3.3160   -2.0330 ca        1 MG2     -0.120000
      9 C24         3.3660    2.6800   -1.6340 ca        1 MG2     -0.038000
     10 C4          3.3600    1.4110   -1.0280 ca        1 MG2     -0.355500
     11 S1          4.8620    0.8420   -0.5470 sy        1 MG2      1.362300
     12 O14         5.8160    1.8710   -0.5560 o         1 MG2     -0.635300
     13 O15         4.7860    0.0470    0.5990 o         1 MG2     -0.635300
     14 C2          5.2660   -0.2140   -1.8910 c3        1 MG2     -0.295900
     15 C16         6.0530    0.4980   -3.0110 c3        1 MG2      0.195800
     16 N9          7.4620    0.1390   -2.8920 n3        1 MG2     -0.799200
     17 C10         7.5750   -1.0150   -2.0200 c3        1 MG2      0.126500
     18 C8          6.1710   -1.3630   -1.4540 c3        1 MG2     -0.076400
     19 C7          8.0940   -2.2250   -2.8150 c         1 MG2      0.538100
     20 O19         8.2190   -2.3860   -4.0120 o         1 MG2     -0.376100
     21 N11         8.4930   -3.3940   -1.9090 n4        1 MG2     -0.646800
     22 C6          8.7500   -4.6730   -2.6030 cx        1 MG2     -0.104100
     23 C18         9.7900   -5.6280   -2.0330 cx        1 MG2     -0.087900
     24 C17        10.0780   -4.9050   -3.3090 cx        1 MG2     -0.087900
     25 C12         7.5080   -5.2900   -3.1930 c2        1 MG2      0.421200
     26 N13         7.0040   -5.0950   -4.3400 n2        1 MG2     -0.675100
     27 H23         2.2380    4.3130   -2.4990 ha        1 MG2      0.165000
     28 H24         4.3320    3.2030   -1.7800 ha        1 MG2      0.170000
     29 H25         4.3260   -0.6430   -2.3320 h1        1 MG2      0.140700
     30 H26         5.6950    0.1440   -4.0170 h1        1 MG2      0.084200
     31 HA         -0.0430    0.9330   -1.0630 ha        1 MG2      0.175000
     32 HB          0.0280    3.1780   -2.1320 ha        1 MG2      0.165000
     33 H16         5.9230    1.6140   -2.9570 h1        1 MG2      0.084200
     34 H81C        6.2130   -1.4600   -0.3370 hc        1 MG2      0.085700
     35 H82C        5.7850   -2.3260   -1.8700 hc        1 MG2      0.085700
     36 H9          8.0310    0.9020   -2.5750 hn        1 MG2      0.413800
     37 H10         8.3110   -0.8290   -1.1830 h1        1 MG2      0.085700
     38 H11         9.3380   -3.1210   -1.3940 hn        1 MG2      0.456300
     39 H181        9.5460   -6.7100   -2.0550 hc        1 MG2      0.111950
     40 H182       10.3510   -5.3570   -1.1190 hc        1 MG2      0.111950
     41 H171       10.8440   -4.1070   -3.3190 hc        1 MG2      0.111950
     42 H172       10.0510   -5.4530   -4.2720 hc        1 MG2      0.111950
     43 H13         7.4430   -4.4430   -4.9590 hn        1 MG2      0.420400
     44 H12         7.0220   -6.0310   -2.5210 h4        1 MG2      0.050800
     45 H112        7.7340   -3.5440   -1.2310 hn        1 MG2      0.456300
@<TRIPOS>BOND
     1    1    2 1   
     2    2    3 1   
     3    2    4 1   
     4    2    5 1   
     5    5    6 ar  
     6    5   10 ar  
     7    6    7 ar  
     8    6   31 1   
     9    7    8 ar  
    10    7   32 1   
    11    8    9 ar  
    12    8   27 1   
    13    9   10 ar  
    14    9   28 1   
    15   10   11 1   
    16   11   12 2   
    17   11   13 2   
    18   11   14 1   
    19   14   15 1   
    20   14   18 1   
    21   14   29 1   
    22   15   16 1   
    23   15   30 1   
    24   15   33 1   
    25   16   17 1   
    26   16   36 1   
    27   17   18 1   
    28   17   19 1   
    29   17   37 1   
    30   18   34 1   
    31   18   35 1   
    32   19   20 2   
    33   19   21 1   
    34   21   22 1   
    35   21   38 1   
    36   21   45 1   
    37   22   23 1   
    38   22   24 1   
    39   22   25 1   
    40   23   24 1   
    41   23   39 1   
    42   23   40 1   
    43   24   41 1   
    44   24   42 1   
    45   25   26 2   
    46   25   44 1   
    47   26   43 1   
@<TRIPOS>SUBSTRUCTURE
     1 MG2         1 TEMP              0 ****  ****    0 ROOT
