@<TRIPOS>MOLECULE
MG5
   53    53     1     0     0
SMALL
bcc


@<TRIPOS>ATOM
      1 O5          0.2160   -1.9450    0.5350 os        1 MG5     -0.436600
      2 C1         -1.0710   -2.1210   -0.0500 c3        1 MG5      0.322900
      3 C2         -1.9800   -0.9500    0.3810 c3        1 MG5      0.073100
      4 O2A        -3.2450   -1.0780   -0.2730 os        1 MG5     -0.428900
      5 C2B        -4.2120   -1.8220    0.3600 c         1 MG5      0.645100
      6 O2C        -3.9390   -2.3290    1.4490 o         1 MG5     -0.542000
      7 C2D        -5.4900   -1.8690   -0.4180 c3        1 MG5     -0.124400
      8 C2E        -6.0320   -3.2740   -0.4810 c3        1 MG5     -0.095100
      9 C3         -1.3710    0.3820   -0.0830 c3        1 MG5      0.140100
     10 O3A        -2.0950    1.4290    0.5750 os        1 MG5     -0.440900
     11 C3B        -2.7720    2.3500   -0.1840 c         1 MG5      0.641100
     12 O3C        -2.7430    2.2580   -1.4090 o         1 MG5     -0.527000
     13 C3D        -3.4510    3.3780    0.6710 c3        1 MG5     -0.126400
     14 C3E        -4.8080    3.7320    0.1210 c3        1 MG5     -0.094100
     15 C4          0.0890    0.4780    0.4060 c3        1 MG5      0.101100
     16 O4A         0.6690    1.5810   -0.2990 os        1 MG5     -0.436900
     17 C4B         1.3840    2.5180    0.4060 c         1 MG5      0.647100
     18 O4C         1.5130    2.3700    1.6210 o         1 MG5     -0.546000
     19 C4D         1.9030    3.6100   -0.4800 c3        1 MG5     -0.119400
     20 C4E         3.3680    3.8540   -0.2210 c3        1 MG5     -0.106100
     21 C5          0.8840   -0.7890    0.0340 c3        1 MG5      0.128100
     22 C5A         2.2710   -0.7910    0.6920 c3        1 MG5      0.185400
     23 O5B         3.1950   -1.2820   -0.2480 os        1 MG5     -0.572500
     24 S5C         4.7460   -0.6620   -0.4250 s6        1 MG5      1.722400
     25 O5D         5.1530   -1.2220   -1.6260 o         1 MG5     -0.654800
     26 O5E         4.5680    0.7140   -0.2910 o         1 MG5     -0.654800
     27 N5F         5.5480   -1.2490    0.8100 n3        1 MG5     -1.041700
     28 O1A        -1.4780   -3.3560    0.4530 oh        1 MG5     -0.569800
     29 H1         -1.0160   -2.2280   -1.1680 h2        1 MG5      0.094700
     30 H2         -2.1140   -0.9480    1.4990 h1        1 MG5      0.097700
     31 H2D        -6.2180   -1.1900    0.1020 hc        1 MG5      0.079700
     32 H2DA       -5.3170   -1.4640   -1.4510 hc        1 MG5      0.079700
     33 H2E        -6.1350   -3.7010    0.5460 hc        1 MG5      0.051033
     34 H2EA       -7.0350   -3.2680   -0.9730 hc        1 MG5      0.051033
     35 H2EB       -5.3510   -3.9350   -1.0700 hc        1 MG5      0.051033
     36 H3         -1.4290    0.4870   -1.2000 h1        1 MG5      0.114700
     37 H3D        -3.5360    2.9960    1.7230 hc        1 MG5      0.079200
     38 H3DA       -2.7850    4.2830    0.6870 hc        1 MG5      0.079200
     39 H3E        -5.2390    4.5840    0.7010 hc        1 MG5      0.049033
     40 H3EA       -4.7310    4.0290   -0.9540 hc        1 MG5      0.049033
     41 H3EB       -5.5050    2.8630    0.1960 hc        1 MG5      0.049033
     42 H4          0.1080    0.6490    1.5180 h1        1 MG5      0.104700
     43 H4D         1.7340    3.3340   -1.5550 hc        1 MG5      0.076700
     44 H4DA        1.3010    4.5320   -0.2580 hc        1 MG5      0.076700
     45 H4E         3.7320    4.6780   -0.8800 hc        1 MG5      0.058033
     46 H4EA        3.5330    4.1440    0.8460 hc        1 MG5      0.058033
     47 H4EB        3.9660    2.9320   -0.4310 hc        1 MG5      0.058033
     48 H5          0.9890   -0.8610   -1.0850 h1        1 MG5      0.083700
     49 H5A         2.5460    0.2560    1.0010 h1        1 MG5      0.062700
     50 H5AA        2.2750   -1.4820    1.5790 h1        1 MG5      0.062700
     51 HN5F        5.9680   -2.1470    0.8170 hn        1 MG5      0.458300
     52 HN5A        5.6740   -0.7720    1.6690 hn        1 MG5      0.458300
     53 HO1A       -1.6110   -3.2680    1.4090 ho        1 MG5      0.428000
@<TRIPOS>BOND
     1    1    2 1   
     2    1   21 1   
     3    2    3 1   
     4    2   28 1   
     5    2   29 1   
     6    3    4 1   
     7    3    9 1   
     8    3   30 1   
     9    4    5 1   
    10    5    6 2   
    11    5    7 1   
    12    7    8 1   
    13    7   31 1   
    14    7   32 1   
    15    8   33 1   
    16    8   34 1   
    17    8   35 1   
    18    9   10 1   
    19    9   15 1   
    20    9   36 1   
    21   10   11 1   
    22   11   12 2   
    23   11   13 1   
    24   13   14 1   
    25   13   37 1   
    26   13   38 1   
    27   14   39 1   
    28   14   40 1   
    29   14   41 1   
    30   15   16 1   
    31   15   21 1   
    32   15   42 1   
    33   16   17 1   
    34   17   18 2   
    35   17   19 1   
    36   19   20 1   
    37   19   43 1   
    38   19   44 1   
    39   20   45 1   
    40   20   46 1   
    41   20   47 1   
    42   21   22 1   
    43   21   48 1   
    44   22   23 1   
    45   22   49 1   
    46   22   50 1   
    47   23   24 1   
    48   24   25 2   
    49   24   26 2   
    50   24   27 1   
    51   27   51 1   
    52   27   52 1   
    53   28   53 1   
@<TRIPOS>SUBSTRUCTURE
     1 MG5         1 TEMP              0 ****  ****    0 ROOT
