@<TRIPOS>MOLECULE
MG7
   38    40     1     0     0
SMALL
bcc


@<TRIPOS>ATOM
      1 N9         -0.2250   -0.1920   -0.2400 na        1 MG7     -0.026100
      2 C8          1.1170   -0.4890   -0.3870 cc        1 MG7      0.049400
      3 N7          1.7470   -0.5310    0.8410 na        1 MG7      0.027900
      4 C5          0.7790   -0.2600    1.8100 cc        1 MG7     -0.177900
      5 C6          0.8650   -0.1720    3.2670 c         1 MG7      0.751100
      6 O6          1.8630   -0.3190    3.9670 o         1 MG7     -0.477500
      7 N1         -0.3900    0.1230    3.8900 ns        1 MG7     -0.480400
      8 C2         -1.5470    0.2990    3.1300 cc        1 MG7      0.569800
      9 N2         -2.8200    0.6000    3.8650 nz        1 MG7     -0.802600
     10 N3         -1.6590    0.2300    1.8000 nd        1 MG7     -0.518100
     11 C4         -0.4690   -0.0500    1.1390 cd        1 MG7      0.165100
     12 O5'         1.7220   -0.1050   -3.3350 oh        1 MG7     -0.625800
     13 C5'         0.7970    0.8970   -3.7050 c3        1 MG7      0.109400
     14 C4'        -0.6390    0.4000   -3.5260 c3        1 MG7      0.069100
     15 O4'        -0.6760   -0.6220   -2.5040 os        1 MG7     -0.381600
     16 C1'        -1.2470   -0.1350   -1.3100 c3        1 MG7      0.201800
     17 CN7         3.1430   -0.8210    1.0660 c3        1 MG7     -0.018400
     18 C2'        -1.8070    1.3080   -1.5710 c3        1 MG7      0.112100
     19 O2'        -3.1340    1.3690   -1.1380 oh        1 MG7     -0.577800
     20 C3'        -1.6030    1.5210   -3.0940 c3        1 MG7      0.097100
     21 O3'        -2.8420    1.3210   -3.7370 oh        1 MG7     -0.584800
     22 H8          1.6050   -0.6650   -1.3830 h5        1 MG7      0.319000
     23 HN1        -0.3890    0.1910    4.8910 hn        1 MG7      0.380500
     24 HN21       -3.5940    0.7310    3.1870 hn        1 MG7      0.502133
     25 HN22       -2.7100    1.4650    4.4150 hn        1 MG7      0.502133
     26 HO5'        1.7170   -0.7850   -4.0220 ho        1 MG7      0.440000
     27 H5'1        1.0240    1.7580   -3.0190 h1        1 MG7      0.076200
     28 H5'2        0.9520    1.2190   -4.7690 h1        1 MG7      0.076200
     29 H1'        -2.0630   -0.8570   -0.9990 h2        1 MG7      0.139700
     30 H71         3.3490   -1.8930    0.7900 h1        1 MG7      0.116367
     31 H72         3.7720   -0.1380    0.4310 h1        1 MG7      0.116367
     32 H73         3.3840   -0.6590    2.1540 h1        1 MG7      0.116367
     33 H2'        -1.2590    2.0920   -0.9820 h1        1 MG7      0.095700
     34 HO2'       -3.7180    1.0570   -1.8510 ho        1 MG7      0.455000
     35 H3'        -1.1760    2.5370   -3.3010 h1        1 MG7      0.095700
     36 HO3'       -3.0940    2.1430   -4.1800 ho        1 MG7      0.449000
     37 H23        -3.0550   -0.1860    4.4890 hn        1 MG7      0.502133
     38 H4'        -1.0130   -0.1300   -4.4490 h1        1 MG7      0.136700
@<TRIPOS>BOND
     1    1    2 2   
     2    1   11 1   
     3    1   16 1   
     4    2    3 1   
     5    2   22 1   
     6    3    4 1   
     7    3   17 1   
     8    4    5 1   
     9    4   11 2   
    10    5    6 2   
    11    5    7 1   
    12    7    8 1   
    13    7   23 1   
    14    8    9 1   
    15    8   10 2   
    16    9   24 1   
    17    9   25 1   
    18    9   37 1   
    19   10   11 1   
    20   12   13 1   
    21   12   26 1   
    22   13   14 1   
    23   13   27 1   
    24   13   28 1   
    25   14   15 1   
    26   14   20 1   
    27   14   38 1   
    28   15   16 1   
    29   16   18 1   
    30   16   29 1   
    31   17   30 1   
    32   17   31 1   
    33   17   32 1   
    34   18   19 1   
    35   18   20 1   
    36   18   33 1   
    37   19   34 1   
    38   20   21 1   
    39   20   35 1   
    40   21   36 1   
@<TRIPOS>SUBSTRUCTURE
     1 MG7         1 TEMP              0 ****  ****    0 ROOT
