@<TRIPOS>MOLECULE
MG7
   38    40     1     0     0
SMALL
bcc


@<TRIPOS>ATOM
      1 N9         -0.2240   -0.1930   -0.2330 na        1 MG7     -0.026100
      2 C8          1.1190   -0.4810   -0.3830 cc        1 MG7      0.049400
      3 N7          1.7560   -0.4930    0.8420 na        1 MG7      0.027900
      4 C5          0.7910   -0.2100    1.8120 cc        1 MG7     -0.177900
      5 C6          0.8840   -0.0930    3.2660 c         1 MG7      0.751100
      6 O6          1.8870   -0.2160    3.9630 o         1 MG7     -0.477500
      7 N1         -0.3700    0.2030    3.8900 n         1 MG7     -0.480400
      8 C2         -1.5320    0.3540    3.1340 cc        1 MG7      0.569800
      9 N2         -2.8040    0.6580    3.8690 n4        1 MG7     -0.802600
     10 N3         -1.6510    0.2570    1.8050 nd        1 MG7     -0.518100
     11 C4         -0.4630   -0.0250    1.1440 cd        1 MG7      0.165100
     12 O5'         1.7050   -0.1490   -3.3400 oh        1 MG7     -0.625800
     13 C5'         0.7690    0.8370   -3.7240 c3        1 MG7      0.109400
     14 C4'        -0.6620    0.3300   -3.5290 c3        1 MG7      0.069100
     15 O4'        -0.6840   -0.6720   -2.4860 os        1 MG7     -0.381600
     16 C1'        -1.2530   -0.1660   -1.2990 c3        1 MG7      0.201800
     17 CN7         3.1560   -0.7660    1.0650 c3        1 MG7     -0.018400
     18 C2'        -1.8280    1.2650   -1.5850 c3        1 MG7      0.112100
     19 O2'        -3.1520    1.3230   -1.1460 oh        1 MG7     -0.577800
     20 C3'        -1.6330    1.4510   -3.1130 c3        1 MG7      0.097100
     21 O3'        -2.8740    1.2270   -3.7450 oh        1 MG7     -0.584800
     22 H8          1.6030   -0.6730   -1.3770 h5        1 MG7      0.319000
     23 HN1        -0.3630    0.2910    4.8900 hn        1 MG7      0.380500
     24 HN21       -3.0280   -0.1170    4.5110 hn        1 MG7      0.502133
     25 HN22       -3.5830    0.7690    3.1930 hn        1 MG7      0.502133
     26 HO5'        1.7020   -0.8420   -4.0150 ho        1 MG7      0.440000
     27 H5'1        0.9910    1.7130   -3.0570 h1        1 MG7      0.076200
     28 H5'2        0.9150    1.1400   -4.7950 h1        1 MG7      0.076200
     29 H1'        -2.0610   -0.8900   -0.9690 h2        1 MG7      0.139700
     30 H71         3.3690   -1.8430    0.8140 h1        1 MG7      0.116367
     31 H72         3.7750   -0.0930    0.4100 h1        1 MG7      0.116367
     32 H73         3.4020   -0.5770    2.1480 h1        1 MG7      0.116367
     33 H2'        -1.2840    2.0660   -1.0140 h1        1 MG7      0.095700
     34 HO2'       -3.7380    0.9910   -1.8500 ho        1 MG7      0.455000
     35 H3'        -1.2170    2.4660   -3.3430 h1        1 MG7      0.095700
     36 HO3'       -3.1360    2.0380   -4.2030 ho        1 MG7      0.449000
     37 H23        -2.6990    1.5350    4.4000 hn        1 MG7      0.502133
     38 H4'        -1.0350   -0.2210   -4.4390 h1        1 MG7      0.136700
@<TRIPOS>BOND
     1    1    2 2   
     2    1   11 1   
     3    1   16 1   
     4    2    3 1   
     5    2   22 1   
     6    3    4 1   
     7    3   17 1   
     8    4    5 1   
     9    4   11 2   
    10    5    6 2   
    11    5    7 1   
    12    7    8 1   
    13    7   23 1   
    14    8    9 1   
    15    8   10 2   
    16    9   24 1   
    17    9   25 1   
    18    9   37 1   
    19   10   11 1   
    20   12   13 1   
    21   12   26 1   
    22   13   14 1   
    23   13   27 1   
    24   13   28 1   
    25   14   15 1   
    26   14   20 1   
    27   14   38 1   
    28   15   16 1   
    29   16   18 1   
    30   16   29 1   
    31   17   30 1   
    32   17   31 1   
    33   17   32 1   
    34   18   19 1   
    35   18   20 1   
    36   18   33 1   
    37   19   34 1   
    38   20   21 1   
    39   20   35 1   
    40   21   36 1   
@<TRIPOS>SUBSTRUCTURE
     1 MG7         1 TEMP              0 ****  ****    0 ROOT
