@<TRIPOS>MOLECULE
MG7
   38    40     1     0     0
SMALL
bcc


@<TRIPOS>ATOM
      1 N9         -0.2340   -0.1950   -0.2280 na        1 MG7     -0.026100
      2 C8          1.1010   -0.5170   -0.3840 cc        1 MG7      0.049400
      3 N7          1.7470   -0.5330    0.8360 na        1 MG7      0.027900
      4 C5          0.7960   -0.2190    1.8100 cc        1 MG7     -0.177900
      5 C6          0.9030   -0.0910    3.2620 c         1 MG7      0.751100
      6 O6          1.9080   -0.2320    3.9530 o         1 MG7     -0.477500
      7 N1         -0.3380    0.2410    3.8930 n         1 MG7     -0.480400
      8 C2         -1.5030    0.4130    3.1440 cc        1 MG7      0.569800
      9 N2         -2.7610    0.7540    3.8860 n4        1 MG7     -0.802600
     10 N3         -1.6340    0.3070    1.8170 nd        1 MG7     -0.518100
     11 C4         -0.4570   -0.0100    1.1500 cd        1 MG7      0.165100
     12 O5'         1.6720   -0.2270   -3.3490 oh        1 MG7     -0.625800
     13 C5'         0.7570    0.7780   -3.7360 c3        1 MG7      0.109400
     14 C4'        -0.6840    0.3080   -3.5240 c3        1 MG7      0.069100
     15 O4'        -0.7220   -0.6830   -2.4720 os        1 MG7     -0.381600
     16 C1'        -1.2690   -0.1530   -1.2860 c3        1 MG7      0.201800
     17 CN7         3.1420   -0.8370    1.0520 c3        1 MG7     -0.018400
     18 C2'        -1.8120    1.2890   -1.5810 c3        1 MG7      0.112100
     19 O2'        -3.1310    1.3830   -1.1320 oh        1 MG7     -0.577800
     20 C3'        -1.6250    1.4560   -3.1120 c3        1 MG7      0.097100
     21 O3'        -2.8760    1.2560   -3.7320 oh        1 MG7     -0.584800
     22 H8          1.5730   -0.7290   -1.3800 h5        1 MG7      0.319000
     23 HN1        -0.3220    0.3380    4.8920 hn        1 MG7      0.380500
     24 HN21       -2.6310    1.6330    4.4090 hn        1 MG7      0.502133
     25 HN22       -2.9990   -0.0100    4.5360 hn        1 MG7      0.502133
     26 HO5'        1.6480   -0.9260   -4.0160 ho        1 MG7      0.440000
     27 H5'1        0.9020    1.0670   -4.8100 h1        1 MG7      0.076200
     28 H5'2        1.0060    1.6550   -3.0780 h1        1 MG7      0.076200
     29 H1'        -2.0920   -0.8540   -0.9430 h2        1 MG7      0.139700
     30 H71         3.7720   -0.1820    0.3890 h1        1 MG7      0.116367
     31 H72         3.4000   -0.6480    2.1320 h1        1 MG7      0.116367
     32 H73         3.3280   -1.9190    0.8030 h1        1 MG7      0.116367
     33 H2'        -1.2440    2.0820   -1.0220 h1        1 MG7      0.095700
     34 HO2'       -3.7300    1.0590   -1.8290 ho        1 MG7      0.455000
     35 H3'        -1.1860    2.4580   -3.3540 h1        1 MG7      0.095700
     36 HO3'       -3.1210    2.0690   -4.1960 ho        1 MG7      0.449000
     37 H23        -3.5420    0.8780    3.2150 hn        1 MG7      0.502133
     38 H4'        -1.0770   -0.2430   -4.4260 h1        1 MG7      0.136700
@<TRIPOS>BOND
     1    1    2 2   
     2    1   11 1   
     3    1   16 1   
     4    2    3 1   
     5    2   22 1   
     6    3    4 1   
     7    3   17 1   
     8    4    5 1   
     9    4   11 2   
    10    5    6 2   
    11    5    7 1   
    12    7    8 1   
    13    7   23 1   
    14    8    9 1   
    15    8   10 2   
    16    9   24 1   
    17    9   25 1   
    18    9   37 1   
    19   10   11 1   
    20   12   13 1   
    21   12   26 1   
    22   13   14 1   
    23   13   27 1   
    24   13   28 1   
    25   14   15 1   
    26   14   20 1   
    27   14   38 1   
    28   15   16 1   
    29   16   18 1   
    30   16   29 1   
    31   17   30 1   
    32   17   31 1   
    33   17   32 1   
    34   18   19 1   
    35   18   20 1   
    36   18   33 1   
    37   19   34 1   
    38   20   21 1   
    39   20   35 1   
    40   21   36 1   
@<TRIPOS>SUBSTRUCTURE
     1 MG7         1 TEMP              0 ****  ****    0 ROOT
