@<TRIPOS>MOLECULE
MG7
   37    39     1     0     0
SMALL
bcc


@<TRIPOS>ATOM
      1 N9          0.1910    0.2570    0.4240 na        1 MG7     -0.083100
      2 C8          0.1670    1.6450    0.3760 cc        1 MG7      0.011400
      3 N7         -1.1000    2.0960    0.1280 na        1 MG7      0.041900
      4 C5         -1.9340    0.9720    0.0210 cc        1 MG7     -0.309900
      5 C6         -3.3580    0.8460   -0.2230 c         1 MG7      0.764100
      6 O6         -4.1600    1.7690   -0.4100 o         1 MG7     -0.573500
      7 N1         -3.8120   -0.4960   -0.2370 n         1 MG7     -0.501400
      8 C2         -2.9520   -1.5970   -0.0360 cc        1 MG7      0.765800
      9 N2         -3.4880   -2.8610   -0.0710 nh        1 MG7     -0.905800
     10 N3         -1.5950   -1.4850    0.1900 nd        1 MG7     -0.680100
     11 C4         -1.1300   -0.2020    0.2140 cd        1 MG7      0.267100
     12 O5'         3.0620    2.5640   -0.0430 oh        1 MG7     -0.613800
     13 C5'         3.4300    1.4480   -0.8270 c3        1 MG7      0.109400
     14 C4'         3.4470    0.1660    0.0050 c3        1 MG7      0.081100
     15 O4'         2.4590    0.2490    1.0520 os        1 MG7     -0.397600
     16 C1'         1.3420   -0.5810    0.7760 c3        1 MG7      0.211800
     17 CN7        -1.5060    3.4710    0.0090 c3        1 MG7     -0.010400
     18 C2'         1.7590   -1.5930   -0.3430 c3        1 MG7      0.093100
     19 O2'         1.8300   -2.8890    0.1850 oh        1 MG7     -0.561800
     20 C3'         3.1370   -1.0830   -0.8360 c3        1 MG7      0.088100
     21 O3'         4.1380   -2.0370   -0.5440 oh        1 MG7     -0.581800
     22 H8          1.0750    2.2740    0.5130 h5        1 MG7      0.289000
     23 HN1        -4.7900   -0.6340   -0.3970 hn        1 MG7      0.360500
     24 HN21       -2.8960   -3.6480    0.0780 hn        1 MG7      0.475800
     25 HN22       -4.4580   -3.0090   -0.2150 hn        1 MG7      0.475800
     26 HO5'        3.7210    2.6620    0.6580 ho        1 MG7      0.428000
     27 H5'1        4.4410    1.6020   -1.2900 h1        1 MG7      0.068700
     28 H5'2        2.6520    1.4080   -1.6360 h1        1 MG7      0.068700
     29 H1'         1.0830   -1.1150    1.7420 h2        1 MG7      0.135700
     30 H71        -0.9030    3.9730   -0.7950 h1        1 MG7      0.101033
     31 H72        -2.6010    3.5060   -0.2570 h1        1 MG7      0.101033
     32 H73        -1.3410    3.9970    0.9890 h1        1 MG7      0.101033
     33 H2'         1.0060   -1.6590   -1.1730 h1        1 MG7      0.114700
     34 HO2'        2.6010   -2.9390    0.7740 ho        1 MG7      0.432000
     35 H3'         3.1130   -0.8530   -1.9330 h1        1 MG7      0.078700
     36 HO3'        4.0260   -2.7720   -1.1640 ho        1 MG7      0.434000
     37 H4'         4.4250    0.0540    0.5550 h1        1 MG7      0.123700
@<TRIPOS>BOND
     1    1    2 2   
     2    1   11 1   
     3    1   16 1   
     4    2    3 1   
     5    2   22 1   
     6    3    4 1   
     7    3   17 1   
     8    4    5 1   
     9    4   11 2   
    10    5    6 2   
    11    5    7 1   
    12    7    8 1   
    13    7   23 1   
    14    8    9 1   
    15    8   10 2   
    16    9   24 1   
    17    9   25 1   
    18   10   11 1   
    19   12   13 1   
    20   12   26 1   
    21   13   14 1   
    22   13   27 1   
    23   13   28 1   
    24   14   15 1   
    25   14   20 1   
    26   14   37 1   
    27   15   16 1   
    28   16   18 1   
    29   16   29 1   
    30   17   30 1   
    31   17   31 1   
    32   17   32 1   
    33   18   19 1   
    34   18   20 1   
    35   18   33 1   
    36   19   34 1   
    37   20   21 1   
    38   20   35 1   
    39   21   36 1   
@<TRIPOS>SUBSTRUCTURE
     1 MG7         1 TEMP              0 ****  ****    0 ROOT
