@<TRIPOS>MOLECULE
MG7
   37    34     1     0     0
SMALL
bcc


@<TRIPOS>ATOM
      1 N9          0.5430   -0.2990   -0.1450 n2        1 MG7     -0.080500
      2 C8          1.9070   -0.3350   -0.1670 c1        1 MG7      0.049000
      3 N7          2.3470   -0.3340    1.1120 n2        1 MG7     -0.080500
      4 C5          1.2730   -0.2990    1.9210 c1        1 MG7     -0.053500
      5 C6          1.1410   -0.2410    3.4170 c1        1 MG7      0.402000
      6 O6          2.1350   -0.1980    4.1140 o         1 MG7     -0.296000
      7 N1         -0.1330   -0.2080    4.0070 n3        1 MG7     -0.340000
      8 C2         -1.3040   -0.2270    3.1860 c2        1 MG7      0.320000
      9 N2         -2.5860   -0.3490    3.7850 n3        1 MG7     -0.341000
     10 N3         -1.1750   -0.2770    1.7520 n1        1 MG7     -0.250000
     11 C4          0.1500   -0.2770    1.1340 c1        1 MG7     -0.053500
     12 O5'        -0.3930    3.0720   -2.9540 oh        1 MG7     -0.309000
     13 C5'        -0.1770    1.9450   -2.1050 c3        1 MG7     -0.034000
     14 C4'        -0.3320    0.6390   -2.9270 c3        1 MG7     -0.028000
     15 O4'         0.6860   -0.4690   -2.3950 os        1 MG7     -0.264000
     16 C1'         0.1280   -0.9990   -1.3560 c2        1 MG7      0.117000
     17 CN7         3.7530   -0.3630    1.4110 c2        1 MG7     -0.112000
     18 C2'        -1.3730   -0.8250   -1.5780 c3        1 MG7     -0.014000
     19 O2'        -1.9440   -2.0140   -1.8910 oh        1 MG7     -0.291000
     20 C3'        -1.5060    0.1590   -2.7610 c3        1 MG7     -0.028000
     21 O3'        -1.9500   -0.5730   -4.0020 oh        1 MG7     -0.313000
     22 H8          2.4520   -0.3880   -0.9440 DU        1 MG7      0.261000
     23 HN1        -0.2130   -0.1410    4.9010 hn        1 MG7      0.275000
     24 HN21       -3.3110   -0.4860    3.2710 hn        1 MG7      0.272500
     25 HN22       -2.6740   -0.2840    4.6970 hn        1 MG7      0.272500
     26 HO5'       -0.4030    3.8270   -2.4540 ho        1 MG7      0.220000
     27 H5'1        0.6940    1.9870   -1.7420 h1        1 MG7      0.092000
     28 H5'2       -0.8400    1.9530   -1.3730 h1        1 MG7      0.092000
     29 H4'        -0.1730    0.8140   -3.8670 h1        1 MG7      0.159000
     30 H1'         0.3510   -1.9380   -1.2960 h4        1 MG7      0.174000
     31 H71         4.2610   -0.4060    0.5810 ha        1 MG7      0.141333
     32 H72         3.9510   -1.1350    1.9480 ha        1 MG7      0.141333
     33 H73         4.0030    0.4560    1.9080 ha        1 MG7      0.141333
     34 H2'        -1.8020   -0.4410   -0.7570 h1        1 MG7      0.154000
     35 HO2'       -2.7610   -2.0650   -1.5070 ho        1 MG7      0.232000
     36 H3'        -2.1230    0.8570   -2.5460 h1        1 MG7      0.140000
     37 HO3'       -2.6030   -0.1360   -4.3770 ho        1 MG7      0.232000
@<TRIPOS>BOND
     1    1    2 1   
     2    1   11 1   
     3    2    3 1   
     4    3    4 1   
     5    4   11 1   
     6    5    6 1   
     7    5    7 1   
     8    7    8 1   
     9    7   23 1   
    10    8    9 1   
    11    8   10 1   
    12    9   24 1   
    13    9   25 1   
    14   12   13 1   
    15   12   26 1   
    16   13   14 1   
    17   13   27 1   
    18   13   28 1   
    19   14   15 1   
    20   14   20 1   
    21   14   29 1   
    22   15   16 1   
    23   16   18 1   
    24   16   30 1   
    25   17   31 1   
    26   17   32 1   
    27   17   33 1   
    28   18   19 1   
    29   18   20 1   
    30   18   34 1   
    31   19   35 1   
    32   20   21 1   
    33   20   36 1   
    34   21   37 1   
@<TRIPOS>SUBSTRUCTURE
     1 MG7         1 TEMP              0 ****  ****    0 ROOT
