@<TRIPOS>MOLECULE
MG8
   54    53     1     0     0
SMALL
bcc


@<TRIPOS>ATOM
      1 C1          1.5020    0.6880   -1.0050 c3        1 MG8     -0.095100
      2 C2          2.3320   -0.2410   -0.1570 c3        1 MG8     -0.079400
      3 C3          3.0380    0.5070    0.9540 c3        1 MG8     -0.079400
      4 C4          3.8700   -0.4310    1.8020 c3        1 MG8     -0.079400
      5 C5          4.5750    0.3210    2.9120 c3        1 MG8     -0.080400
      6 C6          5.4040   -0.6240    3.7570 c3        1 MG8     -0.082400
      7 C7          6.1090    0.1410    4.8620 c3        1 MG8     -0.153400
      8 C8          6.9100   -0.7920    5.7230 c         1 MG8      0.549100
      9 O8          6.9540   -2.0100    5.6960 o         1 MG8     -0.406100
     10 N           7.7810   -0.1040    6.7730 nx        1 MG8     -0.599200
     11 C9          9.1890   -0.0130    6.2700 c3        1 MG8      0.113800
     12 C10         9.9890    1.1210    6.9390 c3        1 MG8      0.146100
     13 O10         9.2090    2.2940    6.7870 oh        1 MG8     -0.641800
     14 C11        11.3550    1.2720    6.2340 c3        1 MG8      0.115100
     15 O11        11.7670   -0.0360    5.8730 oh        1 MG8     -0.609800
     16 C12        12.3730    1.9210    7.1880 c3        1 MG8      0.109100
     17 O12        11.7040    2.9870    7.8430 oh        1 MG8     -0.635800
     18 C13        13.6330    2.4200    6.4610 c3        1 MG8      0.109100
     19 O13        14.4790    2.8800    7.5030 oh        1 MG8     -0.608800
     20 C14        13.3420    3.5560    5.4720 c3        1 MG8      0.095400
     21 O14        14.6110    4.0370    5.0660 oh        1 MG8     -0.605800
     22 C15         7.7070   -0.8100    8.0740 c3        1 MG8      0.084100
     23 H11A        0.9900    0.1170   -1.8170 hc        1 MG8      0.038367
     24 H12A        0.7220    1.1970   -0.3870 hc        1 MG8      0.038367
     25 H13A        2.1420    1.4720   -1.4760 hc        1 MG8      0.038367
     26 H21         3.0910   -0.7600   -0.8000 hc        1 MG8      0.042200
     27 H22         1.6750   -1.0350    0.2860 hc        1 MG8      0.042200
     28 H31         3.6970    1.3010    0.5120 hc        1 MG8      0.043200
     29 H32         2.2800    1.0260    1.5970 hc        1 MG8      0.043200
     30 H41         3.2100   -1.2240    2.2430 hc        1 MG8      0.048200
     31 H42         4.6270   -0.9500    1.1570 hc        1 MG8      0.048200
     32 H51         3.8160    0.8400    3.5550 hc        1 MG8      0.047700
     33 H52         5.2360    1.1120    2.4680 hc        1 MG8      0.047700
     34 H61         6.1610   -1.1480    3.1150 hc        1 MG8      0.069700
     35 H62         4.7450   -1.4150    4.2050 hc        1 MG8      0.069700
     36 H71         6.7860    0.9210    4.4170 hc        1 MG8      0.101200
     37 H72         5.3500    0.6670    5.5050 hc        1 MG8      0.101200
     38 H91         9.7140   -0.9950    6.4500 hx        1 MG8      0.120700
     39 H92         9.1490    0.1820    5.1600 hx        1 MG8      0.120700
     40 H10        10.1530    0.9060    8.0320 h1        1 MG8      0.072700
     41 HO10        9.7040    3.0350    7.1690 ho        1 MG8      0.469000
     42 H11        11.2220    1.9030    5.3110 h1        1 MG8      0.069700
     43 HO11       12.6710    0.0240    5.5350 ho        1 MG8      0.436000
     44 H12        12.6950    1.1610    7.9590 h1        1 MG8      0.077700
     45 HO12       12.3760    3.4760    8.3420 ho        1 MG8      0.456000
     46 H13        14.1300    1.5670    5.9210 h1        1 MG8      0.055700
     47 HO13       15.2460    3.3010    7.0870 ho        1 MG8      0.447000
     48 H141       12.7780    3.1730    4.5810 h1        1 MG8      0.040200
     49 H142       12.7490    4.3640    5.9770 h1        1 MG8      0.040200
     50 HO14       14.4640    4.8660    4.5940 ho        1 MG8      0.426000
     51 H151        8.3940   -0.3120    8.8080 hx        1 MG8      0.106033
     52 H152        8.0120   -1.8840    7.9370 hx        1 MG8      0.106033
     53 H153        6.6520   -0.7710    8.4550 hx        1 MG8      0.106033
     54 HN1         7.4390    0.8620    6.8990 hn        1 MG8      0.468800
@<TRIPOS>BOND
     1    1    2 1   
     2    1   23 1   
     3    1   24 1   
     4    1   25 1   
     5    2    3 1   
     6    2   26 1   
     7    2   27 1   
     8    3    4 1   
     9    3   28 1   
    10    3   29 1   
    11    4    5 1   
    12    4   30 1   
    13    4   31 1   
    14    5    6 1   
    15    5   32 1   
    16    5   33 1   
    17    6    7 1   
    18    6   34 1   
    19    6   35 1   
    20    7    8 1   
    21    7   36 1   
    22    7   37 1   
    23    8    9 2   
    24    8   10 1   
    25   10   11 1   
    26   10   22 1   
    27   10   54 1   
    28   11   12 1   
    29   11   38 1   
    30   11   39 1   
    31   12   13 1   
    32   12   14 1   
    33   12   40 1   
    34   13   41 1   
    35   14   15 1   
    36   14   16 1   
    37   14   42 1   
    38   15   43 1   
    39   16   17 1   
    40   16   18 1   
    41   16   44 1   
    42   17   45 1   
    43   18   19 1   
    44   18   20 1   
    45   18   46 1   
    46   19   47 1   
    47   20   21 1   
    48   20   48 1   
    49   20   49 1   
    50   21   50 1   
    51   22   51 1   
    52   22   52 1   
    53   22   53 1   
@<TRIPOS>SUBSTRUCTURE
     1 MG8         1 TEMP              0 ****  ****    0 ROOT
