@<TRIPOS>MOLECULE
MG8
   54    53     1     0     0
SMALL
bcc


@<TRIPOS>ATOM
      1 C1          1.5580    0.6700   -1.0570 c3        1 MG8     -0.095100
      2 C2          2.3700   -0.2540   -0.1870 c3        1 MG8     -0.079400
      3 C3          3.0660    0.5030    0.9240 c3        1 MG8     -0.079400
      4 C4          3.8800   -0.4300    1.7960 c3        1 MG8     -0.079400
      5 C5          4.5750    0.3310    2.9060 c3        1 MG8     -0.080400
      6 C6          5.3860   -0.6090    3.7730 c3        1 MG8     -0.082400
      7 C7          6.0810    0.1650    4.8780 c3        1 MG8     -0.153400
      8 C8          6.8640   -0.7610    5.7610 c         1 MG8      0.549100
      9 O8          6.8990   -1.9800    5.7520 o         1 MG8     -0.406100
     10 N           7.7290   -0.0670    6.8120 n4        1 MG8     -0.599200
     11 C9          9.1430    0.0080    6.3230 c3        1 MG8      0.113800
     12 C10         9.9430    1.1460    6.9860 c3        1 MG8      0.146100
     13 O10         9.1720    2.3220    6.8090 oh        1 MG8     -0.641800
     14 C11        11.3170    1.2790    6.2930 c3        1 MG8      0.115100
     15 O11        11.7250   -0.0360    5.9550 oh        1 MG8     -0.609800
     16 C12        12.3290    1.9330    7.2500 c3        1 MG8      0.109100
     17 O12        11.6610    3.0130    7.8830 oh        1 MG8     -0.635800
     18 C13        13.6010    2.4150    6.5300 c3        1 MG8      0.109100
     19 O13        14.4390    2.8830    7.5760 oh        1 MG8     -0.608800
     20 C14        13.3280    3.5380    5.5230 c3        1 MG8      0.095400
     21 O14        14.6040    4.0070    5.1250 oh        1 MG8     -0.605800
     22 C15         7.6360   -0.7550    8.1210 c3        1 MG8      0.084100
     23 H11A        1.0540    0.0910   -1.8690 hc        1 MG8      0.038367
     24 H12A        2.2100    1.4440   -1.5290 hc        1 MG8      0.038367
     25 H13A        0.7740    1.1910   -0.4570 hc        1 MG8      0.038367
     26 H21         1.7020   -1.0390    0.2570 hc        1 MG8      0.042200
     27 H22         3.1350   -0.7870   -0.8120 hc        1 MG8      0.042200
     28 H31         2.3020    1.0350    1.5510 hc        1 MG8      0.043200
     29 H32         3.7360    1.2870    0.4820 hc        1 MG8      0.043200
     30 H41         3.2090   -1.2130    2.2370 hc        1 MG8      0.048200
     31 H42         4.6430   -0.9620    1.1670 hc        1 MG8      0.048200
     32 H51         5.2460    1.1130    2.4620 hc        1 MG8      0.047700
     33 H52         3.8100    0.8620    3.5320 hc        1 MG8      0.047700
     34 H61         6.1490   -1.1450    3.1480 hc        1 MG8      0.070200
     35 H62         4.7160   -1.3900    4.2220 hc        1 MG8      0.070200
     36 H71         6.7690    0.9360    4.4330 hc        1 MG8      0.101700
     37 H72         5.3170    0.7040    5.5050 hc        1 MG8      0.101700
     38 H91         9.6590   -0.9740    6.5220 hx        1 MG8      0.120700
     39 H92         9.1160    0.1890    5.2100 hx        1 MG8      0.120700
     40 H10        10.0940    0.9450    8.0830 h1        1 MG8      0.072700
     41 HO10        9.6690    3.0650    7.1870 ho        1 MG8      0.469000
     42 H11        11.1990    1.8990    5.3610 h1        1 MG8      0.069700
     43 HO11       12.6330    0.0130    5.6260 ho        1 MG8      0.436000
     44 H12        12.6380    1.1810    8.0340 h1        1 MG8      0.077700
     45 HO12       12.3310    3.5040    8.3830 ho        1 MG8      0.456000
     46 H13        14.0980    1.5520    6.0080 h1        1 MG8      0.055700
     47 HO13       15.2130    3.2930    7.1620 ho        1 MG8      0.447000
     48 H141       12.7350    4.3570    6.0110 h1        1 MG8      0.040200
     49 H142       12.7720    3.1470    4.6310 h1        1 MG8      0.040200
     50 HO14       14.4690    4.8300    4.6400 ho        1 MG8      0.426000
     51 H151        6.5770   -0.7030    8.4900 hx        1 MG8      0.106033
     52 H152        8.3190   -0.2520    8.8560 hx        1 MG8      0.106033
     53 H153        7.9350   -1.8320    8.0010 hx        1 MG8      0.106033
     54 HN1         7.3920    0.9030    6.9220 hn        1 MG8      0.468800
@<TRIPOS>BOND
     1    1    2 1   
     2    1   23 1   
     3    1   24 1   
     4    1   25 1   
     5    2    3 1   
     6    2   26 1   
     7    2   27 1   
     8    3    4 1   
     9    3   28 1   
    10    3   29 1   
    11    4    5 1   
    12    4   30 1   
    13    4   31 1   
    14    5    6 1   
    15    5   32 1   
    16    5   33 1   
    17    6    7 1   
    18    6   34 1   
    19    6   35 1   
    20    7    8 1   
    21    7   36 1   
    22    7   37 1   
    23    8    9 2   
    24    8   10 1   
    25   10   11 1   
    26   10   22 1   
    27   10   54 1   
    28   11   12 1   
    29   11   38 1   
    30   11   39 1   
    31   12   13 1   
    32   12   14 1   
    33   12   40 1   
    34   13   41 1   
    35   14   15 1   
    36   14   16 1   
    37   14   42 1   
    38   15   43 1   
    39   16   17 1   
    40   16   18 1   
    41   16   44 1   
    42   17   45 1   
    43   18   19 1   
    44   18   20 1   
    45   18   46 1   
    46   19   47 1   
    47   20   21 1   
    48   20   48 1   
    49   20   49 1   
    50   21   50 1   
    51   22   51 1   
    52   22   52 1   
    53   22   53 1   
@<TRIPOS>SUBSTRUCTURE
     1 MG8         1 TEMP              0 ****  ****    0 ROOT
