@<TRIPOS>MOLECULE
MG8
   53    52     1     0     0
SMALL
bcc


@<TRIPOS>ATOM
      1 C1         13.8920   13.0460   -2.5000 c3        1 MG8     -0.093100
      2 C2         13.7040   11.5600   -2.3370 c3        1 MG8     -0.080400
      3 C3         15.0320   10.8380   -2.2500 c3        1 MG8     -0.079400
      4 C4         14.8370    9.3460   -2.0870 c3        1 MG8     -0.078400
      5 C5         16.1650    8.6250   -2.0010 c3        1 MG8     -0.079400
      6 C6         15.9650    7.1340   -1.8360 c3        1 MG8     -0.075400
      7 C7         17.2960    6.4170   -1.7530 c3        1 MG8     -0.143400
      8 C8         17.1010    4.9260   -1.5750 c         1 MG8      0.664100
      9 O8         15.9680    4.4180   -1.4390 o         1 MG8     -0.625100
     10 N          18.2320    4.1130   -1.5160 n         1 MG8     -0.470800
     11 C9         18.0690    2.6870   -1.3790 c3        1 MG8      0.064000
     12 C10        17.8230    1.9240   -2.6950 c3        1 MG8      0.123100
     13 O10        16.7220    2.4310   -3.4260 oh        1 MG8     -0.616800
     14 C11        17.5640    0.4310   -2.3970 c3        1 MG8      0.084100
     15 O11        18.4410    0.0480   -1.3500 oh        1 MG8     -0.594800
     16 C12        17.8220   -0.4440   -3.6380 c3        1 MG8      0.078100
     17 O12        17.6720    0.2390   -4.8640 oh        1 MG8     -0.596800
     18 C13        16.9440   -1.7060   -3.6220 c3        1 MG8      0.066100
     19 O13        17.4560   -2.6710   -4.5270 oh        1 MG8     -0.599800
     20 C14        15.4800   -1.4200   -3.9730 c3        1 MG8      0.100400
     21 O14        14.7030   -2.5940   -3.8810 oh        1 MG8     -0.593800
     22 C15        19.5130    4.6140   -1.9220 c3        1 MG8      0.078300
     23 H11A       12.9020   13.5590   -2.5610 hc        1 MG8      0.033033
     24 H12A       14.4550   13.4700   -1.6330 hc        1 MG8      0.033033
     25 H13A       14.4640   13.2710   -3.4320 hc        1 MG8      0.033033
     26 H21        13.1070   11.3550   -1.4090 hc        1 MG8      0.039700
     27 H22        13.1150   11.1570   -3.2030 hc        1 MG8      0.039700
     28 H31        15.6300   11.0400   -3.1780 hc        1 MG8      0.038700
     29 H32        15.6210   11.2390   -1.3840 hc        1 MG8      0.038700
     30 H41        14.2470    8.9460   -2.9530 hc        1 MG8      0.042700
     31 H42        14.2390    9.1440   -1.1590 hc        1 MG8      0.042700
     32 H51        16.7550    9.0260   -1.1340 hc        1 MG8      0.037700
     33 H52        16.7630    8.8270   -2.9290 hc        1 MG8      0.037700
     34 H61        15.3700    6.9250   -0.9090 hc        1 MG8      0.060200
     35 H62        15.3750    6.7270   -2.6990 hc        1 MG8      0.060200
     36 H71        17.8880    6.6030   -2.6880 hc        1 MG8      0.066200
     37 H72        17.8890    6.8130   -0.8860 hc        1 MG8      0.066200
     38 H91        18.9950    2.2580   -0.8990 h1        1 MG8      0.079700
     39 H92        17.1940    2.4950   -0.6930 h1        1 MG8      0.079700
     40 H10        18.7000    2.0220   -3.3940 h1        1 MG8      0.090700
     41 HO10       16.0330    2.6920   -2.7960 ho        1 MG8      0.432000
     42 H11        16.4960    0.3110   -2.0570 h1        1 MG8      0.046700
     43 HO11       18.2810   -0.8880   -1.1790 ho        1 MG8      0.410000
     44 H12        18.9060   -0.7670   -3.6380 h1        1 MG8      0.094700
     45 HO12       16.8720    0.7830   -4.8130 ho        1 MG8      0.428000
     46 H13        17.0060   -2.2080   -2.6150 h1        1 MG8      0.080700
     47 HO13       17.5960   -2.2200   -5.3710 ho        1 MG8      0.417000
     48 H141       15.4140   -0.9970   -5.0120 h1        1 MG8      0.051700
     49 H142       15.0190   -0.7050   -3.2430 h1        1 MG8      0.051700
     50 HO14       15.1710   -3.2840   -4.3720 ho        1 MG8      0.414000
     51 H151       19.7470    5.5600   -1.3620 h1        1 MG8      0.041367
     52 H152       19.5370    4.8350   -3.0250 h1        1 MG8      0.041367
     53 H153       20.3100    3.8590   -1.6930 h1        1 MG8      0.041367
@<TRIPOS>BOND
     1    1    2 1   
     2    1   23 1   
     3    1   24 1   
     4    1   25 1   
     5    2    3 1   
     6    2   26 1   
     7    2   27 1   
     8    3    4 1   
     9    3   28 1   
    10    3   29 1   
    11    4    5 1   
    12    4   30 1   
    13    4   31 1   
    14    5    6 1   
    15    5   32 1   
    16    5   33 1   
    17    6    7 1   
    18    6   34 1   
    19    6   35 1   
    20    7    8 1   
    21    7   36 1   
    22    7   37 1   
    23    8    9 2   
    24    8   10 1   
    25   10   11 1   
    26   10   22 1   
    27   11   12 1   
    28   11   38 1   
    29   11   39 1   
    30   12   13 1   
    31   12   14 1   
    32   12   40 1   
    33   13   41 1   
    34   14   15 1   
    35   14   16 1   
    36   14   42 1   
    37   15   43 1   
    38   16   17 1   
    39   16   18 1   
    40   16   44 1   
    41   17   45 1   
    42   18   19 1   
    43   18   20 1   
    44   18   46 1   
    45   19   47 1   
    46   20   21 1   
    47   20   48 1   
    48   20   49 1   
    49   21   50 1   
    50   22   51 1   
    51   22   52 1   
    52   22   53 1   
@<TRIPOS>SUBSTRUCTURE
     1 MG8         1 TEMP              0 ****  ****    0 ROOT
