@<TRIPOS>MOLECULE
MG8
   54    53     1     0     0
SMALL
bcc


@<TRIPOS>ATOM
      1 C1          1.5200    0.6670   -1.0230 c3        1 MG8     -0.095100
      2 C2          2.3770   -0.2540   -0.1940 c3        1 MG8     -0.079400
      3 C3          3.0440    0.4880    0.9460 c3        1 MG8     -0.079400
      4 C4          3.9030   -0.4430    1.7750 c3        1 MG8     -0.079400
      5 C5          4.5680    0.3020    2.9140 c3        1 MG8     -0.080400
      6 C6          5.4250   -0.6350    3.7390 c3        1 MG8     -0.082400
      7 C7          6.0880    0.1230    4.8750 c3        1 MG8     -0.153400
      8 C8          6.9190   -0.8020    5.7140 c         1 MG8      0.549100
      9 O8          7.0240   -2.0150    5.6440 o         1 MG8     -0.406100
     10 N           7.7400   -0.1140    6.8050 n4        1 MG8     -0.598200
     11 C9          9.1520    0.0490    6.3330 c3        1 MG8      0.111800
     12 C10         9.9180    1.1550    7.0850 c3        1 MG8      0.114100
     13 O10         9.0800    2.2970    7.0620 oh        1 MG8     -0.640800
     14 C11        11.2520    1.4230    6.3520 c3        1 MG8      0.110100
     15 O11        11.7530    0.2180    5.8120 oh        1 MG8     -0.591800
     16 C12        12.2590    2.0900    7.3020 c3        1 MG8      0.115100
     17 O12        11.6060    3.2050    7.8840 oh        1 MG8     -0.632800
     18 C13        13.5510    2.5030    6.5760 c3        1 MG8      0.112100
     19 O13        14.3980    2.9780    7.6110 oh        1 MG8     -0.613800
     20 C14        13.3150    3.5940    5.5260 c3        1 MG8      0.097400
     21 O14        14.6040    4.0400    5.1460 oh        1 MG8     -0.605800
     22 C15         7.6680   -0.8650    8.0800 c3        1 MG8      0.084100
     23 H11A        1.0390    0.1010   -1.8560 hc        1 MG8      0.038367
     24 H12A        0.7160    1.1280   -0.3990 hc        1 MG8      0.038367
     25 H13A        2.1350    1.4890   -1.4640 hc        1 MG8      0.038367
     26 H21         1.7470   -1.0850    0.2190 hc        1 MG8      0.042200
     27 H22         3.1620   -0.7250   -0.8430 hc        1 MG8      0.042200
     28 H31         2.2600    0.9580    1.5960 hc        1 MG8      0.043200
     29 H32         3.6760    1.3190    0.5340 hc        1 MG8      0.043200
     30 H41         4.6860   -0.9130    1.1230 hc        1 MG8      0.048200
     31 H42         3.2700   -1.2730    2.1860 hc        1 MG8      0.048200
     32 H51         5.2010    1.1320    2.5010 hc        1 MG8      0.048200
     33 H52         3.7830    0.7720    3.5640 hc        1 MG8      0.048200
     34 H61         4.7930   -1.4650    4.1560 hc        1 MG8      0.070200
     35 H62         6.2090   -1.1080    3.0910 hc        1 MG8      0.070200
     36 H71         6.7360    0.9440    4.4610 hc        1 MG8      0.101700
     37 H72         5.3020    0.5980    5.5270 hc        1 MG8      0.101700
     38 H91         9.1220    0.3200    5.2370 hx        1 MG8      0.116700
     39 H92         9.6970   -0.9290    6.4500 hx        1 MG8      0.116700
     40 H10        10.1160    0.8520    8.1510 h1        1 MG8      0.061700
     41 HO10        9.5720    3.0440    7.4380 ho        1 MG8      0.472000
     42 H11        11.0480    2.0880    5.4640 h1        1 MG8      0.103700
     43 HO11       12.3570   -0.1830    6.4520 ho        1 MG8      0.422000
     44 H12        12.5390    1.3670    8.1240 h1        1 MG8      0.061700
     45 HO12       12.2870    3.7250    8.3380 ho        1 MG8      0.457000
     46 H13        14.0130    1.6010    6.0870 h1        1 MG8      0.067700
     47 HO13       15.1810    3.3620    7.1890 ho        1 MG8      0.449000
     48 H141       12.7180    4.4360    5.9680 h1        1 MG8      0.041200
     49 H142       12.7760    3.1720    4.6370 h1        1 MG8      0.041200
     50 HO14       14.4840    4.8050    4.5710 ho        1 MG8      0.425000
     51 H151        8.0260   -1.9180    7.9180 hx        1 MG8      0.105367
     52 H152        8.3120   -0.3570    8.8470 hx        1 MG8      0.105367
     53 H153        6.6030   -0.8850    8.4350 hx        1 MG8      0.105367
     54 HN1         7.3570    0.8330    6.9550 hn        1 MG8      0.471800
@<TRIPOS>BOND
     1    1    2 1   
     2    1   23 1   
     3    1   24 1   
     4    1   25 1   
     5    2    3 1   
     6    2   26 1   
     7    2   27 1   
     8    3    4 1   
     9    3   28 1   
    10    3   29 1   
    11    4    5 1   
    12    4   30 1   
    13    4   31 1   
    14    5    6 1   
    15    5   32 1   
    16    5   33 1   
    17    6    7 1   
    18    6   34 1   
    19    6   35 1   
    20    7    8 1   
    21    7   36 1   
    22    7   37 1   
    23    8    9 2   
    24    8   10 1   
    25   10   11 1   
    26   10   22 1   
    27   10   54 1   
    28   11   12 1   
    29   11   38 1   
    30   11   39 1   
    31   12   13 1   
    32   12   14 1   
    33   12   40 1   
    34   13   41 1   
    35   14   15 1   
    36   14   16 1   
    37   14   42 1   
    38   15   43 1   
    39   16   17 1   
    40   16   18 1   
    41   16   44 1   
    42   17   45 1   
    43   18   19 1   
    44   18   20 1   
    45   18   46 1   
    46   19   47 1   
    47   20   21 1   
    48   20   48 1   
    49   20   49 1   
    50   21   50 1   
    51   22   51 1   
    52   22   52 1   
    53   22   53 1   
@<TRIPOS>SUBSTRUCTURE
     1 MG8         1 TEMP              0 ****  ****    0 ROOT
