@<TRIPOS>MOLECULE
MG9
   55    57     1     0     0
SMALL
bcc


@<TRIPOS>ATOM
      1 C13        -0.4360    0.5810   -0.3140 ca        1 MG9      0.061000
      2 C12         0.8870    0.7850   -0.6510 ca        1 MG9     -0.351300
      3 C11         1.8900    0.6540    0.3700 ca        1 MG9      0.729200
      4 N4          3.2170    0.8080    0.0520 nv        1 MG9     -0.957500
      5 N3          1.5460    0.3450    1.6750 nb        1 MG9     -0.760000
      6 C10         0.2540    0.1590    1.9420 ca        1 MG9      0.570200
      7 C9         -0.8000    0.2510    1.0040 ca        1 MG9     -0.588800
      8 S1         -2.3930    0.0570    1.4480 sy        1 MG9      1.531200
      9 O1         -2.5560    0.4720    2.7890 o         1 MG9     -0.656300
     10 O2         -3.1930    0.7010    0.4790 o         1 MG9     -0.656300
     11 N2         -2.6430   -1.5580    1.3610 n3        1 MG9     -0.809500
     12 C3         -2.9050   -2.3800    2.5090 c3        1 MG9      0.231800
     13 C2         -2.0620   -3.6970    2.5620 c3        1 MG9      0.278600
     14 C6         -0.7260   -3.3920    3.0370 c1        1 MG9     -0.202100
     15 C7          0.3640   -3.1360    3.4610 c1        1 MG9     -0.094100
     16 C8          1.6600   -2.8240    3.9690 c3        1 MG9     -0.033000
     17 C4         -2.6490   -2.2700    0.1130 c3        1 MG9      0.230800
     18 C1         -1.8170   -3.5730    0.1360 c3        1 MG9      0.180800
     19 N1         -2.1380   -4.4050    1.2840 nh        1 MG9     -0.637000
     20 C5         -1.7340   -5.7530    1.2420 ca        1 MG9      0.187600
     21 C14        -1.9920   -6.5340    0.0860 ca        1 MG9     -0.180500
     22 C15        -1.6830   -7.8860    0.0550 ca        1 MG9     -0.061000
     23 C18        -1.1600   -6.4100    2.3570 ca        1 MG9     -0.180500
     24 C17        -0.8610   -7.7650    2.3130 ca        1 MG9     -0.061000
     25 C16        -1.1010   -8.5200    1.1600 ca        1 MG9     -0.202300
     26 C19        -0.7750   -9.9790    1.1070 c3        1 MG9      0.162100
     27 C20         0.7510  -10.2590    1.4680 c3        1 MG9      0.625400
     28 F6          1.0930  -11.5800    1.3480 f         1 MG9     -0.220467
     29 F4          1.6090   -9.6050    0.6210 f         1 MG9     -0.220467
     30 F5          1.1390   -9.9060    2.7300 f         1 MG9     -0.220467
     31 C21        -1.7160  -10.8230    2.0690 c3        1 MG9      0.625400
     32 F3         -3.0470  -10.6430    1.8190 f         1 MG9     -0.220467
     33 F1         -1.5120  -12.1720    1.9760 f         1 MG9     -0.220467
     34 F2         -1.5480  -10.5280    3.3960 f         1 MG9     -0.220467
     35 O3         -0.9950  -10.5580   -0.1620 oh        1 MG9     -0.555800
     36 H1         -1.2270    0.6930   -1.0790 ha        1 MG9      0.159000
     37 H2          1.1710    1.0480   -1.6790 ha        1 MG9      0.148000
     38 H3          3.4500    1.1610   -0.8420 hn        1 MG9      0.442300
     39 H4          3.9090    0.8050    0.7610 hn        1 MG9      0.442300
     40 H5          0.0260   -0.0720    3.0050 h4        1 MG9      0.042100
     41 H6         -2.6950   -1.7950    3.4510 h1        1 MG9      0.072200
     42 H7         -3.9940   -2.6810    2.5080 h1        1 MG9      0.072200
     43 H8         -2.5660   -4.3600    3.3350 h1        1 MG9      0.087700
     44 H9          2.4220   -3.5390    3.5630 hc        1 MG9      0.063700
     45 H10         1.9550   -1.7830    3.6720 hc        1 MG9      0.063700
     46 H11         1.6700   -2.8920    5.0880 hc        1 MG9      0.063700
     47 H12        -3.7130   -2.5260   -0.1660 h1        1 MG9      0.054700
     48 H13        -2.2240   -1.6050   -0.6930 h1        1 MG9      0.054700
     49 H14        -2.0460   -4.1330   -0.8110 h1        1 MG9      0.050700
     50 H15        -0.7190   -3.3100    0.1320 h1        1 MG9      0.050700
     51 H16        -2.4680   -6.0870   -0.8000 ha        1 MG9      0.147500
     52 H17        -1.9250   -8.4660   -0.8510 ha        1 MG9      0.148000
     53 H18        -0.9310   -5.8550    3.2810 ha        1 MG9      0.147500
     54 H19        -0.4270   -8.2490    3.2050 ha        1 MG9      0.148000
     55 H20        -0.4380  -10.0820   -0.7970 ho        1 MG9      0.435000
@<TRIPOS>BOND
     1    1    2 ar  
     2    1    7 ar  
     3    1   36 1   
     4    2    3 ar  
     5    2   37 1   
     6    3    4 1   
     7    3    5 ar  
     8    4   38 1   
     9    4   39 1   
    10    5    6 ar  
    11    6    7 ar  
    12    6   40 1   
    13    7    8 1   
    14    8    9 2   
    15    8   10 2   
    16    8   11 1   
    17   11   12 1   
    18   11   17 1   
    19   12   13 1   
    20   12   41 1   
    21   12   42 1   
    22   13   14 1   
    23   13   19 1   
    24   13   43 1   
    25   14   15 3   
    26   15   16 1   
    27   16   44 1   
    28   16   45 1   
    29   16   46 1   
    30   17   18 1   
    31   17   47 1   
    32   17   48 1   
    33   18   19 1   
    34   18   49 1   
    35   18   50 1   
    36   19   20 1   
    37   20   21 ar  
    38   20   23 ar  
    39   21   22 ar  
    40   21   51 1   
    41   22   25 ar  
    42   22   52 1   
    43   23   24 ar  
    44   23   53 1   
    45   24   25 ar  
    46   24   54 1   
    47   25   26 1   
    48   26   27 1   
    49   26   31 1   
    50   26   35 1   
    51   27   28 1   
    52   27   29 1   
    53   27   30 1   
    54   31   32 1   
    55   31   33 1   
    56   31   34 1   
    57   35   55 1   
@<TRIPOS>SUBSTRUCTURE
     1 MG9         1 TEMP              0 ****  ****    0 ROOT
