@<TRIPOS>MOLECULE
MG9
   56    58     1     0     0
SMALL
bcc


@<TRIPOS>ATOM
      1 C13        -0.3380    0.4980   -0.2760 ca        1 MG9      0.030000
      2 C12         1.0200    0.7740   -0.5100 ca        1 MG9     -0.220300
      3 C11         1.8620    0.8230    0.6140 ca        1 MG9      0.478200
      4 N4          3.3000    1.1320    0.4360 n4        1 MG9     -0.824300
      5 N3          1.4480    0.6160    1.8990 nb        1 MG9     -0.669000
      6 C10         0.1460    0.3570    2.0770 ca        1 MG9      0.535200
      7 C9         -0.7920    0.2840    1.0210 ca        1 MG9     -0.379800
      8 S1         -2.4990    0.0550    1.3550 sy        1 MG9      1.499200
      9 O1         -2.6850    0.5610    2.6510 o         1 MG9     -0.621300
     10 O2         -3.1360    0.6730    0.2700 o         1 MG9     -0.621300
     11 N2         -2.6840   -1.5360    1.3140 n3        1 MG9     -0.823500
     12 C3         -2.8910   -2.3410    2.4950 c3        1 MG9      0.222800
     13 C2         -2.0460   -3.6550    2.5260 c3        1 MG9      0.279600
     14 C6         -0.6910   -3.3450    2.9450 c1        1 MG9     -0.193100
     15 C7          0.4130   -3.1200    3.3520 c1        1 MG9     -0.111100
     16 C8          1.7220   -2.8780    3.8650 c3        1 MG9     -0.029000
     17 C4         -2.7500   -2.2810    0.0770 c3        1 MG9      0.218800
     18 C1         -1.9060   -3.5760    0.0960 c3        1 MG9      0.185800
     19 N1         -2.1900   -4.3810    1.2690 nh        1 MG9     -0.640000
     20 C5         -1.7930   -5.7390    1.2250 ca        1 MG9      0.160600
     21 C14        -2.1840   -6.5420    0.1260 ca        1 MG9     -0.173500
     22 C15        -1.8710   -7.8950    0.0870 ca        1 MG9     -0.056500
     23 C18        -1.0890   -6.3600    2.2810 ca        1 MG9     -0.173500
     24 C17        -0.7860   -7.7150    2.2340 ca        1 MG9     -0.056500
     25 C16        -1.1650   -8.4950    1.1360 ca        1 MG9     -0.144300
     26 C19        -0.8190   -9.9500    1.0870 c3        1 MG9      0.165100
     27 C20         0.7590  -10.1700    1.1130 c3        1 MG9      0.601900
     28 F6          1.0970  -11.4640    0.8070 f         1 MG9     -0.219300
     29 F4          1.4320   -9.4070    0.1990 f         1 MG9     -0.219300
     30 F5          1.3580   -9.9090    2.3140 f         1 MG9     -0.219300
     31 C21        -1.4750  -10.7480    2.3000 c3        1 MG9      0.601900
     32 F3         -2.8120  -10.5070    2.4520 f         1 MG9     -0.219300
     33 F1         -1.3790  -12.1050    2.1230 f         1 MG9     -0.219300
     34 F2         -0.9150  -10.4970    3.5220 f         1 MG9     -0.219300
     35 O3         -1.3070  -10.5060   -0.1100 oh        1 MG9     -0.552800
     36 H1         -1.0450    0.4800   -1.1290 ha        1 MG9      0.197000
     37 H2          1.3780    0.9500   -1.5360 ha        1 MG9      0.174000
     38 H3          3.8710    0.3570    0.7980 hn        1 MG9      0.474133
     39 H4          3.4970    1.2690   -0.5600 hn        1 MG9      0.474133
     40 H5         -0.1710    0.2190    3.1360 h4        1 MG9      0.086100
     41 H6         -3.9800   -2.6380    2.5430 h1        1 MG9      0.082200
     42 H7         -2.6400   -1.7390    3.4140 h1        1 MG9      0.082200
     43 H8         -2.5100   -4.3080    3.3350 h1        1 MG9      0.106700
     44 H9          2.4770   -3.5070    3.3250 hc        1 MG9      0.061700
     45 H10         2.0030   -1.8000    3.7480 hc        1 MG9      0.061700
     46 H11         1.7650   -3.1370    4.9560 hc        1 MG9      0.061700
     47 H12        -2.3780   -1.6300   -0.7650 h1        1 MG9      0.065200
     48 H13        -3.8270   -2.5500   -0.1320 h1        1 MG9      0.065200
     49 H14        -0.8120   -3.3040    0.0450 h1        1 MG9      0.051200
     50 H15        -2.1640   -4.1580   -0.8310 h1        1 MG9      0.051200
     51 H16        -2.7640   -6.1150   -0.7070 ha        1 MG9      0.145500
     52 H17        -2.1890   -8.5020   -0.7780 ha        1 MG9      0.161500
     53 H18        -0.7630   -5.7830    3.1600 ha        1 MG9      0.145500
     54 H19        -0.2360   -8.1780    3.0720 ha        1 MG9      0.161500
     55 H20        -1.0880  -11.4540   -0.1100 ho        1 MG9      0.445000
     56 H43         3.5380    1.9880    0.9560 hn        1 MG9      0.474133
@<TRIPOS>BOND
     1    1    2 ar  
     2    1    7 ar  
     3    1   36 1   
     4    2    3 ar  
     5    2   37 1   
     6    3    4 1   
     7    3    5 ar  
     8    4   38 1   
     9    4   39 1   
    10    4   56 1   
    11    5    6 ar  
    12    6    7 ar  
    13    6   40 1   
    14    7    8 1   
    15    8    9 2   
    16    8   10 2   
    17    8   11 1   
    18   11   12 1   
    19   11   17 1   
    20   12   13 1   
    21   12   41 1   
    22   12   42 1   
    23   13   14 1   
    24   13   19 1   
    25   13   43 1   
    26   14   15 3   
    27   15   16 1   
    28   16   44 1   
    29   16   45 1   
    30   16   46 1   
    31   17   18 1   
    32   17   47 1   
    33   17   48 1   
    34   18   19 1   
    35   18   49 1   
    36   18   50 1   
    37   19   20 1   
    38   20   21 ar  
    39   20   23 ar  
    40   21   22 ar  
    41   21   51 1   
    42   22   25 ar  
    43   22   52 1   
    44   23   24 ar  
    45   23   53 1   
    46   24   25 ar  
    47   24   54 1   
    48   25   26 1   
    49   26   27 1   
    50   26   31 1   
    51   26   35 1   
    52   27   28 1   
    53   27   29 1   
    54   27   30 1   
    55   31   32 1   
    56   31   33 1   
    57   31   34 1   
    58   35   55 1   
@<TRIPOS>SUBSTRUCTURE
     1 MG9         1 TEMP              0 ****  ****    0 ROOT
