@<TRIPOS>MOLECULE
MG9
   55    56     1     0     0
SMALL
bcc


@<TRIPOS>ATOM
      1 C13        -0.5270    0.9220   -0.1540 ca        1 MG9      0.064000
      2 C12         0.6790    1.0760   -0.8060 ca        1 MG9     -0.354300
      3 C11         1.8430    0.4160   -0.2770 ca        1 MG9      0.735200
      4 N4          3.0470    0.5300   -0.9210 nh        1 MG9     -0.960500
      5 N3          1.7680   -0.3510    0.8740 nb        1 MG9     -0.761000
      6 C10         0.5780   -0.4620    1.4600 ca        1 MG9      0.570200
      7 C9         -0.6220    0.1340    1.0110 ca        1 MG9     -0.593800
      8 S1         -2.0440    0.0170    1.8570 sy        1 MG9      1.520200
      9 O1         -1.7780    0.1550    3.2380 o         1 MG9     -0.650800
     10 O2         -2.9640    0.9400    1.3160 o         1 MG9     -0.650800
     11 N2         -2.5880   -1.5310    1.5910 nh        1 MG9     -0.673300
     12 C3         -2.8080   -2.4310    2.6950 c3        1 MG9      0.215800
     13 C2         -1.9610   -3.7440    2.7320 c3        1 MG9      0.277600
     14 C6         -0.6010   -3.4550    3.1400 c1        1 MG9     -0.206100
     15 C7          0.5170   -3.2480    3.5160 c1        1 MG9     -0.090100
     16 C8          1.8470   -2.9910    3.9650 c3        1 MG9     -0.035000
     17 C4         -3.1210   -1.9510    0.3610 c2        1 MG9      0.065000
     18 C1         -2.6520   -1.6580   -0.8600 c2        1 MG9     -0.287000
     19 N1         -2.0880   -4.5110    1.5060 nh        1 MG9     -0.721600
     20 C5         -1.6470   -5.8380    1.4520 ca        1 MG9      0.186600
     21 C14        -1.4150   -6.4340    0.1850 ca        1 MG9     -0.194500
     22 C15        -1.0890   -7.7780    0.0800 ca        1 MG9     -0.046000
     23 C18        -1.5090   -6.6530    2.6010 ca        1 MG9     -0.194500
     24 C17        -1.1810   -7.9950    2.4820 ca        1 MG9     -0.046000
     25 C16        -0.9690   -8.5750    1.2250 ca        1 MG9     -0.179300
     26 C19        -0.6150  -10.0220    1.1100 c3        1 MG9      0.180100
     27 C20         0.7550  -10.3510    1.8540 c3        1 MG9      0.598400
     28 F6          1.2130  -11.6080    1.5420 f         1 MG9     -0.222633
     29 F4          1.7810   -9.5160    1.5120 f         1 MG9     -0.222633
     30 F5          0.6970  -10.3190    3.2200 f         1 MG9     -0.222633
     31 C21        -1.7600  -10.9550    1.7100 c3        1 MG9      0.598400
     32 F3         -3.0080  -10.6660    1.2360 f         1 MG9     -0.222633
     33 F1         -1.5610  -12.2740    1.3840 f         1 MG9     -0.222633
     34 F2         -1.8700  -10.9340    3.0730 f         1 MG9     -0.222633
     35 O3         -0.4550  -10.3640   -0.2460 oh        1 MG9     -0.552800
     36 H1         -1.4340    1.4290   -0.5350 ha        1 MG9      0.167000
     37 H2          0.7540    1.6930   -1.7110 ha        1 MG9      0.149000
     38 H3          3.1190    1.1370   -1.6980 hn        1 MG9      0.445800
     39 H4          3.8670    0.1210   -0.5460 hn        1 MG9      0.445800
     40 H5          0.5740   -1.0790    2.3870 h4        1 MG9      0.043100
     41 H6         -2.5860   -1.8890    3.6620 h1        1 MG9      0.079200
     42 H7         -3.8930   -2.7450    2.7080 h1        1 MG9      0.079200
     43 H8         -2.4370   -4.3600    3.5630 h1        1 MG9      0.083700
     44 H9          2.4290   -2.4460    3.1760 hc        1 MG9      0.065033
     45 H10         1.8300   -2.3620    4.8930 hc        1 MG9      0.065033
     46 H11         2.3750   -3.9530    4.1960 hc        1 MG9      0.065033
     47 H12        -1.7710   -1.0360   -1.0580 ha        1 MG9      0.127000
     48 H13        -4.0160   -2.6030    0.4630 h4        1 MG9      0.143000
     49 H14        -3.1760   -2.0260   -1.7510 ha        1 MG9      0.127000
     50 H15        -1.8560   -3.9870    0.6840 hn        1 MG9      0.413800
     51 H16        -1.4990   -5.8330   -0.7330 ha        1 MG9      0.142000
     52 H17        -0.9190   -8.2210   -0.9160 ha        1 MG9      0.152500
     53 H18        -1.6540   -6.2360    3.6090 ha        1 MG9      0.142000
     54 H19        -1.0830   -8.6120    3.3920 ha        1 MG9      0.152500
     55 H20        -0.2300  -11.3090   -0.2890 ho        1 MG9      0.437000
@<TRIPOS>BOND
     1    1    2 ar  
     2    1    7 ar  
     3    1   36 1   
     4    2    3 ar  
     5    2   37 1   
     6    3    4 1   
     7    3    5 ar  
     8    4   38 1   
     9    4   39 1   
    10    5    6 ar  
    11    6    7 ar  
    12    6   40 1   
    13    7    8 1   
    14    8    9 2   
    15    8   10 2   
    16    8   11 1   
    17   11   12 1   
    18   11   17 1   
    19   12   13 1   
    20   12   41 1   
    21   12   42 1   
    22   13   14 1   
    23   13   19 1   
    24   13   43 1   
    25   14   15 3   
    26   15   16 1   
    27   16   44 1   
    28   16   45 1   
    29   16   46 1   
    30   17   18 2   
    31   17   48 1   
    32   18   47 1   
    33   18   49 1   
    34   19   20 1   
    35   19   50 1   
    36   20   21 ar  
    37   20   23 ar  
    38   21   22 ar  
    39   21   51 1   
    40   22   25 ar  
    41   22   52 1   
    42   23   24 ar  
    43   23   53 1   
    44   24   25 ar  
    45   24   54 1   
    46   25   26 1   
    47   26   27 1   
    48   26   31 1   
    49   26   35 1   
    50   27   28 1   
    51   27   29 1   
    52   27   30 1   
    53   31   32 1   
    54   31   33 1   
    55   31   34 1   
    56   35   55 1   
@<TRIPOS>SUBSTRUCTURE
     1 MG9         1 TEMP              0 ****  ****    0 ROOT
