@<TRIPOS>MOLECULE
MGA
   27    27     1     0     0
SMALL
bcc


@<TRIPOS>ATOM
      1 C1          1.1450    0.3230   -0.2450 c3        1 MGA      0.307900
      2 C2          0.2750   -0.0940   -1.4450 c3        1 MGA      0.086100
      3 C3         -1.0960    0.5850   -1.3230 c3        1 MGA      0.111100
      4 C4         -1.7330    0.2290    0.0330 c3        1 MGA      0.124100
      5 C5         -0.7550    0.5510    1.1720 c3        1 MGA      0.112100
      6 C6         -1.2630   -0.0030    2.5080 c3        1 MGA      0.142400
      7 O1          2.3030   -0.4820   -0.2780 os        1 MGA     -0.420600
      8 O2          0.8490    0.3500   -2.6610 oh        1 MGA     -0.606800
      9 O3         -1.9840    0.1160   -2.3230 oh        1 MGA     -0.607800
     10 O4         -2.0700   -1.1440    0.1050 oh        1 MGA     -0.591800
     11 O5          0.5340   -0.0380    0.9870 os        1 MGA     -0.440600
     12 O6         -0.4150    0.3850    3.5670 oh        1 MGA     -0.599800
     13 H1          1.3930    1.4200   -0.2610 h2        1 MGA      0.048700
     14 H2          0.1510   -1.2130   -1.4510 h1        1 MGA      0.086700
     15 H3         -0.9790    1.7000   -1.4170 h1        1 MGA      0.057700
     16 H4         -2.6680    0.8440    0.1660 h1        1 MGA      0.056700
     17 H5         -0.6320    1.6690    1.2300 h1        1 MGA      0.052700
     18 H61        -2.2630    0.4460    2.7450 h1        1 MGA      0.067700
     19 H62        -1.3420   -1.1210    2.4460 h1        1 MGA      0.067700
     20 H71         4.0980   -0.8790    0.5360 h1        1 MGA      0.041700
     21 H72         3.6110    0.8960    0.5980 h1        1 MGA      0.041700
     22 H73         2.8300   -0.3060    1.7410 h1        1 MGA      0.041700
     23 HO2         1.7140   -0.0760   -2.7270 ho        1 MGA      0.427000
     24 HO3        -1.5190    0.1950   -3.1670 ho        1 MGA      0.431000
     25 HO4        -2.5480   -1.3570   -0.7090 ho        1 MGA      0.425000
     26 HO6         0.4510   -0.0050    3.3920 ho        1 MGA      0.412000
     27 C7          3.2620   -0.1590    0.7220 c3        1 MGA      0.122700
@<TRIPOS>BOND
     1    1    2 1   
     2    1    7 1   
     3    1   11 1   
     4    1   13 1   
     5    2    3 1   
     6    2    8 1   
     7    2   14 1   
     8    3    4 1   
     9    3    9 1   
    10    3   15 1   
    11    4    5 1   
    12    4   10 1   
    13    4   16 1   
    14    5    6 1   
    15    5   11 1   
    16    5   17 1   
    17    6   12 1   
    18    6   18 1   
    19    6   19 1   
    20    7   27 1   
    21    8   23 1   
    22    9   24 1   
    23   10   25 1   
    24   12   26 1   
    25   20   27 1   
    26   21   27 1   
    27   22   27 1   
@<TRIPOS>SUBSTRUCTURE
     1 MGA         1 TEMP              0 ****  ****    0 ROOT
