@<TRIPOS>MOLECULE
MGB
   25    24     1     0     0
SMALL
bcc


@<TRIPOS>ATOM
      1 N1         -2.7870   -2.3960    0.4800 nh        1 MGB     -0.914800
      2 N2         -4.3070   -0.5670    1.0150 n2        1 MGB     -0.862100
      3 C3         -3.2940   -1.0720    0.3670 c2        1 MGB      0.774100
      4 N4         -2.6960   -0.2410   -0.6920 nh        1 MGB     -0.483300
      5 N5         -1.3810   -0.0410   -0.5820 n2        1 MGB     -0.453400
      6 C6         -0.7870    0.9780   -1.1420 ce        1 MGB      0.266900
      7 C7          0.6820    1.1370   -1.1440 ce        1 MGB      0.300000
      8 C8          1.1340    2.1460   -2.1630 c3        1 MGB     -0.122400
      9 N9          1.5910    0.5510   -0.4060 n2        1 MGB     -0.441400
     10 N10         1.3570   -0.4280    0.4600 nh        1 MGB     -0.499300
     11 C11         2.4090   -0.6730    1.4540 c2        1 MGB      0.746100
     12 N12         2.0290   -0.9650    2.6620 n2        1 MGB     -0.815100
     13 N13         3.7810   -0.6670    0.9990 nh        1 MGB     -0.890800
     14 H11        -2.6760   -2.6960    1.4250 hn        1 MGB      0.404300
     15 H12        -1.9950   -2.6100   -0.0860 hn        1 MGB      0.404300
     16 H21        -4.7730   -1.1780    1.6490 hn        1 MGB      0.408400
     17 H41        -3.2710    0.5680   -0.9010 hn        1 MGB      0.407800
     18 H61        -1.3210    1.7920   -1.6810 h4        1 MGB      0.000800
     19 H81         2.2460    2.2400   -2.2090 hc        1 MGB      0.054033
     20 H82         0.7620    1.8380   -3.1710 hc        1 MGB      0.054033
     21 H83         0.7030    3.1450   -1.9050 hc        1 MGB      0.054033
     22 H101        0.4270   -0.5220    0.8480 hn        1 MGB      0.425800
     23 H121        2.7540   -1.2360    3.2920 hn        1 MGB      0.419400
     24 H131        4.1140    0.2770    0.9300 hn        1 MGB      0.381300
     25 H132        3.8720   -1.1170    0.1080 hn        1 MGB      0.381300
@<TRIPOS>BOND
     1    1    3 1   
     2    1   14 1   
     3    1   15 1   
     4    2    3 2   
     5    2   16 1   
     6    3    4 1   
     7    4    5 1   
     8    4   17 1   
     9    5    6 2   
    10    6    7 1   
    11    6   18 1   
    12    7    8 1   
    13    7    9 2   
    14    8   19 1   
    15    8   20 1   
    16    8   21 1   
    17    9   10 1   
    18   10   11 1   
    19   10   22 1   
    20   11   12 2   
    21   11   13 1   
    22   12   23 1   
    23   13   24 1   
    24   13   25 1   
@<TRIPOS>SUBSTRUCTURE
     1 MGB         1 TEMP              0 ****  ****    0 ROOT
