@<TRIPOS>MOLECULE
MGB
   25    20     1     0     0
SMALL
bcc


@<TRIPOS>ATOM
      1 N1         -3.2420   -2.3190   -2.9290 n3        1 MGB     -0.353000
      2 N2         -2.1360   -0.3230   -3.5200 n1        1 MGB     -0.330000
      3 C3         -2.3450   -1.2590   -2.6390 c2        1 MGB      0.182000
      4 N4         -1.6730   -1.2190   -1.3830 n3        1 MGB     -0.213000
      5 N5         -0.4990   -0.4940   -1.2480 n2        1 MGB     -0.079000
      6 C6          0.2810   -0.6940   -0.2110 c1        1 MGB     -0.150000
      7 C7          1.5680    0.1000   -0.0630 c1        1 MGB     -0.063000
      8 C8          2.6920   -0.0840   -1.0640 c3        1 MGB     -0.165000
      9 N9          1.7060    0.9380    0.9210 n1        1 MGB     -0.067000
     10 N10         0.6830    1.1070    1.8320 n2        1 MGB     -0.229000
     11 C11         0.9770    1.5010    3.1660 c2        1 MGB      0.154000
     12 N12         1.6510    0.6990    3.9530 n1        1 MGB     -0.283000
     13 N13         0.5740    2.7820    3.6340 n3        1 MGB     -0.329000
     14 H11        -3.1230   -3.1390   -2.5410 hn        1 MGB      0.199500
     15 H12        -3.9280   -2.1890   -3.5200 hn        1 MGB      0.199500
     16 H21        -2.5670   -0.3490   -4.3270 DU        1 MGB      0.169500
     17 H41        -2.0300   -1.6470   -0.6610 hn        1 MGB      0.203000
     18 H61         0.0420   -1.3670    0.4570 ha        1 MGB      0.130000
     19 H81         2.7860   -1.0360   -1.2780 hc        1 MGB      0.093333
     20 H82         3.5340    0.2510   -0.6780 hc        1 MGB      0.093333
     21 H83         2.4860    0.4150   -1.8820 hc        1 MGB      0.093333
     22 H101       -0.1850    0.9910    1.5710 hn        1 MGB      0.221000
     23 H121        1.8400    0.9530    4.8120 DU        1 MGB      0.169500
     24 H131       -0.2130    2.8750    4.0920 hn        1 MGB      0.176500
     25 H132        1.1190    3.5080    3.5070 hn        1 MGB      0.176500
@<TRIPOS>BOND
     1    1    3 1   
     2    1   14 1   
     3    1   15 1   
     4    2    3 1   
     5    3    4 1   
     6    4    5 1   
     7    4   17 1   
     8    5    6 1   
     9    6   18 1   
    10    7    8 1   
    11    7    9 1   
    12    8   19 1   
    13    8   20 1   
    14    8   21 1   
    15   10   11 1   
    16   10   22 1   
    17   11   12 1   
    18   11   13 1   
    19   13   24 1   
    20   13   25 1   
@<TRIPOS>SUBSTRUCTURE
     1 MGB         1 TEMP              0 ****  ****    0 ROOT
