@<TRIPOS>MOLECULE
MGB
   29    28     1     0     0
SMALL
bcc


@<TRIPOS>ATOM
      1 N1          0.6310    0.5550   -1.1180 n4        1 MGB     -0.856600
      2 N2          1.8650   -1.3450   -0.0530 n2        1 MGB     -0.632100
      3 C3          1.4350   -0.1510   -0.0630 c2        1 MGB      0.625100
      4 N4          1.7580    0.7150    1.1720 n4        1 MGB     -0.448100
      5 N5          3.0450    0.5980    1.7370 n2        1 MGB     -0.442400
      6 C6          3.4870   -0.4160    2.4210 ce        1 MGB      0.389900
      7 C7          4.9370   -0.4560    2.8560 ce        1 MGB      0.515000
      8 C8          5.8060   -0.8730    1.6960 c3        1 MGB     -0.185400
      9 N9          5.5240   -0.2900    4.0070 n2        1 MGB     -0.543400
     10 N10         4.9820    0.0870    5.2380 n4        1 MGB     -0.444100
     11 C11         6.0300    0.9010    6.0520 c2        1 MGB      0.660100
     12 N12         5.6840    2.0820    6.3430 n2        1 MGB     -0.607100
     13 N13         7.2880    0.1490    6.3490 n4        1 MGB     -0.839600
     14 H11         0.3840   -0.1160   -1.8780 hn        1 MGB      0.521800
     15 H12         1.1710    1.3270   -1.5520 hn        1 MGB      0.521800
     16 H21         1.7190   -2.0400   -0.7720 hn        1 MGB      0.571400
     17 H41         1.7430    1.7290    0.9050 hn        1 MGB      0.513800
     18 H61         2.9460   -1.3770    2.6380 h4        1 MGB      0.105800
     19 H81         6.8300   -1.2190    2.0090 hc        1 MGB      0.139033
     20 H82         5.3190   -1.7150    1.1370 hc        1 MGB      0.139033
     21 H83         5.9380    0.0130    1.0140 hc        1 MGB      0.139033
     22 H101        4.1230    0.6750    5.1920 hn        1 MGB      0.495300
     23 H121        6.1890    2.7640    6.8910 hn        1 MGB      0.581400
     24 H131        7.0990   -0.7240    6.8720 hn        1 MGB      0.517133
     25 H132        7.9140    0.7380    6.9380 hn        1 MGB      0.517133
     26 H13        -0.2600    0.9300   -0.7430 hn        1 MGB      0.521800
     27 H42         0.9950    0.5390    1.8630 hn        1 MGB      0.513800
     28 H102        4.7600   -0.7710    5.7900 hn        1 MGB      0.495300
     29 H133        7.7980   -0.0810    5.4760 hn        1 MGB      0.517133
@<TRIPOS>BOND
     1    1    3 1   
     2    1   14 1   
     3    1   15 1   
     4    1   26 1   
     5    2    3 2   
     6    2   16 1   
     7    3    4 1   
     8    4    5 1   
     9    4   17 1   
    10    4   27 1   
    11    5    6 2   
    12    6    7 1   
    13    6   18 1   
    14    7    8 1   
    15    7    9 2   
    16    8   19 1   
    17    8   20 1   
    18    8   21 1   
    19    9   10 1   
    20   10   11 1   
    21   10   22 1   
    22   10   28 1   
    23   11   12 2   
    24   11   13 1   
    25   12   23 1   
    26   13   24 1   
    27   13   25 1   
    28   13   29 1   
@<TRIPOS>SUBSTRUCTURE
     1 MGB         1 TEMP              0 ****  ****    0 ROOT
