@<TRIPOS>MOLECULE
MGB
   29    28     1     0     0
SMALL
bcc


@<TRIPOS>ATOM
      1 N1          0.6150    0.4490   -1.1150 nz        1 MGB     -0.856600
      2 N2          1.8570   -1.4200   -0.0070 n2        1 MGB     -0.632100
      3 C3          1.4240   -0.2280   -0.0450 c2        1 MGB      0.625100
      4 N4          1.7500    0.6690    1.1660 ny        1 MGB     -0.448100
      5 N5          3.0400    0.5700    1.7290 n2        1 MGB     -0.442400
      6 C6          3.4870   -0.4250    2.4360 ce        1 MGB      0.389900
      7 C7          4.9390   -0.4510    2.8660 ce        1 MGB      0.515000
      8 C8          5.8030   -0.8960    1.7140 c3        1 MGB     -0.185400
      9 N9          5.5300   -0.2530    4.0110 n2        1 MGB     -0.543400
     10 N10         4.9930    0.1550    5.2330 ny        1 MGB     -0.444100
     11 C11         6.0420    0.9930    6.0210 c2        1 MGB      0.660100
     12 N12         5.6960    2.1800    6.2820 n2        1 MGB     -0.607100
     13 N13         7.3030    0.2510    6.3320 nz        1 MGB     -0.839600
     14 H11         0.3670   -0.2420   -1.8570 hn        1 MGB      0.521800
     15 H12         1.1510    1.2110   -1.5700 hn        1 MGB      0.521800
     16 H21         1.7110   -2.1340   -0.7070 hn        1 MGB      0.571400
     17 H41         1.7300    1.6770    0.8740 hn        1 MGB      0.513800
     18 H61         2.9490   -1.3810    2.6800 h4        1 MGB      0.105800
     19 H81         6.8290   -1.2320    2.0310 hc        1 MGB      0.139033
     20 H82         5.3150   -1.7540    1.1790 hc        1 MGB      0.139033
     21 H83         5.9310   -0.0280    1.0080 hc        1 MGB      0.139033
     22 H101        4.1320    0.7400    5.1750 hn        1 MGB      0.495300
     23 H121        6.2010    2.8770    6.8090 hn        1 MGB      0.581400
     24 H131        7.1180   -0.6080    6.8800 hn        1 MGB      0.517133
     25 H132        7.9300    0.8570    6.9020 hn        1 MGB      0.517133
     26 H13        -0.2760    0.8310   -0.7460 hn        1 MGB      0.521800
     27 H42         0.9900    0.5080    1.8640 hn        1 MGB      0.513800
     28 H102        4.7740   -0.6880    5.8090 hn        1 MGB      0.495300
     29 H133        7.8100   -0.0020    5.4640 hn        1 MGB      0.517133
@<TRIPOS>BOND
     1    1    3 1   
     2    1   14 1   
     3    1   15 1   
     4    1   26 1   
     5    2    3 2   
     6    2   16 1   
     7    3    4 1   
     8    4    5 1   
     9    4   17 1   
    10    4   27 1   
    11    5    6 2   
    12    6    7 1   
    13    6   18 1   
    14    7    8 1   
    15    7    9 2   
    16    8   19 1   
    17    8   20 1   
    18    8   21 1   
    19    9   10 1   
    20   10   11 1   
    21   10   22 1   
    22   10   28 1   
    23   11   12 2   
    24   11   13 1   
    25   12   23 1   
    26   13   24 1   
    27   13   25 1   
    28   13   29 1   
@<TRIPOS>SUBSTRUCTURE
     1 MGB         1 TEMP              0 ****  ****    0 ROOT
