@<TRIPOS>MOLECULE
MGB
   29    28     1     0     0
SMALL
bcc


@<TRIPOS>ATOM
      1 N1          0.5750    0.4300   -1.0810 n4        1 MGB     -0.856600
      2 N2          1.9710   -1.4040   -0.1040 n2        1 MGB     -0.632100
      3 C3          1.4430   -0.2510   -0.0600 c2        1 MGB      0.625100
      4 N4          1.7010    0.5850    1.2110 n4        1 MGB     -0.448100
      5 N5          2.9980    0.5520    1.7650 n2        1 MGB     -0.442400
      6 C6          3.5270   -0.4490    2.4030 ce        1 MGB      0.389900
      7 C7          4.9790   -0.3870    2.8300 ce        1 MGB      0.515000
      8 C8          5.8710   -0.6810    1.6500 c3        1 MGB     -0.185400
      9 N9          5.5590   -0.2200    3.9850 n2        1 MGB     -0.543400
     10 N10         4.9970    0.0590    5.2330 n4        1 MGB     -0.444100
     11 C11         5.9800    0.9240    6.0760 c2        1 MGB      0.660100
     12 N12         5.5400    2.0590    6.4170 n2        1 MGB     -0.607100
     13 N13         7.2970    0.2670    6.3360 n4        1 MGB     -0.839600
     14 H11        -0.3420    0.7110   -0.6870 hn        1 MGB      0.521800
     15 H12         0.3810   -0.2260   -1.8690 hn        1 MGB      0.521800
     16 H21         1.8790   -2.0770   -0.8520 hn        1 MGB      0.571400
     17 H41         0.9610    0.3140    1.8950 hn        1 MGB      0.513800
     18 H61         3.0700   -1.4600    2.5810 h4        1 MGB      0.105800
     19 H81         6.9220   -0.9540    1.9440 hc        1 MGB      0.139033
     20 H82         5.9240    0.2400    1.0060 hc        1 MGB      0.139033
     21 H83         5.4510   -1.5370    1.0580 hc        1 MGB      0.139033
     22 H101        4.0910    0.5750    5.2150 hn        1 MGB      0.495300
     23 H121        5.9900    2.7580    6.9900 hn        1 MGB      0.581400
     24 H131        7.1860   -0.6380    6.8240 hn        1 MGB      0.517133
     25 H132        7.8180    0.1160    5.4530 hn        1 MGB      0.517133
     26 H13         1.0460    1.2630   -1.4820 hn        1 MGB      0.521800
     27 H42         1.5980    1.6050    0.9880 hn        1 MGB      0.513800
     28 H102        4.8510   -0.8360    5.7500 hn        1 MGB      0.495300
     29 H133        7.8770    0.8820    6.9460 hn        1 MGB      0.517133
@<TRIPOS>BOND
     1    1    3 1   
     2    1   14 1   
     3    1   15 1   
     4    1   26 1   
     5    2    3 2   
     6    2   16 1   
     7    3    4 1   
     8    4    5 1   
     9    4   17 1   
    10    4   27 1   
    11    5    6 2   
    12    6    7 1   
    13    6   18 1   
    14    7    8 1   
    15    7    9 2   
    16    8   19 1   
    17    8   20 1   
    18    8   21 1   
    19    9   10 1   
    20   10   11 1   
    21   10   22 1   
    22   10   28 1   
    23   11   12 2   
    24   11   13 1   
    25   12   23 1   
    26   13   24 1   
    27   13   25 1   
    28   13   29 1   
@<TRIPOS>SUBSTRUCTURE
     1 MGB         1 TEMP              0 ****  ****    0 ROOT
