@<TRIPOS>MOLECULE
MGC
   33    33     1     0     0
SMALL
bcc


@<TRIPOS>ATOM
      1 O6         -2.8430    0.6710   -3.2380 oh        1 MGC     -0.594800
      2 C6         -1.4240    0.6710   -3.2380 c3        1 MGC      0.141400
      3 C5         -0.9240    0.6710   -1.8210 c3        1 MGC      0.066100
      4 O5         -1.2350   -0.6220   -1.2090 os        1 MGC     -0.457600
      5 C1         -0.7820   -0.7190    0.1860 c3        1 MGC      0.317900
      6 O1         -1.5510    0.1320    0.9690 os        1 MGC     -0.448600
      7 CM         -2.7520   -0.4670    1.4660 c3        1 MGC      0.117700
      8 C2          0.6800   -0.3470    0.3500 c3        1 MGC      0.053700
      9 N2          0.9980   -0.2930    1.7760 n         1 MGC     -0.555900
     10 C7          1.9010   -1.2600    2.3510 c         1 MGC      0.664100
     11 O7          2.3980   -2.1200    1.6490 o         1 MGC     -0.610100
     12 C8          2.2650   -1.1800    3.8360 c3        1 MGC     -0.173100
     13 C3          0.9980    0.9610   -0.2610 c3        1 MGC      0.096100
     14 O3          2.4500    1.0570   -0.1760 oh        1 MGC     -0.585800
     15 C4          0.5630    0.9690   -1.8260 c3        1 MGC      0.085100
     16 O4          1.2150    0.0700   -2.7390 oh        1 MGC     -0.593800
     17 HO6        -3.1390    0.7160   -4.0740 ho        1 MGC      0.411000
     18 H61        -1.0990   -0.1260   -3.6980 h1        1 MGC      0.060700
     19 H62        -1.0990    1.4680   -3.6980 h1        1 MGC      0.060700
     20 H5         -1.3840    1.3740   -1.3240 h1        1 MGC      0.079700
     21 H1         -0.9100   -1.6350    0.4970 h2        1 MGC      0.090700
     22 HM1        -3.3870    0.2320    1.7110 h1        1 MGC      0.042033
     23 HM2        -3.1430   -1.0340    0.7750 h1        1 MGC      0.042033
     24 HM3        -2.5450   -1.0080    2.2520 h1        1 MGC      0.042033
     25 H2          1.2300   -1.0350   -0.0710 h1        1 MGC      0.100700
     26 HN2         0.6600    0.3780    2.2930 hn        1 MGC      0.318500
     27 H81         2.9910   -1.8040    4.0270 hc        1 MGC      0.068700
     28 H82         2.5510   -0.2720    4.0520 hc        1 MGC      0.068700
     29 H83         1.4860   -1.4130    4.3750 hc        1 MGC      0.068700
     30 H3          0.5700    1.6900    0.2270 h1        1 MGC      0.093700
     31 HO3         2.6880    1.9100   -0.1170 ho        1 MGC      0.420000
     32 H4          0.6870    1.8760   -2.1650 h1        1 MGC      0.098700
     33 HO4         1.8880    0.4890   -3.1370 ho        1 MGC      0.412000
@<TRIPOS>BOND
     1    1    2 1   
     2    1   17 1   
     3    2    3 1   
     4    2   18 1   
     5    2   19 1   
     6    3    4 1   
     7    3   15 1   
     8    3   20 1   
     9    4    5 1   
    10    5    6 1   
    11    5    8 1   
    12    5   21 1   
    13    6    7 1   
    14    7   22 1   
    15    7   23 1   
    16    7   24 1   
    17    8    9 1   
    18    8   13 1   
    19    8   25 1   
    20    9   10 1   
    21    9   26 1   
    22   10   11 2   
    23   10   12 1   
    24   12   27 1   
    25   12   28 1   
    26   12   29 1   
    27   13   14 1   
    28   13   15 1   
    29   13   30 1   
    30   14   31 1   
    31   15   16 1   
    32   15   32 1   
    33   16   33 1   
@<TRIPOS>SUBSTRUCTURE
     1 MGC         1 TEMP              0 ****  ****    0 ROOT
