@<TRIPOS>MOLECULE
MGC
   34    34     1     0     0
SMALL
bcc


@<TRIPOS>ATOM
      1 O6          0.5090   -0.4820   -0.4220 oh        1 MGC     -0.578800
      2 C6          1.8830   -0.4350   -0.1210 c3        1 MGC      0.145400
      3 C5          2.0910   -0.0110    1.3400 c3        1 MGC      0.099100
      4 O5          1.5610   -1.0890    2.1240 os        1 MGC     -0.405600
      5 C1          1.6950   -0.9620    3.5110 c3        1 MGC      0.328900
      6 O1          0.9930    0.1850    3.9450 os        1 MGC     -0.486600
      7 CM         -0.4230    0.1030    3.7710 c3        1 MGC      0.118700
      8 C2          3.1830   -0.7410    3.9130 c3        1 MGC      0.097500
      9 N2          3.3400   -0.5940    5.3970 ny        1 MGC     -0.678800
     10 C7          3.3850   -1.9420    6.0920 c         1 MGC      0.555100
     11 O7          2.3060   -2.3760    6.4620 o         1 MGC     -0.403100
     12 C8          4.7360   -2.5480    6.2430 c3        1 MGC     -0.187100
     13 C3          3.7220    0.5010    3.1650 c3        1 MGC      0.086100
     14 O3          5.0820    0.6270    3.5480 oh        1 MGC     -0.629800
     15 C4          3.5720    0.2410    1.6530 c3        1 MGC      0.093100
     16 O4          4.3140   -0.9020    1.2780 oh        1 MGC     -0.575800
     17 HO6         0.1470   -1.2680    0.0070 ho        1 MGC      0.414000
     18 H61         2.3100    0.3540   -0.7960 h1        1 MGC      0.076700
     19 H62         2.3850   -1.4200   -0.3040 h1        1 MGC      0.076700
     20 H5          1.5030    0.9210    1.5730 h1        1 MGC      0.083700
     21 H1          1.2740   -1.9150    3.9430 h2        1 MGC      0.110700
     22 HM1        -0.6670   -0.0680    2.6940 h1        1 MGC      0.062700
     23 HM2        -0.7910    1.1030    4.1130 h1        1 MGC      0.062700
     24 HM3        -0.8370   -0.7170    4.4050 h1        1 MGC      0.062700
     25 H2          3.7800   -1.6410    3.5720 hx        1 MGC      0.140700
     26 HN2         4.2140   -0.0830    5.5760 hn        1 MGC      0.474300
     27 H81         4.6150   -3.6080    6.5920 hc        1 MGC      0.116700
     28 H82         5.3250   -1.9840    7.0130 hc        1 MGC      0.116700
     29 H83         5.3000   -2.5450    5.2760 hc        1 MGC      0.116700
     30 H3          3.1420    1.4220    3.4540 h1        1 MGC      0.088700
     31 HO3         5.4490    1.3890    3.0770 ho        1 MGC      0.447000
     32 H4          3.9240    1.1480    1.0860 h1        1 MGC      0.076700
     33 HO4         5.2500   -0.6570    1.3170 ho        1 MGC      0.421000
     34 H22         2.5430   -0.0410    5.7480 hn        1 MGC      0.474300
@<TRIPOS>BOND
     1    1    2 1   
     2    1   17 1   
     3    2    3 1   
     4    2   18 1   
     5    2   19 1   
     6    3    4 1   
     7    3   15 1   
     8    3   20 1   
     9    4    5 1   
    10    5    6 1   
    11    5    8 1   
    12    5   21 1   
    13    6    7 1   
    14    7   22 1   
    15    7   23 1   
    16    7   24 1   
    17    8    9 1   
    18    8   13 1   
    19    8   25 1   
    20    9   10 1   
    21    9   26 1   
    22    9   34 1   
    23   10   11 2   
    24   10   12 1   
    25   12   27 1   
    26   12   28 1   
    27   12   29 1   
    28   13   14 1   
    29   13   15 1   
    30   13   30 1   
    31   14   31 1   
    32   15   16 1   
    33   15   32 1   
    34   16   33 1   
@<TRIPOS>SUBSTRUCTURE
     1 MGC         1 TEMP              0 ****  ****    0 ROOT
