@<TRIPOS>MOLECULE
MGC
   33    33     1     0     0
SMALL
bcc


@<TRIPOS>ATOM
      1 O6         -4.2600    0.7750    0.2380 oh        1 MGC     -0.594800
      2 C6         -3.5170   -0.4240    0.2080 c3        1 MGC      0.141400
      3 C5         -2.1110   -0.1870   -0.3480 c3        1 MGC      0.066100
      4 O5         -1.4790    0.7130    0.5710 os        1 MGC     -0.457600
      5 C1         -0.1610    1.0870    0.2170 c3        1 MGC      0.317900
      6 O1         -0.2410    1.7350   -1.0370 os        1 MGC     -0.448600
      7 CM         -0.8480    3.0190   -0.9820 c3        1 MGC      0.117700
      8 C2          0.7740   -0.1480    0.0830 c3        1 MGC      0.053700
      9 N2          2.1080    0.2370   -0.2820 n         1 MGC     -0.555900
     10 C7          3.2140   -0.1240    0.4720 c         1 MGC      0.664100
     11 O7          3.0820   -0.6470    1.5960 o         1 MGC     -0.610100
     12 C8          4.5720    0.1830   -0.1100 c3        1 MGC     -0.173100
     13 C3          0.1300   -1.1590   -0.9020 c3        1 MGC      0.096100
     14 O3          0.9000   -2.3360   -1.0030 oh        1 MGC     -0.585800
     15 C4         -1.3060   -1.4850   -0.4500 c3        1 MGC      0.085100
     16 O4         -1.2860   -2.2160    0.7620 oh        1 MGC     -0.593800
     17 HO6        -3.7730    1.3960    0.7960 ho        1 MGC      0.411000
     18 H61        -4.0830   -1.1080   -0.4780 h1        1 MGC      0.060700
     19 H62        -3.4510   -0.8750    1.2340 h1        1 MGC      0.060700
     20 H5         -2.1650    0.3050   -1.3580 h1        1 MGC      0.079700
     21 H1          0.1690    1.7800    1.0410 h2        1 MGC      0.090700
     22 HM1        -0.2340    3.7120   -0.3570 h1        1 MGC      0.042033
     23 HM2        -0.8690    3.3590   -2.0470 h1        1 MGC      0.042033
     24 HM3        -1.8840    2.9400   -0.5700 h1        1 MGC      0.042033
     25 H2          0.8140   -0.6310    1.1090 h1        1 MGC      0.100700
     26 HN2         2.2360    0.5470   -1.2170 hn        1 MGC      0.318500
     27 H81         4.6630    1.2690   -0.3530 hc        1 MGC      0.068700
     28 H82         5.3520   -0.0890    0.6420 hc        1 MGC      0.068700
     29 H83         4.7370   -0.4150   -1.0380 hc        1 MGC      0.068700
     30 H3          0.1110   -0.7290   -1.9430 h1        1 MGC      0.093700
     31 HO3         0.8050   -2.8140   -0.1660 ho        1 MGC      0.420000
     32 H4         -1.7810   -2.1870   -1.1910 h1        1 MGC      0.098700
     33 HO4        -1.1190   -1.5880    1.4770 ho        1 MGC      0.412000
@<TRIPOS>BOND
     1    1    2 1   
     2    1   17 1   
     3    2    3 1   
     4    2   18 1   
     5    2   19 1   
     6    3    4 1   
     7    3   15 1   
     8    3   20 1   
     9    4    5 1   
    10    5    6 1   
    11    5    8 1   
    12    5   21 1   
    13    6    7 1   
    14    7   22 1   
    15    7   23 1   
    16    7   24 1   
    17    8    9 1   
    18    8   13 1   
    19    8   25 1   
    20    9   10 1   
    21    9   26 1   
    22   10   11 2   
    23   10   12 1   
    24   12   27 1   
    25   12   28 1   
    26   12   29 1   
    27   13   14 1   
    28   13   15 1   
    29   13   30 1   
    30   14   31 1   
    31   15   16 1   
    32   15   32 1   
    33   16   33 1   
@<TRIPOS>SUBSTRUCTURE
     1 MGC         1 TEMP              0 ****  ****    0 ROOT
