@<TRIPOS>MOLECULE
MGC
   34    34     1     0     0
SMALL
bcc


@<TRIPOS>ATOM
      1 O6          0.4680   -0.4550   -0.3960 oh        1 MGC     -0.578800
      2 C6          1.8450   -0.4300   -0.1120 c3        1 MGC      0.145400
      3 C5          2.0780   -0.0060    1.3450 c3        1 MGC      0.099100
      4 O5          1.5400   -1.0730    2.1380 os        1 MGC     -0.405600
      5 C1          1.6930   -0.9440    3.5240 c3        1 MGC      0.328900
      6 O1          1.0150    0.2150    3.9620 os        1 MGC     -0.486600
      7 CM         -0.4040    0.1560    3.8060 c3        1 MGC      0.118700
      8 C2          3.1890   -0.7470    3.9070 c3        1 MGC      0.097500
      9 N2          3.3660   -0.5990    5.3880 n4        1 MGC     -0.678800
     10 C7          3.3970   -1.9460    6.0860 c         1 MGC      0.555100
     11 O7          2.3160   -2.3610    6.4700 o         1 MGC     -0.403100
     12 C8          4.7400   -2.5730    6.2240 c3        1 MGC     -0.187100
     13 C3          3.7400    0.4830    3.1490 c3        1 MGC      0.086100
     14 O3          5.1060    0.5880    3.5150 oh        1 MGC     -0.629800
     15 C4          3.5670    0.2220    1.6390 c3        1 MGC      0.093100
     16 O4          4.2850   -0.9340    1.2590 oh        1 MGC     -0.575800
     17 HO6         0.0970   -1.2340    0.0390 ho        1 MGC      0.414000
     18 H61         2.3290   -1.4250   -0.2980 h1        1 MGC      0.076700
     19 H62         2.2770    0.3490   -0.7950 h1        1 MGC      0.076700
     20 H5          1.5090    0.9360    1.5820 h1        1 MGC      0.083700
     21 H1          1.2610   -1.8890    3.9630 h2        1 MGC      0.110700
     22 HM1        -0.6630   -0.0130    2.7320 h1        1 MGC      0.062700
     23 HM2        -0.7510    1.1630    4.1490 h1        1 MGC      0.062700
     24 HM3        -0.8240   -0.6550    4.4480 h1        1 MGC      0.062700
     25 H2          3.7670   -1.6580    3.5610 hx        1 MGC      0.140700
     26 HN2         2.5830   -0.0330    5.7470 hn        1 MGC      0.474300
     27 H81         5.2930   -2.5830    5.2500 hc        1 MGC      0.117033
     28 H82         5.3480   -2.0170    6.9840 hc        1 MGC      0.117033
     29 H83         4.6060   -3.6310    6.5780 hc        1 MGC      0.117033
     30 H3          3.1790    1.4150    3.4420 h1        1 MGC      0.088700
     31 HO3         5.4790    1.3410    3.0370 ho        1 MGC      0.447000
     32 H4          3.9270    1.1210    1.0650 h1        1 MGC      0.076700
     33 HO4         5.2250   -0.7060    1.2860 ho        1 MGC      0.421000
     34 H22         4.2510   -0.1020    5.5560 hn        1 MGC      0.474300
@<TRIPOS>BOND
     1    1    2 1   
     2    1   17 1   
     3    2    3 1   
     4    2   18 1   
     5    2   19 1   
     6    3    4 1   
     7    3   15 1   
     8    3   20 1   
     9    4    5 1   
    10    5    6 1   
    11    5    8 1   
    12    5   21 1   
    13    6    7 1   
    14    7   22 1   
    15    7   23 1   
    16    7   24 1   
    17    8    9 1   
    18    8   13 1   
    19    8   25 1   
    20    9   10 1   
    21    9   26 1   
    22    9   34 1   
    23   10   11 2   
    24   10   12 1   
    25   12   27 1   
    26   12   28 1   
    27   12   29 1   
    28   13   14 1   
    29   13   15 1   
    30   13   30 1   
    31   14   31 1   
    32   15   16 1   
    33   15   32 1   
    34   16   33 1   
@<TRIPOS>SUBSTRUCTURE
     1 MGC         1 TEMP              0 ****  ****    0 ROOT
