@<TRIPOS>MOLECULE
MGC
   34    34     1     0     0
SMALL
bcc


@<TRIPOS>ATOM
      1 O6          0.5330   -0.4850   -0.4370 oh        1 MGC     -0.578800
      2 C6          1.9030   -0.4230   -0.1270 c3        1 MGC      0.145400
      3 C5          2.0970   -0.0060    1.3380 c3        1 MGC      0.099100
      4 O5          1.5750   -1.0950    2.1110 os        1 MGC     -0.405600
      5 C1          1.6980   -0.9760    3.5010 c3        1 MGC      0.328900
      6 O1          0.9790    0.1590    3.9360 os        1 MGC     -0.486600
      7 CM         -0.4340    0.0610    3.7520 c3        1 MGC      0.118700
      8 C2          3.1810   -0.7390    3.9140 c3        1 MGC      0.097500
      9 N2          3.3260   -0.5990    5.4000 n4        1 MGC     -0.678800
     10 C7          3.3830   -1.9500    6.0860 c         1 MGC      0.555100
     11 O7          2.3080   -2.4010    6.4460 o         1 MGC     -0.403100
     12 C8          4.7420   -2.5400    6.2440 c3        1 MGC     -0.187100
     13 C3          3.7090    0.5140    3.1780 c3        1 MGC      0.086100
     14 O3          5.0650    0.6550    3.5700 oh        1 MGC     -0.629800
     15 C4          3.5720    0.2620    1.6620 c3        1 MGC      0.093100
     16 O4          4.3320   -0.8690    1.2850 oh        1 MGC     -0.575800
     17 HO6         0.1770   -1.2790   -0.0160 ho        1 MGC      0.414000
     18 H61         2.3250    0.3750   -0.7940 h1        1 MGC      0.076700
     19 H62         2.4190   -1.4010   -0.3120 h1        1 MGC      0.076700
     20 H5          1.4960    0.9170    1.5730 h1        1 MGC      0.083700
     21 H1          1.2860   -1.9370    3.9230 h2        1 MGC      0.110700
     22 HM1        -0.6690   -0.1070    2.6730 h1        1 MGC      0.062700
     23 HM2        -0.8170    1.0540    4.0980 h1        1 MGC      0.062700
     24 HM3        -0.8430   -0.7680    4.3790 h1        1 MGC      0.062700
     25 H2          3.7920   -1.6290    3.5710 hx        1 MGC      0.140700
     26 HN2         2.5200   -0.0590    5.7490 hn        1 MGC      0.474300
     27 H81         5.3130   -2.5230    5.2810 hc        1 MGC      0.116700
     28 H82         5.3180   -1.9740    7.0210 hc        1 MGC      0.116700
     29 H83         4.6320   -3.6040    6.5850 hc        1 MGC      0.116700
     30 H3          3.1160    1.4260    3.4680 h1        1 MGC      0.088700
     31 HO3         5.4250    1.4240    3.1060 ho        1 MGC      0.447000
     32 H4          3.9170    1.1770    1.1030 h1        1 MGC      0.076700
     33 HO4         5.2630   -0.6140    1.3320 ho        1 MGC      0.421000
     34 H22         4.1930   -0.0780    5.5880 hn        1 MGC      0.474300
@<TRIPOS>BOND
     1    1    2 1   
     2    1   17 1   
     3    2    3 1   
     4    2   18 1   
     5    2   19 1   
     6    3    4 1   
     7    3   15 1   
     8    3   20 1   
     9    4    5 1   
    10    5    6 1   
    11    5    8 1   
    12    5   21 1   
    13    6    7 1   
    14    7   22 1   
    15    7   23 1   
    16    7   24 1   
    17    8    9 1   
    18    8   13 1   
    19    8   25 1   
    20    9   10 1   
    21    9   26 1   
    22    9   34 1   
    23   10   11 2   
    24   10   12 1   
    25   12   27 1   
    26   12   28 1   
    27   12   29 1   
    28   13   14 1   
    29   13   15 1   
    30   13   30 1   
    31   14   31 1   
    32   15   16 1   
    33   15   32 1   
    34   16   33 1   
@<TRIPOS>SUBSTRUCTURE
     1 MGC         1 TEMP              0 ****  ****    0 ROOT
