@<TRIPOS>MOLECULE
MGE
  120   118     1     0     0
SMALL
bcc


@<TRIPOS>ATOM
      1 C1A        -0.8100   -2.3680   -0.3840 c1        1 MGE      0.308000
      2 C2A        -1.0790   -2.5150    1.1320 c2        1 MGE     -0.154000
      3 C3A        -0.2430   -1.4680    1.9110 c3        1 MGE     -0.158000
      4 C4A        -0.2680   -1.8110    3.4520 c3        1 MGE     -0.157000
      5 C5A         0.5490   -0.7480    4.2300 c3        1 MGE     -0.158000
      6 C6A         0.7840   -1.2340    5.6700 c3        1 MGE     -0.157000
      7 C7A         1.9620   -0.4160    6.3140 c3        1 MGE     -0.158000
      8 C8A         2.1950   -0.8990    7.7360 c3        1 MGE     -0.157000
      9 C9A         3.4830   -0.2680    8.2880 c3        1 MGE     -0.158000
     10 CAA         3.7240   -0.7640    9.7330 c3        1 MGE     -0.158000
     11 CBA         5.0700   -0.1450   10.2850 c3        1 MGE     -0.158000
     12 CCA         5.3190   -0.6490   11.7030 c3        1 MGE     -0.159000
     13 CDA         6.6020    0.0070   12.2680 c3        1 MGE     -0.210000
     14 O1A         0.1950   -1.8010   -0.7710 o         1 MGE     -0.344000
     15 C1B        -2.3300   -2.0060   -5.0400 c1        1 MGE      0.306000
     16 C2B        -1.4780   -1.2370   -6.0820 c2        1 MGE     -0.155000
     17 C3B        -1.9680    0.2310   -6.1680 c3        1 MGE     -0.158000
     18 C4B        -0.8400    1.1210   -6.7450 c3        1 MGE     -0.161000
     19 C5B        -1.3250    2.6230   -6.7900 c3        1 MGE     -0.157000
     20 C6B        -0.0860    3.5800   -6.6650 c3        1 MGE     -0.158000
     21 C7B        -0.5220    4.9140   -5.9590 c3        1 MGE     -0.157000
     22 C8B         0.7500    5.6530   -5.4070 c3        1 MGE     -0.158000
     23 C9B         0.3190    6.7000   -4.3250 c3        1 MGE     -0.157000
     24 CAB         1.5730    7.4140   -3.7720 c3        1 MGE     -0.158000
     25 CBB         1.2560    8.0070   -2.3860 c3        1 MGE     -0.158000
     26 CCB         2.5560    8.4920   -1.7260 c3        1 MGE     -0.158000
     27 CDB         2.2770    8.8690   -0.2550 c3        1 MGE     -0.158000
     28 CEB         3.6020    9.2550    0.4350 c3        1 MGE     -0.158000
     29 CFB         3.3480    9.5260    1.9270 c3        1 MGE     -0.159000
     30 CGB         4.6590    9.9220    2.6030 c3        1 MGE     -0.210000
     31 O1B        -3.2460   -1.4440   -4.4670 o         1 MGE     -0.344000
     32 O1G        -1.8030   -2.8170   -1.3420 os        1 MGE     -0.292000
     33 C1G        -1.2490   -3.3500   -2.5460 c3        1 MGE     -0.035000
     34 C2G        -2.3750   -3.7620   -3.4810 c3        1 MGE     -0.001000
     35 O2G        -2.0690   -3.3630   -4.7840 os        1 MGE     -0.280000
     36 C3G        -2.5480   -5.3110   -3.4350 c3        1 MGE     -0.019000
     37 O3G        -3.8980   -5.6320   -3.0670 os        1 MGE     -0.286000
     38 C1D        -3.9940   -6.6000   -2.0500 c3        1 MGE      0.105000
     39 C2D        -5.4380   -6.7970   -1.6960 c3        1 MGE      0.030000
     40 O2D        -6.0360   -5.5020   -1.4280 oh        1 MGE     -0.310000
     41 C3D        -6.2030   -7.4620   -2.7870 c3        1 MGE      0.009000
     42 O3D        -6.3160   -6.5460   -3.9140 oh        1 MGE     -0.325000
     43 C4D        -5.5480   -8.7200   -3.2500 c3        1 MGE     -0.025000
     44 O4D        -6.2370   -9.1990   -4.4130 oh        1 MGE     -0.332000
     45 C5D        -4.0920   -8.5170   -3.5970 c3        1 MGE     -0.042000
     46 O5D        -3.1640  -10.5050   -2.6750 oh        1 MGE     -0.334000
     47 C6D        -3.4650   -9.8620   -3.8840 c3        1 MGE     -0.022000
     48 O6D        -3.3450   -7.8600   -2.5210 os        1 MGE     -0.301000
     49 H2A1       -2.0360   -2.3690    1.3100 ha        1 MGE      0.116000
     50 H2A2       -0.8280   -3.4110    1.4210 ha        1 MGE      0.116000
     51 H3A1        0.6830   -1.4830    1.5870 hc        1 MGE      0.098500
     52 H3A2       -0.6290   -0.5630    1.7670 hc        1 MGE      0.098500
     53 H4A1        0.1250   -2.6930    3.5960 hc        1 MGE      0.080500
     54 H4A2       -1.2040   -1.8100    3.7760 hc        1 MGE      0.080500
     55 H5A1        1.3980   -0.6140    3.7940 hc        1 MGE      0.082500
     56 H5A2        0.0530    0.0960    4.2460 hc        1 MGE      0.082500
     57 H6A1        1.0150   -2.1840    5.6600 hc        1 MGE      0.079000
     58 H6A2       -0.0440   -1.1000    6.2040 hc        1 MGE      0.079000
     59 H7A1        1.7300    0.5420    6.3270 hc        1 MGE      0.080000
     60 H7A2        2.7790   -0.5480    5.7860 hc        1 MGE      0.080000
     61 H8A1        1.4390   -0.6380    8.2970 hc        1 MGE      0.079000
     62 H8A2        2.2820   -1.8630    7.7390 hc        1 MGE      0.079000
     63 H9A1        4.2400   -0.5270    7.7250 hc        1 MGE      0.079000
     64 H9A2        3.3950    0.7090    8.2880 hc        1 MGE      0.079000
     65 H101        2.9740   -0.4830   10.3050 hc        1 MGE      0.079000
     66 H102        3.7890   -1.7470    9.7360 hc        1 MGE      0.079000
     67 H111        5.8130   -0.4150    9.7080 hc        1 MGE      0.079000
     68 H112        5.0010    0.8320   10.2930 hc        1 MGE      0.079000
     69 H121        5.4290   -1.6130   11.6890 hc        1 MGE      0.078000
     70 H122        4.5590   -0.4170   12.2680 hc        1 MGE      0.078000
     71 H131        6.5250    0.9840   12.2080 hc        1 MGE      0.072000
     72 H132        7.3800   -0.2920   11.7460 hc        1 MGE      0.072000
     73 H133        6.7180   -0.2560   13.2060 hc        1 MGE      0.072000
     74 H2B1       -1.5720   -1.6690   -6.9680 ha        1 MGE      0.119000
     75 H2B2       -0.5330   -1.2520   -5.8080 ha        1 MGE      0.119000
     76 H3B1       -2.7520    0.2790   -6.7500 hc        1 MGE      0.098000
     77 H3B2       -2.2050    0.5450   -5.2770 hc        1 MGE      0.098000
     78 H4B1       -0.6180    0.8180   -7.6630 hc        1 MGE      0.083000
     79 H4B2       -0.0470    1.0510   -6.1780 hc        1 MGE      0.083000
     80 H5B1       -1.7860    2.7940   -7.6440 hc        1 MGE      0.081000
     81 H5B2       -1.9410    2.7890   -6.0480 hc        1 MGE      0.081000
     82 H6B1        0.2580    3.7820   -7.5560 hc        1 MGE      0.080500
     83 H6B2        0.6100    3.1450   -6.1390 hc        1 MGE      0.080500
     84 H7B1       -1.1260    4.7090   -5.2210 hc        1 MGE      0.079000
     85 H7B2       -0.9820    5.4920   -6.6090 hc        1 MGE      0.079000
     86 H8B1        1.2080    6.1150   -6.1450 hc        1 MGE      0.079500
     87 H8B2        1.3620    4.9950   -5.0010 hc        1 MGE      0.079500
     88 H9B1       -0.1480    6.2380   -3.5880 hc        1 MGE      0.078500
     89 H9B2       -0.2830    7.3620   -4.7300 hc        1 MGE      0.078500
     90 H201        2.3070    6.7690   -3.6910 hc        1 MGE      0.079500
     91 H202        1.8360    8.1340   -4.3840 hc        1 MGE      0.079500
     92 H211        0.6390    8.7650   -2.4880 hc        1 MGE      0.078500
     93 H212        0.8410    7.3200   -1.8240 hc        1 MGE      0.078500
     94 H221        3.2260    7.7760   -1.7590 hc        1 MGE      0.079000
     95 H222        2.8910    9.2710   -2.2020 hc        1 MGE      0.079000
     96 H231        1.6560    9.6310   -0.2240 hc        1 MGE      0.078500
     97 H232        1.8800    8.1070    0.2060 hc        1 MGE      0.078500
     98 H241        4.2460    8.5200    0.3420 hc        1 MGE      0.079000
     99 H242        3.9650   10.0620    0.0150 hc        1 MGE      0.079000
    100 H251        2.6990   10.2540    2.0210 hc        1 MGE      0.078000
    101 H252        2.9960    8.7190    2.3490 hc        1 MGE      0.078000
    102 H261        5.0230   10.7250    2.1660 hc        1 MGE      0.072000
    103 H262        5.3010    9.1880    2.5250 hc        1 MGE      0.072000
    104 H263        4.4950   10.1110    3.5440 hc        1 MGE      0.072000
    105 H1G1       -0.6910   -2.6630   -2.9850 h1        1 MGE      0.107500
    106 H1G2       -0.7030   -4.1260   -2.3360 h1        1 MGE      0.107500
    107 H2G        -3.2130   -3.3310   -3.1940 h1        1 MGE      0.140000
    108 H3G1       -1.9390   -5.6840   -2.7810 h1        1 MGE      0.114000
    109 H3G2       -2.3500   -5.6910   -4.3220 h1        1 MGE      0.114000
    110 H1D        -3.5140   -6.2740   -1.2550 h2        1 MGE      0.143000
    111 H2D        -5.4940   -7.3490   -0.8850 h1        1 MGE      0.122000
    112 H4         -6.4350   -5.5190   -0.6340 ho        1 MGE      0.235000
    113 H3D        -7.0980   -7.6740   -2.4600 h1        1 MGE      0.099000
    114 H3         -7.1370   -6.5580   -4.2190 ho        1 MGE      0.226000
    115 H4D        -5.6140   -9.3980   -2.5340 h1        1 MGE      0.099000
    116 H2         -6.7340   -9.8850   -4.1950 ho        1 MGE      0.221000
    117 H5D        -4.0340   -7.9610   -4.4070 h1        1 MGE      0.127000
    118 H1         -2.5840  -11.1530   -2.8240 ho        1 MGE      0.212000
    119 H6D1       -4.0950  -10.4120   -4.4000 h1        1 MGE      0.099000
    120 H6D2       -2.6520   -9.7380   -4.3940 h1        1 MGE      0.099000
@<TRIPOS>BOND
     1    1   14 1   
     2    1   32 1   
     3    2    3 1   
     4    2   49 1   
     5    2   50 1   
     6    3    4 1   
     7    3   51 1   
     8    3   52 1   
     9    4    5 1   
    10    4   53 1   
    11    4   54 1   
    12    5    6 1   
    13    5   55 1   
    14    5   56 1   
    15    6    7 1   
    16    6   57 1   
    17    6   58 1   
    18    7    8 1   
    19    7   59 1   
    20    7   60 1   
    21    8    9 1   
    22    8   61 1   
    23    8   62 1   
    24    9   10 1   
    25    9   63 1   
    26    9   64 1   
    27   10   11 1   
    28   10   65 1   
    29   10   66 1   
    30   11   12 1   
    31   11   67 1   
    32   11   68 1   
    33   12   13 1   
    34   12   69 1   
    35   12   70 1   
    36   13   71 1   
    37   13   72 1   
    38   13   73 1   
    39   15   31 1   
    40   15   35 1   
    41   16   17 1   
    42   16   74 1   
    43   16   75 1   
    44   17   18 1   
    45   17   76 1   
    46   17   77 1   
    47   18   19 1   
    48   18   78 1   
    49   18   79 1   
    50   19   20 1   
    51   19   80 1   
    52   19   81 1   
    53   20   21 1   
    54   20   82 1   
    55   20   83 1   
    56   21   22 1   
    57   21   84 1   
    58   21   85 1   
    59   22   23 1   
    60   22   86 1   
    61   22   87 1   
    62   23   24 1   
    63   23   88 1   
    64   23   89 1   
    65   24   25 1   
    66   24   90 1   
    67   24   91 1   
    68   25   26 1   
    69   25   92 1   
    70   25   93 1   
    71   26   27 1   
    72   26   94 1   
    73   26   95 1   
    74   27   28 1   
    75   27   96 1   
    76   27   97 1   
    77   28   29 1   
    78   28   98 1   
    79   28   99 1   
    80   29   30 1   
    81   29  100 1   
    82   29  101 1   
    83   30  102 1   
    84   30  103 1   
    85   30  104 1   
    86   32   33 1   
    87   33   34 1   
    88   33  105 1   
    89   33  106 1   
    90   34   35 1   
    91   34   36 1   
    92   34  107 1   
    93   36   37 1   
    94   36  108 1   
    95   36  109 1   
    96   37   38 1   
    97   38   39 1   
    98   38   48 1   
    99   38  110 1   
   100   39   40 1   
   101   39   41 1   
   102   39  111 1   
   103   40  112 1   
   104   41   42 1   
   105   41   43 1   
   106   41  113 1   
   107   42  114 1   
   108   43   44 1   
   109   43   45 1   
   110   43  115 1   
   111   44  116 1   
   112   45   47 1   
   113   45   48 1   
   114   45  117 1   
   115   46   47 1   
   116   46  118 1   
   117   47  119 1   
   118   47  120 1   
@<TRIPOS>SUBSTRUCTURE
     1 MGE         1 TEMP              0 ****  ****    0 ROOT
