@<TRIPOS>MOLECULE
MGE
  120   117     1     0     0
SMALL
bcc


@<TRIPOS>ATOM
      1 C1A        -0.7390   -0.9810   -0.6820 c2        1 MGE      0.303000
      2 C2A         0.7570   -0.9830   -0.6800 c3        1 MGE     -0.158000
      3 C3A         1.3060   -0.0410    0.3690 c3        1 MGE     -0.158000
      4 C4A         2.8160   -0.1170    0.4210 c3        1 MGE     -0.158000
      5 C5A         3.3730    0.8330    1.4600 c3        1 MGE     -0.158000
      6 C6A         4.8840    0.7520    1.5220 c3        1 MGE     -0.158000
      7 C7A         5.4410    1.7030    2.5590 c3        1 MGE     -0.158000
      8 C8A         6.9510    1.6180    2.6260 c3        1 MGE     -0.158000
      9 C9A         7.5090    2.5700    3.6620 c3        1 MGE     -0.157000
     10 CAA         9.0180    2.4820    3.7330 c3        1 MGE     -0.162000
     11 CBA         9.5730    3.4340    4.7700 c3        1 MGE     -0.140000
     12 CCA        11.0870    3.3570    4.8310 c3        1 MGE     -0.247000
     13 CDA        11.6420    4.1400    5.9170 c1        1 MGE     -0.044000
     14 O1A        -1.5290   -0.5500    0.1580 o         1 MGE     -0.345000
     15 C2B        -2.2560    0.7040   -5.5890 c3        1 MGE     -0.160000
     16 C3B        -3.1940    1.5930   -6.3780 c3        1 MGE     -0.160000
     17 C4B        -2.4210    2.4560   -7.3520 c3        1 MGE     -0.157000
     18 C5B        -3.3540    3.3340   -8.1580 c3        1 MGE     -0.158000
     19 C6B        -2.5860    4.2000   -9.1330 c3        1 MGE     -0.157000
     20 C7B        -3.5200    5.0750   -9.9410 c3        1 MGE     -0.158000
     21 C8B        -2.7530    5.9400  -10.9180 c3        1 MGE     -0.157000
     22 C9B        -3.6870    6.8140  -11.7280 c3        1 MGE     -0.158000
     23 CAB        -2.9210    7.6780  -12.7060 c3        1 MGE     -0.157000
     24 CBB        -3.8560    8.5510  -13.5170 c3        1 MGE     -0.158000
     25 CCB        -3.0900    9.4140  -14.4960 c3        1 MGE     -0.158000
     26 CDB        -4.0240   10.2860  -15.3070 c3        1 MGE     -0.156000
     27 CEB        -3.2600   11.1500  -16.2860 c3        1 MGE     -0.185000
     28 CFB        -4.1910   12.0240  -17.1010 c3        1 MGE     -0.255000
     29 CGB        -3.5990   12.9050  -18.0810 c1        1 MGE     -0.056000
     30 O1B        -3.9820    0.2660   -3.8740 o         1 MGE     -0.339000
     31 O1G        -1.2570   -1.5690   -1.8100 os        1 MGE     -0.286000
     32 C1G        -2.6870   -1.6120   -1.9100 c3        1 MGE     -0.043000
     33 C2G        -3.0380   -2.1260   -3.3110 c3        1 MGE      0.045000
     34 O2G        -2.4380   -1.2970   -4.3130 os        1 MGE     -0.280000
     35 C3G        -2.5200   -3.5500   -3.5110 c3        1 MGE     -0.001000
     36 O3G        -3.6260   -4.4710   -3.3240 os        1 MGE     -0.322000
     37 C1D        -3.3980   -5.6250   -4.1520 c3        1 MGE      0.106000
     38 C2D        -4.2800   -5.5770   -5.4170 c3        1 MGE     -0.032000
     39 O2D        -5.6390   -5.7660   -5.1040 oh        1 MGE     -0.298000
     40 C3D        -4.0400   -4.2740   -6.2020 c3        1 MGE     -0.034000
     41 O3D        -4.8820   -3.2300   -5.7510 oh        1 MGE     -0.323000
     42 C4D        -2.5570   -3.8400   -6.1710 c3        1 MGE     -0.009000
     43 O4D        -2.3960   -2.5210   -6.6360 oh        1 MGE     -0.321000
     44 C5D        -1.8730   -4.0820   -4.8120 c3        1 MGE     -0.025000
     45 C6D         0.7830   -1.8730   -5.9120 c2        1 MGE      0.131000
     46 O6D        -2.0380   -5.5030   -4.5590 os        1 MGE     -0.271000
     47 H2A1        0.3430   -3.1590   -3.0490 ha        1 MGE      0.001833
     48 H2A2        0.7790   -2.7840   -2.6890 ha        1 MGE      0.001833
     49 H3A1        1.1190   -0.6960   -1.7040 hc        1 MGE      0.122000
     50 H3A2        1.0990   -2.0360   -0.4850 hc        1 MGE      0.122000
     51 H4A1        0.9830    1.0080    0.1360 hc        1 MGE      0.097500
     52 H4A2        0.8720   -0.3010    1.3710 hc        1 MGE      0.097500
     53 H5A1        3.1330   -1.1660    0.6630 hc        1 MGE      0.080500
     54 H5A2        3.2430    0.1340   -0.5860 hc        1 MGE      0.080500
     55 H6A1        3.0620    1.8830    1.2150 hc        1 MGE      0.082500
     56 H6A2        2.9410    0.5870    2.4650 hc        1 MGE      0.082500
     57 H7A1        5.1940   -0.2980    1.7680 hc        1 MGE      0.079000
     58 H7A2        5.3160    0.9970    0.5160 hc        1 MGE      0.079000
     59 H8A1        5.0060    1.4610    3.5640 hc        1 MGE      0.080500
     60 H8A2        5.1350    2.7530    2.3110 hc        1 MGE      0.080500
     61 H9A1        7.2580    0.5680    2.8760 hc        1 MGE      0.078500
     62 H9A2        7.3870    1.8580    1.6210 hc        1 MGE      0.078500
     63 H101        7.2050    3.6200    3.4100 hc        1 MGE      0.081500
     64 H102        7.0710    2.3310    4.6670 hc        1 MGE      0.081500
     65 H111        9.3220    1.4310    3.9840 hc        1 MGE      0.076000
     66 H112        9.4560    2.7200    2.7280 hc        1 MGE      0.076000
     67 H121        9.1470    3.1940    5.7800 hc        1 MGE      0.093000
     68 H122        9.2660    4.4840    4.5230 hc        1 MGE      0.093000
     69 H131       11.3970    2.2890    5.0580 hc        1 MGE      0.110500
     70 H132       11.5150    3.6030    3.8190 hc        1 MGE      0.110500
     71 H133       12.7050    4.4100    5.8010 ha        1 MGE      0.030000
     72 H2B1       -0.0730   -0.3160   -4.1510 ha        1 MGE      0.001833
     73 H2B2       -0.0310   -0.8490   -3.7310 ha        1 MGE      0.001833
     74 H3B1       -1.7290   -0.0210   -6.2680 hc        1 MGE      0.123000
     75 H3B2       -1.4740    1.3180   -5.0660 hc        1 MGE      0.123000
     76 H4B1       -3.7790    2.2400   -5.6710 hc        1 MGE      0.100000
     77 H4B2       -3.9330    0.9600   -6.9350 hc        1 MGE      0.100000
     78 H5B1       -1.6910    3.0980   -6.7920 hc        1 MGE      0.080500
     79 H5B2       -1.8260    1.8030   -8.0450 hc        1 MGE      0.080500
     80 H6B1       -3.9500    3.9840   -7.4650 hc        1 MGE      0.083500
     81 H6B2       -4.0840    2.6920   -8.7190 hc        1 MGE      0.083500
     82 H7B1       -1.9880    3.5490   -9.8250 hc        1 MGE      0.079000
     83 H7B2       -1.8580    4.8430   -8.5730 hc        1 MGE      0.079000
     84 H8B1       -4.1170    5.7270   -9.2500 hc        1 MGE      0.080000
     85 H8B2       -4.2490    4.4310  -10.5010 hc        1 MGE      0.080000
     86 H9B1       -2.1550    5.2890  -11.6090 hc        1 MGE      0.079000
     87 H9B2       -2.0250    6.5850  -10.3590 hc        1 MGE      0.079000
     88 H201       -4.2850    7.4660  -11.0380 hc        1 MGE      0.080000
     89 H202       -4.4160    6.1690  -12.2860 hc        1 MGE      0.080000
     90 H211       -2.3230    7.0260  -13.3960 hc        1 MGE      0.079000
     91 H212       -2.1930    8.3240  -12.1480 hc        1 MGE      0.079000
     92 H221       -4.4540    9.2030  -12.8270 hc        1 MGE      0.080000
     93 H222       -4.5840    7.9050  -14.0750 hc        1 MGE      0.080000
     94 H231       -2.4910    8.7620  -15.1850 hc        1 MGE      0.080000
     95 H232       -2.3620   10.0610  -13.9380 hc        1 MGE      0.080000
     96 H241       -4.6220   10.9380  -14.6180 hc        1 MGE      0.079000
     97 H242       -4.7520    9.6390  -15.8650 hc        1 MGE      0.079000
     98 H251       -2.6610   10.4960  -16.9740 hc        1 MGE      0.081000
     99 H252       -2.5320   11.7950  -15.7280 hc        1 MGE      0.081000
    100 H261       -4.9370   11.3810  -17.6580 hc        1 MGE      0.146000
    101 H262       -4.8090   12.6770  -16.4150 hc        1 MGE      0.146000
    102 H263       -2.5010   12.8810  -18.1700 ha        1 MGE      0.036000
    103 H1G1       -1.5670    0.9240   -2.7150 ha        1 MGE      0.001833
    104 H1G2       -1.2490    1.0500   -2.1280 ha        1 MGE      0.001833
    105 H2G        -3.1030   -0.5800   -1.7580 h1        1 MGE      0.118500
    106 H3G1       -3.0870   -2.3070   -1.1280 h1        1 MGE      0.118500
    107 H3G2       -4.1610   -2.0760   -3.3970 h1        1 MGE      0.126000
    108 H1D        -1.7780   -3.7630   -2.6830 h1        1 MGE      0.133000
    109 H2D        -3.5280   -6.5480   -3.5380 h2        1 MGE      0.159000
    110 H4         -5.9390   -4.9910   -4.6090 ho        1 MGE      0.212000
    111 H3D        -4.0090   -6.4600   -6.0630 h1        1 MGE      0.142000
    112 H3         -4.8090   -3.1920   -4.7880 ho        1 MGE      0.208000
    113 H4D        -4.3520   -4.4170   -7.2770 h1        1 MGE      0.139000
    114 H2         -3.0980   -1.9810   -6.2430 ho        1 MGE      0.219000
    115 H5D        -1.9940   -4.4720   -6.9210 h1        1 MGE      0.131000
    116 H1          1.4110   -1.0200   -6.2440 h4        1 MGE      0.081500
    117 H6D1       -0.7730   -3.8750   -4.8590 h1        1 MGE      0.177000
    118 H6D2       -0.2870   -1.8440   -6.2200 h4        1 MGE      0.081500
    119 O5D         1.2430   -2.7940   -5.2400 o         1 MGE     -0.299000
    120 C1B        -2.9960   -0.0580   -4.5340 c2        1 MGE      0.305000
@<TRIPOS>BOND
     1    1    2 1   
     2    1   14 1   
     3    1   31 1   
     4    2    3 1   
     5    2   49 1   
     6    2   50 1   
     7    3    4 1   
     8    3   51 1   
     9    3   52 1   
    10    4    5 1   
    11    4   53 1   
    12    4   54 1   
    13    5    6 1   
    14    5   55 1   
    15    5   56 1   
    16    6    7 1   
    17    6   57 1   
    18    6   58 1   
    19    7    8 1   
    20    7   59 1   
    21    7   60 1   
    22    8    9 1   
    23    8   61 1   
    24    8   62 1   
    25    9   10 1   
    26    9   63 1   
    27    9   64 1   
    28   10   11 1   
    29   10   65 1   
    30   10   66 1   
    31   11   12 1   
    32   11   67 1   
    33   11   68 1   
    34   12   13 1   
    35   12   69 1   
    36   12   70 1   
    37   13   71 1   
    38   15   16 1   
    39   15   74 1   
    40   15   75 1   
    41   15  120 1   
    42   16   17 1   
    43   16   76 1   
    44   16   77 1   
    45   17   18 1   
    46   17   78 1   
    47   17   79 1   
    48   18   19 1   
    49   18   80 1   
    50   18   81 1   
    51   19   20 1   
    52   19   82 1   
    53   19   83 1   
    54   20   21 1   
    55   20   84 1   
    56   20   85 1   
    57   21   22 1   
    58   21   86 1   
    59   21   87 1   
    60   22   23 1   
    61   22   88 1   
    62   22   89 1   
    63   23   24 1   
    64   23   90 1   
    65   23   91 1   
    66   24   25 1   
    67   24   92 1   
    68   24   93 1   
    69   25   26 1   
    70   25   94 1   
    71   25   95 1   
    72   26   27 1   
    73   26   96 1   
    74   26   97 1   
    75   27   28 1   
    76   27   98 1   
    77   27   99 1   
    78   28   29 1   
    79   28  100 1   
    80   28  101 1   
    81   29  102 1   
    82   30  120 1   
    83   31   32 1   
    84   32   33 1   
    85   32  105 1   
    86   32  106 1   
    87   33   34 1   
    88   33   35 1   
    89   33  107 1   
    90   34  120 1   
    91   35   36 1   
    92   35   44 1   
    93   35  108 1   
    94   36   37 1   
    95   37   38 1   
    96   37   46 1   
    97   37  109 1   
    98   38   39 1   
    99   38   40 1   
   100   38  111 1   
   101   39  110 1   
   102   40   41 1   
   103   40   42 1   
   104   40  113 1   
   105   41  112 1   
   106   42   43 1   
   107   42   44 1   
   108   42  115 1   
   109   43  114 1   
   110   44   46 1   
   111   44  117 1   
   112   45  116 1   
   113   45  118 1   
   114   45  119 1   
   115   47   48 1   
   116   72   73 1   
   117  103  104 1   
@<TRIPOS>SUBSTRUCTURE
     1 MGE         1 TEMP              0 ****  ****    0 ROOT
