@<TRIPOS>MOLECULE
MGE
  120   120     1     0     0
SMALL
bcc


@<TRIPOS>ATOM
      1 C1A        -3.8370   -1.5320   -1.6990 c         1 MGE      0.641100
      2 C2A        -4.8390   -1.0040   -0.7200 c3        1 MGE     -0.126400
      3 C3A        -5.7450    0.0220   -1.3680 c3        1 MGE     -0.079400
      4 C4A        -6.6610    0.6530   -0.3430 c3        1 MGE     -0.078400
      5 C5A        -7.5830    1.6670   -0.9870 c3        1 MGE     -0.079400
      6 C6A        -8.4980    2.3040    0.0360 c3        1 MGE     -0.079400
      7 C7A        -9.4200    3.3160   -0.6080 c3        1 MGE     -0.079400
      8 C8A       -10.3350    3.9550    0.4150 c3        1 MGE     -0.079400
      9 C9A       -11.2580    4.9670   -0.2300 c3        1 MGE     -0.079400
     10 CAA       -12.1730    5.6050    0.7930 c3        1 MGE     -0.079400
     11 CBA       -13.0960    6.6170    0.1490 c3        1 MGE     -0.079400
     12 CCA       -14.0110    7.2570    1.1710 c3        1 MGE     -0.080400
     13 CDA       -14.9320    8.2660    0.5340 c3        1 MGE     -0.093100
     14 O1A        -3.2430   -0.9380   -2.5980 o         1 MGE     -0.533000
     15 C2B         1.2630   -1.7620   -0.3080 c3        1 MGE     -0.138400
     16 C3B         2.6600   -1.5670   -0.8570 c3        1 MGE     -0.076400
     17 C4B         3.3330   -0.3840   -0.1930 c3        1 MGE     -0.079400
     18 C5B         4.7270   -0.1730   -0.7450 c3        1 MGE     -0.078400
     19 C6B         5.4050    1.0070   -0.0820 c3        1 MGE     -0.079400
     20 C7B         6.7980    1.2200   -0.6320 c3        1 MGE     -0.079400
     21 C8B         7.4770    2.3990    0.0300 c3        1 MGE     -0.079400
     22 C9B         8.8700    2.6120   -0.5200 c3        1 MGE     -0.079400
     23 CAB         9.5490    3.7920    0.1420 c3        1 MGE     -0.079400
     24 CBB        10.9430    4.0050   -0.4080 c3        1 MGE     -0.079400
     25 CCB        11.6210    5.1850    0.2540 c3        1 MGE     -0.078400
     26 CDB        13.0150    5.3970   -0.2960 c3        1 MGE     -0.079400
     27 CEB        13.6930    6.5770    0.3660 c3        1 MGE     -0.079400
     28 CFB        15.0880    6.7910   -0.1840 c3        1 MGE     -0.080400
     29 CGB        15.7670    7.9650    0.4720 c3        1 MGE     -0.092100
     30 O1B         1.1660   -4.0860   -1.1380 o         1 MGE     -0.560000
     31 O1G        -3.5970   -2.8700   -1.5160 os        1 MGE     -0.447900
     32 C1G        -2.5950   -3.5050   -2.3110 c3        1 MGE      0.129400
     33 C2G        -1.4750   -4.0320   -1.4110 c3        1 MGE      0.120100
     34 O2G        -0.7210   -2.8870   -0.9840 os        1 MGE     -0.439900
     35 C3G        -2.0290   -4.7490   -0.1770 c3        1 MGE      0.122400
     36 O3G        -1.1120   -5.8050    0.1140 os        1 MGE     -0.466600
     37 C1D        -1.2140   -6.3260    1.4250 c3        1 MGE      0.297900
     38 C2D        -0.4510   -7.6680    1.4370 c3        1 MGE      0.105100
     39 O2D        -0.9660   -8.5230    0.4430 oh        1 MGE     -0.580800
     40 C3D         1.0600   -7.4610    1.2690 c3        1 MGE      0.079100
     41 O3D         1.4030   -7.1470   -0.0660 oh        1 MGE     -0.600800
     42 C4D         1.5630   -6.3880    2.2470 c3        1 MGE      0.094100
     43 O4D         2.9300   -6.1100    2.0280 oh        1 MGE     -0.588800
     44 C5D         0.7330   -5.1040    2.1110 c3        1 MGE      0.059100
     45 C6D         1.1130   -4.0800    3.1830 c3        1 MGE      0.137400
     46 O6D        -0.6630   -5.3620    2.2970 os        1 MGE     -0.445600
     47 H2A1       -5.4410   -1.8510   -0.2990 hc        1 MGE      0.078700
     48 H2A2       -4.2630   -0.5380    0.1260 hc        1 MGE      0.078700
     49 H3A1       -5.1200    0.8120   -1.8640 hc        1 MGE      0.058200
     50 H3A2       -6.3550   -0.4690   -2.1710 hc        1 MGE      0.058200
     51 H4A1       -7.2700   -0.1430    0.1610 hc        1 MGE      0.041200
     52 H4A2       -6.0490    1.1550    0.4530 hc        1 MGE      0.041200
     53 H5A1       -6.9730    2.4610   -1.4940 hc        1 MGE      0.042700
     54 H5A2       -8.1970    1.1650   -1.7810 hc        1 MGE      0.042700
     55 H6A1       -9.1070    1.5100    0.5430 hc        1 MGE      0.039700
     56 H6A2       -7.8830    2.8060    0.8290 hc        1 MGE      0.039700
     57 H7A1       -8.8120    4.1100   -1.1160 hc        1 MGE      0.040700
     58 H7A2      -10.0350    2.8140   -1.4010 hc        1 MGE      0.040700
     59 H8A1      -10.9440    3.1600    0.9230 hc        1 MGE      0.039700
     60 H8A2       -9.7210    4.4570    1.2080 hc        1 MGE      0.039700
     61 H9A1      -10.6490    5.7610   -0.7370 hc        1 MGE      0.039700
     62 H9A2      -11.8730    4.4640   -1.0220 hc        1 MGE      0.039700
     63 H101      -12.7810    4.8110    1.3010 hc        1 MGE      0.039700
     64 H102      -11.5580    6.1080    1.5860 hc        1 MGE      0.039700
     65 H111      -12.4880    7.4120   -0.3590 hc        1 MGE      0.039700
     66 H112      -13.7110    6.1150   -0.6430 hc        1 MGE      0.039700
     67 H121      -14.6180    6.4610    1.6790 hc        1 MGE      0.038700
     68 H122      -13.3950    7.7580    1.9640 hc        1 MGE      0.038700
     69 H131      -14.3460    9.0800    0.0440 hc        1 MGE      0.032700
     70 H132      -15.5730    7.7800   -0.2410 hc        1 MGE      0.032700
     71 H133      -15.5980    8.7250    1.3040 hc        1 MGE      0.032700
     72 H2B1        1.2880   -1.8730    0.8150 hc        1 MGE      0.093700
     73 H2B2        0.6150   -0.8790   -0.5510 hc        1 MGE      0.093700
     74 H3B1        2.6100   -1.4020   -1.9650 hc        1 MGE      0.055200
     75 H3B2        3.2630   -2.4980   -0.6860 hc        1 MGE      0.055200
     76 H4B1        3.3880   -0.5540    0.9150 hc        1 MGE      0.043700
     77 H4B2        2.7190    0.5400   -0.3570 hc        1 MGE      0.043700
     78 H5B1        4.6720   -0.0020   -1.8520 hc        1 MGE      0.041700
     79 H5B2        5.3400   -1.0990   -0.5830 hc        1 MGE      0.041700
     80 H6B1        5.4600    0.8360    1.0260 hc        1 MGE      0.040200
     81 H6B2        4.7910    1.9330   -0.2420 hc        1 MGE      0.040200
     82 H7B1        6.7430    1.3910   -1.7400 hc        1 MGE      0.040200
     83 H7B2        7.4120    0.2940   -0.4710 hc        1 MGE      0.040200
     84 H8B1        7.5320    2.2280    1.1380 hc        1 MGE      0.039700
     85 H8B2        6.8630    3.3250   -0.1310 hc        1 MGE      0.039700
     86 H9B1        8.8150    2.7830   -1.6280 hc        1 MGE      0.039700
     87 H9B2        9.4840    1.6870   -0.3590 hc        1 MGE      0.039700
     88 H201        9.6040    3.6210    1.2500 hc        1 MGE      0.039700
     89 H202        8.9350    4.7180   -0.0190 hc        1 MGE      0.039700
     90 H211       10.8880    4.1760   -1.5160 hc        1 MGE      0.039700
     91 H212       11.5560    3.0790   -0.2470 hc        1 MGE      0.039700
     92 H221       11.6760    5.0140    1.3620 hc        1 MGE      0.039700
     93 H222       11.0080    6.1100    0.0930 hc        1 MGE      0.039700
     94 H231       12.9600    5.5680   -1.4040 hc        1 MGE      0.039700
     95 H232       13.6280    4.4720   -0.1350 hc        1 MGE      0.039700
     96 H241       13.7480    6.4070    1.4730 hc        1 MGE      0.039700
     97 H242       13.0800    7.5030    0.2040 hc        1 MGE      0.039700
     98 H251       15.0300    6.9600   -1.2920 hc        1 MGE      0.038700
     99 H252       15.6990    5.8640   -0.0230 hc        1 MGE      0.038700
    100 H261       15.1850    8.9030    0.3020 hc        1 MGE      0.032700
    101 H262       15.8550    7.8040    1.5740 hc        1 MGE      0.032700
    102 H263       16.7920    8.1050    0.0530 hc        1 MGE      0.032700
    103 H1G1       -2.1750   -2.8070   -3.0820 h1        1 MGE      0.081200
    104 H1G2       -3.1140   -4.3720   -2.8000 h1        1 MGE      0.081200
    105 H2G        -0.8200   -4.7310   -2.0050 h1        1 MGE      0.101700
    106 H3G1       -2.1070   -4.0450    0.6910 h1        1 MGE      0.059200
    107 H3G2       -3.0330   -5.1960   -0.4020 h1        1 MGE      0.059200
    108 H1D        -2.2820   -6.4450    1.7580 h2        1 MGE      0.090700
    109 H2D        -0.6620   -8.1840    2.4140 h1        1 MGE      0.093700
    110 H4         -0.6630   -8.1810   -0.4120 ho        1 MGE      0.426000
    111 H3D         1.5990   -8.4330    1.4600 h1        1 MGE      0.100700
    112 H3          0.9740   -6.3100   -0.3090 ho        1 MGE      0.434000
    113 H4D         1.5070   -6.7740    3.3030 h1        1 MGE      0.087700
    114 H2          3.0570   -6.0110    1.0730 ho        1 MGE      0.422000
    115 H5D         0.8850   -4.6570    1.0870 h1        1 MGE      0.071700
    116 H1         -0.3610   -2.8840    2.8420 ho        1 MGE      0.410000
    117 H6D1        0.7420   -4.4140    4.1870 h1        1 MGE      0.066700
    118 H6D2        2.2300   -3.9610    3.1980 h1        1 MGE      0.066700
    119 O5D         0.6010   -2.8030    2.8650 oh        1 MGE     -0.606800
    120 C1B         0.6370   -3.0090   -0.8490 c         1 MGE      0.647100
@<TRIPOS>BOND
     1    1    2 1   
     2    1   14 2   
     3    1   31 1   
     4    2    3 1   
     5    2   47 1   
     6    2   48 1   
     7    3    4 1   
     8    3   49 1   
     9    3   50 1   
    10    4    5 1   
    11    4   51 1   
    12    4   52 1   
    13    5    6 1   
    14    5   53 1   
    15    5   54 1   
    16    6    7 1   
    17    6   55 1   
    18    6   56 1   
    19    7    8 1   
    20    7   57 1   
    21    7   58 1   
    22    8    9 1   
    23    8   59 1   
    24    8   60 1   
    25    9   10 1   
    26    9   61 1   
    27    9   62 1   
    28   10   11 1   
    29   10   63 1   
    30   10   64 1   
    31   11   12 1   
    32   11   65 1   
    33   11   66 1   
    34   12   13 1   
    35   12   67 1   
    36   12   68 1   
    37   13   69 1   
    38   13   70 1   
    39   13   71 1   
    40   15   16 1   
    41   15   72 1   
    42   15   73 1   
    43   15  120 1   
    44   16   17 1   
    45   16   74 1   
    46   16   75 1   
    47   17   18 1   
    48   17   76 1   
    49   17   77 1   
    50   18   19 1   
    51   18   78 1   
    52   18   79 1   
    53   19   20 1   
    54   19   80 1   
    55   19   81 1   
    56   20   21 1   
    57   20   82 1   
    58   20   83 1   
    59   21   22 1   
    60   21   84 1   
    61   21   85 1   
    62   22   23 1   
    63   22   86 1   
    64   22   87 1   
    65   23   24 1   
    66   23   88 1   
    67   23   89 1   
    68   24   25 1   
    69   24   90 1   
    70   24   91 1   
    71   25   26 1   
    72   25   92 1   
    73   25   93 1   
    74   26   27 1   
    75   26   94 1   
    76   26   95 1   
    77   27   28 1   
    78   27   96 1   
    79   27   97 1   
    80   28   29 1   
    81   28   98 1   
    82   28   99 1   
    83   29  100 1   
    84   29  101 1   
    85   29  102 1   
    86   30  120 2   
    87   31   32 1   
    88   32   33 1   
    89   32  103 1   
    90   32  104 1   
    91   33   34 1   
    92   33   35 1   
    93   33  105 1   
    94   34  120 1   
    95   35   36 1   
    96   35  106 1   
    97   35  107 1   
    98   36   37 1   
    99   37   38 1   
   100   37   46 1   
   101   37  108 1   
   102   38   39 1   
   103   38   40 1   
   104   38  109 1   
   105   39  110 1   
   106   40   41 1   
   107   40   42 1   
   108   40  111 1   
   109   41  112 1   
   110   42   43 1   
   111   42   44 1   
   112   42  113 1   
   113   43  114 1   
   114   44   45 1   
   115   44   46 1   
   116   44  115 1   
   117   45  117 1   
   118   45  118 1   
   119   45  119 1   
   120  116  119 1   
@<TRIPOS>SUBSTRUCTURE
     1 MGE         1 TEMP              0 ****  ****    0 ROOT
