@<TRIPOS>MOLECULE
MGG
   33    32     1     0     0
SMALL
bcc


@<TRIPOS>ATOM
      1 N           1.2690    2.1690   -2.0840 n         1 MGG     -0.517900
      2 CA         -0.1140    2.0920   -1.6790 c3        1 MGG     -0.040300
      3 CB         -0.3810    2.0130   -0.1750 c3        1 MGG     -0.077400
      4 CG          0.3100    0.8590    0.5210 c3        1 MGG     -0.108400
      5 CD          0.7410    1.2310    1.9400 c3        1 MGG     -0.002700
      6 NE          1.7850    2.2320    2.0300 nh        1 MGG     -0.367100
      7 CZ          3.1140    1.9380    1.6910 cz        1 MGG      0.478300
      8 NH1         4.0070    2.9870    1.5800 nh        1 MGG     -0.449700
      9 NH2         3.5970    0.6330    1.7390 nh        1 MGG     -0.449700
     10 C3          2.2550    2.9170   -1.5170 c         1 MGG      0.676100
     11 O3          2.0600    3.6250   -0.4860 o         1 MGG     -0.762100
     12 C2          3.6270    2.9010   -2.1720 c3        1 MGG     -0.255400
     13 C1          4.6820    2.4340   -1.1730 c         1 MGG      0.912600
     14 O12         4.6330    1.2440   -0.7250 o         1 MGG     -0.867300
     15 O1          5.5530    3.2530   -0.7560 o         1 MGG     -0.867300
     16 C          -0.8750    0.9030   -2.3880 c         1 MGG      0.912600
     17 O          -2.0820    0.7570   -2.0610 o         1 MGG     -0.824300
     18 OXT        -0.2530    0.1990   -3.2280 o         1 MGG     -0.824300
     19 H           1.5070    1.5220   -2.8130 hn        1 MGG      0.344500
     20 HA         -0.6200    3.0390   -2.0400 h1        1 MGG      0.041700
     21 HB2        -1.4940    1.8950   -0.0640 hc        1 MGG      0.050200
     22 HB3        -0.0950    2.9930    0.2890 hc        1 MGG      0.050200
     23 HG2         1.1980    0.5070   -0.0660 hc        1 MGG      0.067200
     24 HG3        -0.3980   -0.0100    0.5880 hc        1 MGG      0.067200
     25 HD2        -0.1440    1.6750    2.4850 h1        1 MGG      0.055700
     26 HD3         1.0480    0.3080    2.5060 h1        1 MGG      0.055700
     27 HE          1.4810    3.1340    1.6900 hn        1 MGG      0.309700
     28 HH11        4.9220    2.7770    1.1930 hn        1 MGG      0.314200
     29 HH12        3.6320    3.8520    1.2320 hn        1 MGG      0.314200
     30 HH21        2.9200   -0.0900    1.6260 hn        1 MGG      0.314200
     31 HH22        4.4460    0.4800    1.2080 hn        1 MGG      0.314200
     32 H21         3.6640    2.2330   -3.0680 hc        1 MGG      0.067200
     33 H22         3.8590    3.9490   -2.4910 hc        1 MGG      0.067200
@<TRIPOS>BOND
     1    1    2 1   
     2    1   10 1   
     3    1   19 1   
     4    2    3 1   
     5    2   16 1   
     6    2   20 1   
     7    3    4 1   
     8    3   21 1   
     9    3   22 1   
    10    4    5 1   
    11    4   23 1   
    12    4   24 1   
    13    5    6 1   
    14    5   25 1   
    15    5   26 1   
    16    6    7 2   
    17    6   27 1   
    18    7    8 1   
    19    7    9 1   
    20    8   28 1   
    21    8   29 1   
    22    9   30 1   
    23    9   31 1   
    24   10   11 2   
    25   10   12 1   
    26   12   13 1   
    27   12   32 1   
    28   12   33 1   
    29   13   14 1   
    30   13   15 1   
    31   16   17 1   
    32   16   18 1   
@<TRIPOS>SUBSTRUCTURE
     1 MGG         1 TEMP              0 ****  ****    0 ROOT
