@<TRIPOS>MOLECULE
MGH
   55    56     1     0     0
SMALL
bcc


@<TRIPOS>ATOM
      1 C01         0.8310   -0.8920   -1.4740 c3        1 MGH      0.122700
      2 O02         1.9430   -0.3940   -0.7070 os        1 MGH     -0.404900
      3 C03         2.3420   -1.1500    0.3400 c         1 MGH      0.612100
      4 O04         1.7680   -2.2050    0.6200 o         1 MGH     -0.529000
      5 C05         3.5520   -0.5730    1.0670 c3        1 MGH      0.080500
      6 C06         3.2850    0.8850    1.4660 c3        1 MGH     -0.100700
      7 C07         4.4970    1.5620    1.9630 cc        1 MGH      0.240600
      8 C08         4.8090    2.9280    1.7960 cd        1 MGH     -0.191600
      9 N09         6.0220    3.1310    2.4460 na        1 MGH     -0.297900
     10 C10         6.4150    1.9010    2.9810 cd        1 MGH      0.434400
     11 N11         5.5120    0.9360    2.7050 nc        1 MGH     -0.757000
     12 N12         3.9010   -1.4360    2.2440 n4        1 MGH     -0.662800
     13 C13         5.3450   -1.8580    2.3200 c         1 MGH      0.563100
     14 O14         6.0110   -1.8650    1.2990 o         1 MGH     -0.421100
     15 C15         5.8360   -2.2200    3.7250 c3        1 MGH      0.022000
     16 N16         5.2130   -3.4020    4.2610 n         1 MGH     -0.476800
     17 C17         6.0540   -4.5650    4.3970 c3        1 MGH     -0.015000
     18 C18         7.2210   -4.4020    5.3600 c         1 MGH      0.594100
     19 O19         7.7220   -3.3380    5.7200 o         1 MGH     -0.477000
     20 O20         7.8180   -5.5120    5.8660 oh        1 MGH     -0.543100
     21 C21         4.0360   -3.2490    5.0240 c         1 MGH      0.676100
     22 O22         3.3730   -2.2100    4.8320 o         1 MGH     -0.627100
     23 C23         3.5970   -4.3400    5.9680 c3        1 MGH     -0.143400
     24 C24         2.3970   -3.8980    6.7900 c3        1 MGH     -0.024100
     25 C25         1.9870   -4.9760    7.7310 ca        1 MGH     -0.110300
     26 C26         0.8970   -5.8010    7.4310 ca        1 MGH     -0.124000
     27 C27         0.5090   -6.7990    8.3230 ca        1 MGH     -0.122500
     28 C28         1.2040   -6.9800    9.5190 ca        1 MGH     -0.115000
     29 C29         2.2890   -6.1570    9.8230 ca        1 MGH     -0.122500
     30 C30         2.6800   -5.1580    8.9330 ca        1 MGH     -0.124000
     31 H101       -0.0690   -0.9730   -0.8200 h1        1 MGH      0.073700
     32 H201        1.0920   -1.8870   -1.9090 h1        1 MGH      0.073700
     33 H301        0.7060   -0.1110   -2.2650 h1        1 MGH      0.073700
     34 H05         4.4240   -0.5950    0.3360 hx        1 MGH      0.158700
     35 H106        2.9100    1.4160    0.5460 hc        1 MGH      0.096200
     36 H206        2.4700    0.9360    2.2410 hc        1 MGH      0.096200
     37 H08         4.2720    3.7270    1.2840 h4        1 MGH      0.199000
     38 HN09        6.5120    3.9870    2.5140 hn        1 MGH      0.325700
     39 H10         7.3450    1.7670    3.5480 h5        1 MGH      0.081100
     40 HN12        3.6710   -0.9360    3.1230 hn        1 MGH      0.487300
     41 H115        6.9570   -2.3610    3.6440 h1        1 MGH      0.133700
     42 H215        5.6460   -1.3250    4.3940 h1        1 MGH      0.133700
     43 H117        5.4270   -5.4470    4.7160 h1        1 MGH      0.096200
     44 H217        6.4980   -4.8050    3.3850 h1        1 MGH      0.096200
     45 H123        3.3290   -5.2540    5.3720 hc        1 MGH      0.084700
     46 H223        4.4440   -4.6040    6.6590 hc        1 MGH      0.084700
     47 H124        2.6590   -2.9670    7.3610 hc        1 MGH      0.068200
     48 H224        1.5510   -3.6340    6.1000 hc        1 MGH      0.068200
     49 H26         0.3390   -5.6560    6.4950 ha        1 MGH      0.131000
     50 H27        -0.3520   -7.4420    8.0850 ha        1 MGH      0.142000
     51 H28         0.8940   -7.7660   10.2230 ha        1 MGH      0.144000
     52 H29         2.8350   -6.2930   10.7690 ha        1 MGH      0.142000
     53 H30         3.5290   -4.5040    9.1810 ha        1 MGH      0.131000
     54 H122        3.3200   -2.2930    2.2280 hn        1 MGH      0.487300
     55 H161        7.3950   -6.3150    5.5260 ho        1 MGH      0.436000
@<TRIPOS>BOND
     1    1    2 1   
     2    1   31 1   
     3    1   32 1   
     4    1   33 1   
     5    2    3 1   
     6    3    4 2   
     7    3    5 1   
     8    5    6 1   
     9    5   12 1   
    10    5   34 1   
    11    6    7 1   
    12    6   35 1   
    13    6   36 1   
    14    7    8 2   
    15    7   11 1   
    16    8    9 1   
    17    8   37 1   
    18    9   10 1   
    19    9   38 1   
    20   10   11 2   
    21   10   39 1   
    22   12   13 1   
    23   12   40 1   
    24   12   54 1   
    25   13   14 2   
    26   13   15 1   
    27   15   16 1   
    28   15   41 1   
    29   15   42 1   
    30   16   17 1   
    31   16   21 1   
    32   17   18 1   
    33   17   43 1   
    34   17   44 1   
    35   18   19 2   
    36   18   20 1   
    37   20   55 1   
    38   21   22 2   
    39   21   23 1   
    40   23   24 1   
    41   23   45 1   
    42   23   46 1   
    43   24   25 1   
    44   24   47 1   
    45   24   48 1   
    46   25   26 ar  
    47   25   30 ar  
    48   26   27 ar  
    49   26   49 1   
    50   27   28 ar  
    51   27   50 1   
    52   28   29 ar  
    53   28   51 1   
    54   29   30 ar  
    55   29   52 1   
    56   30   53 1   
@<TRIPOS>SUBSTRUCTURE
     1 MGH         1 TEMP              0 ****  ****    0 ROOT
