@<TRIPOS>MOLECULE
MGH
   55    56     1     0     0
SMALL
bcc


@<TRIPOS>ATOM
      1 C01         0.8780   -1.0090   -1.5290 c3        1 MGH      0.122700
      2 O02         1.9640   -0.4770   -0.7490 os        1 MGH     -0.404900
      3 C03         2.3660   -1.2140    0.3090 c         1 MGH      0.612100
      4 O04         1.8160   -2.2820    0.5890 o         1 MGH     -0.529000
      5 C05         3.5490   -0.6000    1.0500 c3        1 MGH      0.080500
      6 C06         3.2390    0.8530    1.4350 c3        1 MGH     -0.100700
      7 C07         4.4250    1.5650    1.9450 cc        1 MGH      0.240600
      8 C08         4.7040    2.9370    1.7720 cd        1 MGH     -0.191600
      9 N09         5.9010    3.1760    2.4380 na        1 MGH     -0.297900
     10 C10         6.3170    1.9610    2.9890 cd        1 MGH      0.434400
     11 N11         5.4440    0.9720    2.7060 nc        1 MGH     -0.757000
     12 N12         3.9020   -1.4460    2.2390 ny        1 MGH     -0.662800
     13 C13         5.3560   -1.8290    2.3410 c         1 MGH      0.563100
     14 O14         6.0370   -1.8260    1.3300 o         1 MGH     -0.421100
     15 C15         5.8350   -2.1680    3.7550 c3        1 MGH      0.022000
     16 N16         5.2340   -3.3620    4.2900 n         1 MGH     -0.476800
     17 C17         6.1030   -4.5020    4.4480 c3        1 MGH     -0.015000
     18 C18         7.2510   -4.3010    5.4270 c         1 MGH      0.594100
     19 O19         7.7180   -3.2210    5.7870 o         1 MGH     -0.477000
     20 O20         7.8690   -5.3910    5.9510 oh        1 MGH     -0.543100
     21 C21         4.0430   -3.2350    5.0340 c         1 MGH      0.676100
     22 O22         3.3550   -2.2150    4.8250 o         1 MGH     -0.627100
     23 C23         3.6180   -4.3300    5.9790 c3        1 MGH     -0.143400
     24 C24         2.3930   -3.9150    6.7790 c3        1 MGH     -0.024100
     25 C25         1.9970   -4.9960    7.7210 ca        1 MGH     -0.110300
     26 C26         0.9350   -5.8520    7.4110 ca        1 MGH     -0.124000
     27 C27         0.5580   -6.8540    8.3050 ca        1 MGH     -0.122500
     28 C28         1.2390   -7.0080    9.5120 ca        1 MGH     -0.115000
     29 C29         2.2980   -6.1550    9.8270 ca        1 MGH     -0.122500
     30 C30         2.6760   -5.1520    8.9360 ca        1 MGH     -0.124000
     31 H101       -0.0300   -1.1080   -0.8880 h1        1 MGH      0.073700
     32 H201        1.1710   -2.0000   -1.9520 h1        1 MGH      0.073700
     33 H301        0.7440   -0.2370   -2.3280 h1        1 MGH      0.073700
     34 H05         4.4330   -0.6050    0.3330 hx        1 MGH      0.158700
     35 H106        2.8640    1.3670    0.5040 hc        1 MGH      0.096200
     36 H206        2.4110    0.8880    2.1970 hc        1 MGH      0.096200
     37 H08         4.1540    3.7180    1.2460 h4        1 MGH      0.199000
     38 HN09        6.3670    4.0450    2.5070 hn        1 MGH      0.325700
     39 H10         7.2420    1.8560    3.5710 h5        1 MGH      0.081100
     40 HN12        3.3450   -2.3180    2.2210 hn        1 MGH      0.487300
     41 H115        5.6110   -1.2730    4.4140 h1        1 MGH      0.133700
     42 H215        6.9600   -2.2800    3.6930 h1        1 MGH      0.133700
     43 H117        5.4950   -5.3970    4.7640 h1        1 MGH      0.096200
     44 H217        6.5700   -4.7370    3.4450 h1        1 MGH      0.096200
     45 H123        3.3830   -5.2550    5.3860 hc        1 MGH      0.084700
     46 H223        4.4600   -4.5670    6.6850 hc        1 MGH      0.084700
     47 H124        2.6220   -2.9730    7.3470 hc        1 MGH      0.068200
     48 H224        1.5520   -3.6780    6.0740 hc        1 MGH      0.068200
     49 H26         0.3870   -5.7290    6.4650 ha        1 MGH      0.131000
     50 H27        -0.2820   -7.5210    8.0570 ha        1 MGH      0.142000
     51 H28         0.9390   -7.7970   10.2170 ha        1 MGH      0.144000
     52 H29         2.8320   -6.2700   10.7820 ha        1 MGH      0.142000
     53 H30         3.5030   -4.4740    9.1920 ha        1 MGH      0.131000
     54 H122        3.6470   -0.9460    3.1110 hn        1 MGH      0.487300
     55 H161        7.4730   -6.2070    5.6110 ho        1 MGH      0.436000
@<TRIPOS>BOND
     1    1    2 1   
     2    1   31 1   
     3    1   32 1   
     4    1   33 1   
     5    2    3 1   
     6    3    4 2   
     7    3    5 1   
     8    5    6 1   
     9    5   12 1   
    10    5   34 1   
    11    6    7 1   
    12    6   35 1   
    13    6   36 1   
    14    7    8 2   
    15    7   11 1   
    16    8    9 1   
    17    8   37 1   
    18    9   10 1   
    19    9   38 1   
    20   10   11 2   
    21   10   39 1   
    22   12   13 1   
    23   12   40 1   
    24   12   54 1   
    25   13   14 2   
    26   13   15 1   
    27   15   16 1   
    28   15   41 1   
    29   15   42 1   
    30   16   17 1   
    31   16   21 1   
    32   17   18 1   
    33   17   43 1   
    34   17   44 1   
    35   18   19 2   
    36   18   20 1   
    37   20   55 1   
    38   21   22 2   
    39   21   23 1   
    40   23   24 1   
    41   23   45 1   
    42   23   46 1   
    43   24   25 1   
    44   24   47 1   
    45   24   48 1   
    46   25   26 ar  
    47   25   30 ar  
    48   26   27 ar  
    49   26   49 1   
    50   27   28 ar  
    51   27   50 1   
    52   28   29 ar  
    53   28   51 1   
    54   29   30 ar  
    55   29   52 1   
    56   30   53 1   
@<TRIPOS>SUBSTRUCTURE
     1 MGH         1 TEMP              0 ****  ****    0 ROOT
