@<TRIPOS>MOLECULE
MGH
   53    54     1     0     0
SMALL
bcc


@<TRIPOS>ATOM
      1 C01        -6.2180    4.4530    0.0100 c3        1 MGH      0.126700
      2 O02        -5.4310    3.3340    0.4120 os        1 MGH     -0.436900
      3 C03        -4.9600    2.5220   -0.5850 c         1 MGH      0.625100
      4 O04        -5.2660    2.7900   -1.7460 o         1 MGH     -0.544000
      5 C05        -4.1270    1.3640   -0.0390 c3        1 MGH      0.056700
      6 C06        -5.0180    0.1020   -0.1260 c3        1 MGH     -0.107700
      7 C07        -4.2310   -1.1340    0.0470 cc        1 MGH      0.244600
      8 C08        -3.1240   -1.3120    0.9140 cd        1 MGH     -0.255600
      9 N09        -2.6490   -2.5960    0.6950 na        1 MGH     -0.281900
     10 C10        -3.4630   -3.1570   -0.2920 cd        1 MGH      0.374400
     11 N11        -4.4380   -2.3060   -0.6900 nc        1 MGH     -0.689000
     12 N12        -2.8770    1.2730   -0.7480 n         1 MGH     -0.550900
     13 C13        -1.6710    1.1950   -0.0440 c         1 MGH      0.641100
     14 O14        -1.6030    1.6050    1.1290 o         1 MGH     -0.602100
     15 C15        -0.4830    0.6100   -0.8290 c3        1 MGH      0.031000
     16 N16         0.6980    0.3840   -0.0450 n         1 MGH     -0.437800
     17 C17         0.6230   -0.6200    0.9930 c3        1 MGH     -0.035000
     18 C18         1.0440   -2.0620    0.5950 c         1 MGH      0.908600
     19 O19         0.1950   -2.9800    0.7970 o         1 MGH     -0.840800
     20 O20         2.2060   -2.2660    0.1560 o         1 MGH     -0.840800
     21 C21         1.8760    1.0410   -0.3700 c         1 MGH      0.679100
     22 O22         1.8770    1.9240   -1.2600 o         1 MGH     -0.662100
     23 C23         3.1460    0.6720    0.3700 c3        1 MGH     -0.158400
     24 C24         4.3600    0.9320   -0.5030 c3        1 MGH     -0.024100
     25 C25         5.5590    0.1870   -0.0280 ca        1 MGH     -0.074300
     26 C26         6.7510    0.8660    0.2450 ca        1 MGH     -0.127500
     27 C27         7.8830    0.1650    0.6590 ca        1 MGH     -0.139500
     28 C28         7.8330   -1.2210    0.8030 ca        1 MGH     -0.147000
     29 C29         6.6460   -1.9030    0.5340 ca        1 MGH     -0.139500
     30 C30         5.5110   -1.2070    0.1190 ca        1 MGH     -0.127500
     31 H101       -7.1410    4.1030   -0.5120 h1        1 MGH      0.045033
     32 H201       -6.4620    4.9680    0.9720 h1        1 MGH      0.045033
     33 H301       -5.6250    5.1140   -0.6670 h1        1 MGH      0.045033
     34 H05        -3.9050    1.5810    1.0530 h1        1 MGH      0.115700
     35 H106       -5.7960    0.1800    0.6810 hc        1 MGH      0.063200
     36 H206       -5.5510    0.0890   -1.1150 hc        1 MGH      0.063200
     37 H08        -2.6710   -0.6280    1.6330 h4        1 MGH      0.190000
     38 HN09       -1.7510   -2.9380    0.9940 hn        1 MGH      0.370700
     39 H10        -3.3080   -4.1700   -0.6740 h5        1 MGH      0.057100
     40 HN12       -2.9250    0.8170   -1.6310 hn        1 MGH      0.312500
     41 H115       -0.8180   -0.3780   -1.2630 h1        1 MGH      0.087200
     42 H215       -0.2470    1.3240   -1.6720 h1        1 MGH      0.087200
     43 H117        1.2740   -0.3010    1.8540 h1        1 MGH      0.042700
     44 H217       -0.4410   -0.6530    1.3650 h1        1 MGH      0.042700
     45 H123        3.1940    1.2870    1.3060 hc        1 MGH      0.093200
     46 H223        3.1240   -0.4180    0.6600 hc        1 MGH      0.093200
     47 H124        4.1300    0.6060   -1.5550 hc        1 MGH      0.056200
     48 H224        4.5650    2.0340   -0.5420 hc        1 MGH      0.056200
     49 H26         6.7950    1.9590    0.1340 ha        1 MGH      0.157000
     50 H27         8.8150    0.7070    0.8720 ha        1 MGH      0.121500
     51 H28         8.7240   -1.7730    1.1300 ha        1 MGH      0.115000
     52 H29         6.5990   -2.9950    0.6510 ha        1 MGH      0.121500
     53 H30         4.5680   -1.7520   -0.0840 ha        1 MGH      0.157000
@<TRIPOS>BOND
     1    1    2 1   
     2    1   31 1   
     3    1   32 1   
     4    1   33 1   
     5    2    3 1   
     6    3    4 2   
     7    3    5 1   
     8    5    6 1   
     9    5   12 1   
    10    5   34 1   
    11    6    7 1   
    12    6   35 1   
    13    6   36 1   
    14    7    8 2   
    15    7   11 1   
    16    8    9 1   
    17    8   37 1   
    18    9   10 1   
    19    9   38 1   
    20   10   11 2   
    21   10   39 1   
    22   12   13 1   
    23   12   40 1   
    24   13   14 2   
    25   13   15 1   
    26   15   16 1   
    27   15   41 1   
    28   15   42 1   
    29   16   17 1   
    30   16   21 1   
    31   17   18 1   
    32   17   43 1   
    33   17   44 1   
    34   18   19 1   
    35   18   20 1   
    36   21   22 2   
    37   21   23 1   
    38   23   24 1   
    39   23   45 1   
    40   23   46 1   
    41   24   25 1   
    42   24   47 1   
    43   24   48 1   
    44   25   26 ar  
    45   25   30 ar  
    46   26   27 ar  
    47   26   49 1   
    48   27   28 ar  
    49   27   50 1   
    50   28   29 ar  
    51   28   51 1   
    52   29   30 ar  
    53   29   52 1   
    54   30   53 1   
@<TRIPOS>SUBSTRUCTURE
     1 MGH         1 TEMP              0 ****  ****    0 ROOT
