@<TRIPOS>MOLECULE
MGH
   53    49     1     0     0
SMALL
bcc


@<TRIPOS>ATOM
      1 C01        -4.1200    1.9340   -4.0140 c3        1 MGH     -0.063000
      2 O02        -2.6940    2.0410   -4.1120 os        1 MGH     -0.275000
      3 C03        -2.0240    2.0870   -2.8390 c2        1 MGH      0.296000
      4 O04        -2.6480    1.8370   -1.8040 o         1 MGH     -0.355000
      5 C05        -0.5440    2.4470   -2.7690 c3        1 MGH      0.030000
      6 C06        -0.3570    3.9190   -3.1460 c3        1 MGH     -0.092000
      7 C07         0.2540    4.0170   -4.5550 c2        1 MGH     -0.178000
      8 C08         1.1970    4.9500   -4.9740 c1        1 MGH     -0.166000
      9 N09         1.4750    4.7060   -6.2710 n2        1 MGH     -0.168000
     10 C10         0.7200    3.6350   -6.6720 c1        1 MGH     -0.114000
     11 N11        -0.0320    3.2170   -5.6000 n2        1 MGH     -0.163000
     12 N12        -0.0670    2.2290   -1.4560 n         1 MGH     -0.360000
     13 C13         0.3420    0.8880   -1.0420 c2        1 MGH      0.285000
     14 O14         0.2560   -0.0510   -1.8300 o         1 MGH     -0.363000
     15 C15         0.8470    0.6530    0.3630 c3        1 MGH     -0.035000
     16 N16         1.0420   -0.7620    0.5770 n         1 MGH     -0.296000
     17 C17         2.3040   -1.3900    0.1870 c3        1 MGH     -0.101000
     18 C18         3.3370   -1.1820    1.2860 c2        1 MGH      0.328000
     19 O19         4.3760   -1.8870    1.3100 o         1 MGH     -0.575500
     20 O20         3.1130   -0.3620    2.2120 o         1 MGH     -0.575500
     21 C21         0.0650   -1.5150    1.3130 c2        1 MGH      0.323000
     22 O22        -1.1160   -1.3570    1.0870 o         1 MGH     -0.423000
     23 C23         0.5110   -2.4960    2.3980 c3        1 MGH     -0.187000
     24 C24        -0.7440   -3.1160    3.0790 c3        1 MGH     -0.110000
     25 C25        -0.3860   -3.5650    4.5200 c2        1 MGH     -0.067000
     26 C26         0.0710   -4.8660    4.7470 c2        1 MGH     -0.138000
     27 C27         0.2720   -5.3190    6.0530 c1        1 MGH     -0.146000
     28 C28         0.0160   -4.4740    7.1330 c1        1 MGH     -0.147000
     29 C29        -0.4410   -3.1750    6.9100 c1        1 MGH     -0.133000
     30 C30        -0.6430   -2.7180    5.6010 c2        1 MGH     -0.117000
     31 H101       -4.3510    1.2060   -3.4110 h1        1 MGH      0.084333
     32 H201       -4.4990    1.7540   -4.9090 h1        1 MGH      0.084333
     33 H301       -4.4870    2.7740   -3.6680 h1        1 MGH      0.084333
     34 H05        -0.0430    1.8850   -3.3930 h1        1 MGH      0.155000
     35 H106       -1.2180    4.3660   -3.1360 hc        1 MGH      0.102500
     36 H206        0.2350    4.3430   -2.5070 hc        1 MGH      0.102500
     37 H08         1.5300    5.7160   -4.4460 DU        1 MGH      0.208500
     38 HN09        2.0590    5.1700   -6.7880 DU        1 MGH      0.208500
     39 H10         0.7370    3.2220   -7.5550 DU        1 MGH      0.208500
     40 HN12        0.0030    2.9420   -0.8610 hn        1 MGH      0.226000
     41 H115        1.7020    1.1240    0.4860 h1        1 MGH      0.126500
     42 H215        0.1870    0.9940    1.0100 h1        1 MGH      0.126500
     43 H117        2.1610   -2.3660    0.0480 h1        1 MGH      0.082000
     44 H217        2.6280   -0.9820   -0.6520 h1        1 MGH      0.082000
     45 H123        1.0440   -2.0240    3.0640 hc        1 MGH      0.132500
     46 H223        1.0460   -3.2040    1.9950 hc        1 MGH      0.132500
     47 H124       -1.4500   -2.4580    3.1120 hc        1 MGH      0.095500
     48 H224       -1.0490   -3.9050    2.5560 hc        1 MGH      0.095500
     49 H26         0.2510   -5.4640    3.9860 ha        1 MGH      0.122000
     50 H27         0.5910   -6.2270    6.2100 ha        1 MGH      0.114000
     51 H28         0.1250   -4.8050    8.0470 ha        1 MGH      0.115000
     52 H29        -0.6210   -2.5790    7.6740 DU        1 MGH      0.208500
     53 H30        -0.9640   -1.8050    5.4440 ha        1 MGH      0.192000
@<TRIPOS>BOND
     1    1    2 1   
     2    1   31 1   
     3    1   32 1   
     4    1   33 1   
     5    2    3 1   
     6    3    4 1   
     7    3    5 1   
     8    5    6 1   
     9    5   12 1   
    10    5   34 1   
    11    6    7 1   
    12    6   35 1   
    13    6   36 1   
    14    7    8 1   
    15    7   11 1   
    16    8    9 1   
    17    9   10 1   
    18   10   11 1   
    19   12   13 1   
    20   12   40 1   
    21   13   14 1   
    22   13   15 1   
    23   15   16 1   
    24   15   41 1   
    25   15   42 1   
    26   16   17 1   
    27   16   21 1   
    28   17   18 1   
    29   17   43 1   
    30   17   44 1   
    31   18   19 1   
    32   18   20 1   
    33   21   22 1   
    34   21   23 1   
    35   23   24 1   
    36   23   45 1   
    37   23   46 1   
    38   24   25 1   
    39   24   47 1   
    40   24   48 1   
    41   25   26 1   
    42   25   30 1   
    43   26   27 1   
    44   26   49 1   
    45   27   50 1   
    46   28   29 1   
    47   28   51 1   
    48   29   30 1   
    49   30   53 1   
@<TRIPOS>SUBSTRUCTURE
     1 MGH         1 TEMP              0 ****  ****    0 ROOT
