@<TRIPOS>MOLECULE
MGI
   38    39     1     0     0
SMALL
bcc


@<TRIPOS>ATOM
      1 O2          0.1650    1.4080   -0.0590 o         1 MGI     -0.561000
      2 C1          0.8080    0.3550   -0.1470 c         1 MGI      0.661700
      3 O1          0.4660   -0.6610    0.7060 os        1 MGI     -0.413900
      4 C9         -0.6350   -0.4110    1.5800 c3        1 MGI      0.126700
      5 C2          1.9250    0.0400   -1.0420 ca        1 MGI     -0.201600
      6 C7          2.2090   -1.2930   -1.4120 ca        1 MGI      0.215100
      7 O3          1.3810   -2.2710   -0.9260 oh        1 MGI     -0.467100
      8 C6          3.2810   -1.6050   -2.2580 ca        1 MGI     -0.271000
      9 C3          2.7320    1.0750   -1.5550 ca        1 MGI      0.053700
     10 C8          2.4520    2.4900   -1.2150 c3        1 MGI     -0.069800
     11 C4          3.8060    0.7760   -2.3960 ca        1 MGI     -0.247000
     12 C5          4.0740   -0.5540   -2.7380 ca        1 MGI      0.203100
     13 O4          5.1280   -0.9550   -3.5460 os        1 MGI     -0.230200
     14 C10         5.8930    0.0600   -4.1210 ca        1 MGI      0.073100
     15 C15         7.0170    0.5420   -3.4390 ca        1 MGI     -0.128000
     16 C11         5.6110    0.4780   -5.4340 ca        1 MGI      0.112100
     17 O5          4.4950   -0.0180   -6.0550 oh        1 MGI     -0.473100
     18 C12         6.4980    1.3910   -6.0480 ca        1 MGI      0.049100
     19 O6          6.1710    1.7630   -7.3370 oh        1 MGI     -0.514100
     20 C13         7.6190    1.8680   -5.3710 ca        1 MGI     -0.170000
     21 C14         7.8810    1.4440   -4.0620 ca        1 MGI     -0.068300
     22 C16         9.0700    1.9640   -3.3470 c3        1 MGI     -0.052800
     23 H91        -0.4000    0.4470    2.2550 h1        1 MGI      0.048033
     24 H92        -1.5540   -0.1890    0.9860 h1        1 MGI      0.048033
     25 H93        -0.7370   -1.3660    2.1520 h1        1 MGI      0.048033
     26 H81         2.3830    2.6180   -0.1050 hc        1 MGI      0.061700
     27 H82         1.4630    2.7930   -1.6480 hc        1 MGI      0.061700
     28 H83         3.2450    3.1700   -1.6100 hc        1 MGI      0.061700
     29 H4          4.4370    1.5840   -2.7950 ha        1 MGI      0.153000
     30 H6          3.5010   -2.6410   -2.5480 ha        1 MGI      0.158000
     31 HO3         1.6990   -3.1260   -1.2560 ho        1 MGI      0.422000
     32 H15         7.2110    0.1920   -2.4140 ha        1 MGI      0.155000
     33 H161        9.2790    1.3690   -2.4250 hc        1 MGI      0.048700
     34 H162        9.9730    1.9240   -4.0060 hc        1 MGI      0.048700
     35 H163        8.9020    3.0290   -3.0480 hc        1 MGI      0.048700
     36 H13         8.3000    2.5770   -5.8650 ha        1 MGI      0.140000
     37 HO6         6.8640    2.3580   -7.6580 ho        1 MGI      0.433000
     38 HO5         4.4630    0.3530   -6.9520 ho        1 MGI      0.440000
@<TRIPOS>BOND
     1    1    2 2   
     2    2    3 1   
     3    2    5 1   
     4    3    4 1   
     5    4   23 1   
     6    4   24 1   
     7    4   25 1   
     8    5    6 ar  
     9    5    9 ar  
    10    6    7 1   
    11    6    8 ar  
    12    7   31 1   
    13    8   12 ar  
    14    8   30 1   
    15    9   10 1   
    16    9   11 ar  
    17   10   26 1   
    18   10   27 1   
    19   10   28 1   
    20   11   12 ar  
    21   11   29 1   
    22   12   13 1   
    23   13   14 1   
    24   14   15 ar  
    25   14   16 ar  
    26   15   21 ar  
    27   15   32 1   
    28   16   17 1   
    29   16   18 ar  
    30   17   38 1   
    31   18   19 1   
    32   18   20 ar  
    33   19   37 1   
    34   20   21 ar  
    35   20   36 1   
    36   21   22 1   
    37   22   33 1   
    38   22   34 1   
    39   22   35 1   
@<TRIPOS>SUBSTRUCTURE
     1 MGI         1 TEMP              0 ****  ****    0 ROOT
