@<TRIPOS>MOLECULE
MGI
   38    34     1     0     0
SMALL
bcc


@<TRIPOS>ATOM
      1 O2         -2.2210   -0.1420    3.7140 o         1 MGI     -0.353000
      2 C1         -2.8450   -0.0680    2.6860 c1        1 MGI      0.357000
      3 O1         -4.2590   -0.1420    2.7120 o         1 MGI     -0.304000
      4 C9         -4.8160   -0.0990    4.0310 c3        1 MGI     -0.059000
      5 C2         -2.1140   -0.0640    1.3550 c2        1 MGI     -0.233000
      6 C7         -1.7420   -1.2590    0.7700 c1        1 MGI      0.182000
      7 O3         -2.0670   -2.4860    1.4010 oh        1 MGI     -0.249000
      8 C6         -1.0020   -1.2580   -0.3940 c1        1 MGI     -0.214000
      9 C3         -1.7470    1.1280    0.7780 c2        1 MGI      0.059000
     10 C8         -2.2050    2.4210    1.3820 c3        1 MGI     -0.196000
     11 C4         -1.0060    1.1330   -0.3890 c1        1 MGI     -0.243000
     12 C5         -0.6330   -0.0590   -0.9760 c1        1 MGI      0.152000
     13 O4          0.0040   -0.0540   -2.2400 os        1 MGI     -0.137000
     14 C10         1.4050   -0.0470   -2.0600 c2        1 MGI      0.029000
     15 C15         2.0710   -1.2240   -1.7020 c2        1 MGI     -0.128000
     16 C11         2.1300    1.1150   -2.3020 c1        1 MGI      0.067000
     17 O5          1.4810    2.2490   -2.8040 oh        1 MGI     -0.226000
     18 C12         3.5230    1.1060   -2.1870 c1        1 MGI      0.003000
     19 O6          4.2740    2.3170   -2.4180 oh        1 MGI     -0.268000
     20 C13         4.1870   -0.0710   -1.8300 c1        1 MGI     -0.170000
     21 C14         3.4630   -1.2320   -1.5880 c1        1 MGI     -0.061000
     22 C16         4.1850   -2.5190   -1.2840 c3        1 MGI     -0.178000
     23 H91        -5.8020   -0.1380    3.9730 h1        1 MGI      0.092000
     24 H92        -4.4860   -0.8700    4.5540 h1        1 MGI      0.092000
     25 H93        -4.5430    0.7490    4.4800 h1        1 MGI      0.092000
     26 H81        -3.1780    2.3710    1.5710 hc        1 MGI      0.099667
     27 H82        -2.0310    3.1550    0.7550 hc        1 MGI      0.099667
     28 H83        -1.7140    2.5830    2.2240 hc        1 MGI      0.099667
     29 H4         -0.7380    2.0110   -0.8120 ha        1 MGI      0.153000
     30 H6         -0.7430   -2.0920   -0.8020 ha        1 MGI      0.173000
     31 HO3        -2.9170   -2.6950    1.2250 ho        1 MGI      0.245000
     32 H15         1.5530   -2.0550   -1.5300 ha        1 MGI      0.155000
     33 H161        5.1190   -2.4310   -1.5280 hc        1 MGI      0.087333
     34 H162        3.7870   -3.2380   -1.7900 hc        1 MGI      0.087333
     35 H163        4.1140   -2.7170   -0.3210 hc        1 MGI      0.087333
     36 H13         5.1760   -0.0770   -1.7490 ha        1 MGI      0.140000
     37 HO6         4.6050    2.3110   -3.2570 ho        1 MGI      0.231000
     38 HO5         1.7340    2.3870   -3.6450 ho        1 MGI      0.239000
@<TRIPOS>BOND
     1    1    2 1   
     2    2    5 1   
     3    3    4 1   
     4    4   23 1   
     5    4   24 1   
     6    4   25 1   
     7    5    6 1   
     8    5    9 1   
     9    6    7 1   
    10    7   31 1   
    11    8   12 1   
    12    8   30 1   
    13    9   10 1   
    14    9   11 1   
    15   10   26 1   
    16   10   27 1   
    17   10   28 1   
    18   11   29 1   
    19   12   13 1   
    20   13   14 1   
    21   14   15 1   
    22   14   16 1   
    23   15   21 1   
    24   15   32 1   
    25   16   17 1   
    26   17   38 1   
    27   18   19 1   
    28   18   20 1   
    29   19   37 1   
    30   20   36 1   
    31   21   22 1   
    32   22   33 1   
    33   22   34 1   
    34   22   35 1   
@<TRIPOS>SUBSTRUCTURE
     1 MGI         1 TEMP              0 ****  ****    0 ROOT
