@<TRIPOS>MOLECULE
MGI
   38    39     1     0     0
SMALL
bcc


@<TRIPOS>ATOM
      1 O2          5.0800   -0.9550   -0.5440 o         1 MGI     -0.588000
      2 C1          4.1850   -0.3260    0.0450 c         1 MGI      0.661700
      3 O1          4.6080    0.5880    0.9720 os        1 MGI     -0.428900
      4 C9          6.0220    0.7030    1.1560 c3        1 MGI      0.125700
      5 C2          2.7400   -0.4630   -0.1390 ca        1 MGI     -0.254600
      6 C7          2.2520   -1.5110   -0.9600 ca        1 MGI      0.236100
      7 O3          3.0180   -2.4300   -1.6150 oh        1 MGI     -0.500100
      8 C6          0.8710   -1.6950   -1.1650 ca        1 MGI     -0.221000
      9 C3          1.8080    0.4100    0.4660 ca        1 MGI      0.059700
     10 C8          2.2330    1.5370    1.3300 c3        1 MGI     -0.065800
     11 C4          0.4390    0.2320    0.2630 ca        1 MGI     -0.250000
     12 C5         -0.0180   -0.8190   -0.5430 ca        1 MGI      0.186100
     13 O4         -1.3590   -1.0980   -0.7670 os        1 MGI     -0.254200
     14 C10        -2.2810   -0.1330   -0.3560 ca        1 MGI      0.044100
     15 C15        -2.3310    1.1380   -0.9340 ca        1 MGI     -0.147000
     16 C11        -3.2450   -0.5440    0.5770 ca        1 MGI      0.042100
     17 O5         -3.2590   -1.7840    1.1730 oh        1 MGI     -0.509100
     18 C12        -4.2810    0.3510    0.9250 ca        1 MGI      0.122100
     19 O6         -5.2610    0.0260    1.8300 oh        1 MGI     -0.491100
     20 C13        -4.3300    1.6250    0.3500 ca        1 MGI     -0.139000
     21 C14        -3.3580    2.0170   -0.5790 ca        1 MGI     -0.060300
     22 C16        -3.4330    3.3620   -1.1970 c3        1 MGI     -0.053800
     23 H91         6.4420   -0.2740    1.4980 h1        1 MGI      0.054033
     24 H92         6.5070    1.0160    0.2010 h1        1 MGI      0.054033
     25 H93         6.1160    1.4900    1.9440 h1        1 MGI      0.054033
     26 H81         2.9490    2.2000    0.7810 hc        1 MGI      0.060367
     27 H82         1.3590    2.1520    1.6580 hc        1 MGI      0.060367
     28 H83         2.7540    1.1460    2.2420 hc        1 MGI      0.060367
     29 H4         -0.2840    0.9140    0.7350 ha        1 MGI      0.158000
     30 H6          0.5140   -2.5160   -1.8030 ha        1 MGI      0.174000
     31 HO3         3.9660   -2.2540   -1.4880 ho        1 MGI      0.466000
     32 H15        -1.5620    1.4340   -1.6630 ha        1 MGI      0.153000
     33 H161       -4.1340    3.3390   -2.0700 hc        1 MGI      0.048700
     34 H162       -3.8130    4.1150   -0.4640 hc        1 MGI      0.048700
     35 H163       -2.4300    3.6940   -1.5600 hc        1 MGI      0.048700
     36 H13        -5.1420    2.3090    0.6360 ha        1 MGI      0.157000
     37 HO6        -5.1160   -0.8900    2.1150 ho        1 MGI      0.440000
     38 HO5        -2.5210   -2.2960    0.8050 ho        1 MGI      0.446000
@<TRIPOS>BOND
     1    1    2 2   
     2    2    3 1   
     3    2    5 1   
     4    3    4 1   
     5    4   23 1   
     6    4   24 1   
     7    4   25 1   
     8    5    6 ar  
     9    5    9 ar  
    10    6    7 1   
    11    6    8 ar  
    12    7   31 1   
    13    8   12 ar  
    14    8   30 1   
    15    9   10 1   
    16    9   11 ar  
    17   10   26 1   
    18   10   27 1   
    19   10   28 1   
    20   11   12 ar  
    21   11   29 1   
    22   12   13 1   
    23   13   14 1   
    24   14   15 ar  
    25   14   16 ar  
    26   15   21 ar  
    27   15   32 1   
    28   16   17 1   
    29   16   18 ar  
    30   17   38 1   
    31   18   19 1   
    32   18   20 ar  
    33   19   37 1   
    34   20   21 ar  
    35   20   36 1   
    36   21   22 1   
    37   22   33 1   
    38   22   34 1   
    39   22   35 1   
@<TRIPOS>SUBSTRUCTURE
     1 MGI         1 TEMP              0 ****  ****    0 ROOT
