@<TRIPOS>MOLECULE
MGI
   38    39     1     0     0
SMALL
bcc


@<TRIPOS>ATOM
      1 O2          0.1780    1.4160   -0.0370 o         1 MGI     -0.561000
      2 C1          0.8090    0.3580   -0.1420 c         1 MGI      0.661700
      3 O1          0.4570   -0.6680    0.6950 os        1 MGI     -0.413900
      4 C9         -0.6390   -0.4200    1.5750 c3        1 MGI      0.126700
      5 C2          1.9210    0.0440   -1.0450 ca        1 MGI     -0.201600
      6 C7          2.1890   -1.2870   -1.4370 ca        1 MGI      0.215100
      7 O3          1.3500   -2.2620   -0.9650 oh        1 MGI     -0.467100
      8 C6          3.2550   -1.5970   -2.2910 ca        1 MGI     -0.271000
      9 C3          2.7390    1.0770   -1.5430 ca        1 MGI      0.053700
     10 C8          2.4760    2.4900   -1.1790 c3        1 MGI     -0.070800
     11 C4          3.8080    0.7790   -2.3900 ca        1 MGI     -0.247000
     12 C5          4.0600   -0.5480   -2.7550 ca        1 MGI      0.203100
     13 O4          5.1080   -0.9480   -3.5710 os        1 MGI     -0.230200
     14 C10         5.8820    0.0680   -4.1320 ca        1 MGI      0.074100
     15 C15         7.0130    0.5260   -3.4470 ca        1 MGI     -0.129000
     16 C11         5.5990    0.5100   -5.4370 ca        1 MGI      0.112100
     17 O5          4.4760    0.0380   -6.0610 oh        1 MGI     -0.473100
     18 C12         6.4940    1.4240   -6.0400 ca        1 MGI      0.049100
     19 O6          6.1660    1.8230   -7.3200 oh        1 MGI     -0.514100
     20 C13         7.6230    1.8790   -5.3590 ca        1 MGI     -0.169000
     21 C14         7.8860    1.4280   -4.0590 ca        1 MGI     -0.068300
     22 C16         9.0950    1.9010   -3.3460 c3        1 MGI     -0.052800
     23 H91        -0.3930    0.4250    2.2630 h1        1 MGI      0.048033
     24 H92        -1.5560   -0.1780    0.9870 h1        1 MGI      0.048033
     25 H93        -0.7510   -1.3830    2.1320 h1        1 MGI      0.048033
     26 H81         2.4110    2.6010   -0.0670 hc        1 MGI      0.062033
     27 H82         1.4910    2.8120   -1.6040 hc        1 MGI      0.062033
     28 H83         3.2770    3.1670   -1.5640 hc        1 MGI      0.062033
     29 H4          4.4480    1.5870   -2.7770 ha        1 MGI      0.153000
     30 H6          3.4620   -2.6300   -2.5980 ha        1 MGI      0.158000
     31 HO3         1.6570   -3.1160   -1.3100 ho        1 MGI      0.422000
     32 H15         7.2080    0.1590   -2.4280 ha        1 MGI      0.155000
     33 H161        8.9850    1.7780   -2.2410 hc        1 MGI      0.048367
     34 H162        9.9880    1.3110   -3.6770 hc        1 MGI      0.048367
     35 H163        9.2890    2.9800   -3.5650 hc        1 MGI      0.048367
     36 H13         8.3080    2.5900   -5.8430 ha        1 MGI      0.140000
     37 HO6         6.8620    2.4180   -7.6320 ho        1 MGI      0.433000
     38 HO5         4.4430    0.4260   -6.9510 ho        1 MGI      0.440000
@<TRIPOS>BOND
     1    1    2 2   
     2    2    3 1   
     3    2    5 1   
     4    3    4 1   
     5    4   23 1   
     6    4   24 1   
     7    4   25 1   
     8    5    6 ar  
     9    5    9 ar  
    10    6    7 1   
    11    6    8 ar  
    12    7   31 1   
    13    8   12 ar  
    14    8   30 1   
    15    9   10 1   
    16    9   11 ar  
    17   10   26 1   
    18   10   27 1   
    19   10   28 1   
    20   11   12 ar  
    21   11   29 1   
    22   12   13 1   
    23   13   14 1   
    24   14   15 ar  
    25   14   16 ar  
    26   15   21 ar  
    27   15   32 1   
    28   16   17 1   
    29   16   18 ar  
    30   17   38 1   
    31   18   19 1   
    32   18   20 ar  
    33   19   37 1   
    34   20   21 ar  
    35   20   36 1   
    36   21   22 1   
    37   22   33 1   
    38   22   34 1   
    39   22   35 1   
@<TRIPOS>SUBSTRUCTURE
     1 MGI         1 TEMP              0 ****  ****    0 ROOT
