@<TRIPOS>MOLECULE
MGJ
   58    53     1     0     0
SMALL
bcc


@<TRIPOS>ATOM
      1 C10        49.4230 -620.7840  152.1710 c1        1 MGJ     -0.086000
      2 N12        51.3000 -623.3550  150.5960 n         1 MGJ     -0.194000
      3 C13        51.5810 -624.7430  150.9300 c2        1 MGJ      0.271000
      4 C15       -47.4130  547.8540 -123.6900 c3        1 MGJ     -0.116500
      5 C17       -46.4930  549.1940 -125.4860 c3        1 MGJ     -0.049000
      6 C20       -45.1940  552.7680 -125.7040 c2        1 MGJ     -0.157000
      7 C21       -43.9850  552.8140 -125.0520 c2        1 MGJ      0.072000
      8 C22       -43.8310  557.2840 -126.9830 c2        1 MGJ     -0.056000
      9 C24       -45.0060  555.0300 -126.6260 c1        1 MGJ     -0.073000
     10 C26       -45.9410  546.8340 -125.3230 c3        1 MGJ     -0.116500
     11 C03        51.3670 -622.9590  154.6920 c2        1 MGJ      0.199000
     12 N02        53.8370 -623.2770  148.9340 n2        1 MGJ     -0.340000
     13 C01        54.3550 -624.3700  148.5350 c2        1 MGJ     -0.067000
     14 C05        51.1360 -622.9190  149.3710 c2        1 MGJ      0.215000
     15 C06        50.8950 -621.5090  148.9630 c3        1 MGJ     -0.149000
     16 C07        50.5210 -620.5730  150.0760 c2        1 MGJ     -0.100000
     17 C08        51.2190 -619.4480  150.3040 c2        1 MGJ     -0.156000
     18 N09        49.4690 -620.7080  153.3350 n1        1 MGJ     -0.024000
     19 N11        49.3730 -621.0080  150.8180 n3        1 MGJ     -0.193000
     20 O14        51.7210 -625.5670  150.0380 o         1 MGJ     -0.224000
     21 N16       -46.3300  548.0410 -124.6280 n3        1 MGJ     -0.289000
     22 C27       -50.2620  551.0490 -126.9910 c1        1 MGJ      0.436000
     23 O28       -51.3820  550.9990 -127.3680 o         1 MGJ     -0.217500
     24 O29       -49.1290  551.0980 -126.6090 o         1 MGJ     -0.217500
     25 C18       -45.7830  550.4280 -124.8830 c3        1 MGJ     -0.250000
     26 C19       -46.0300  551.6330 -125.6540 c2        1 MGJ      0.228000
     27 C23       -44.4260  556.1380 -126.8000 c1        1 MGJ     -0.117000
     28 C25       -45.6670  553.9050 -126.4900 c2        1 MGJ     -0.132000
     29 H10        48.5060 -620.6880  150.4140 hn        1 MGJ      0.236000
     30 HN12       51.2630 -622.7260  151.3920 hn        1 MGJ      0.302000
     31 H15       -47.1300  547.0380 -122.9740 h1        1 MGJ      0.083667
     32 H15A      -47.5660  548.8030 -123.1120 h1        1 MGJ      0.083667
     33 H17       -48.3830  547.5760 -124.1870 h1        1 MGJ      0.083667
     34 H17A      -46.0350  548.9980 -126.4960 h1        1 MGJ      0.096000
     35 H21       -43.5880  551.9740 -124.4610 ha        1 MGJ      0.165000
     36 H22       -43.3520  553.7190 -125.1020 ha        1 MGJ      0.165000
     37 H24       -44.2820  558.0790 -127.6010 ha        1 MGJ      0.161000
     38 H26       -46.7310  546.4610 -126.0290 h1        1 MGJ      0.083667
     39 H26A      -45.0010  547.0280 -125.9010 h1        1 MGJ      0.083667
     40 HN02       51.2180 -623.7360  155.4720 h4        1 MGJ      0.103000
     41 H01        54.4440 -622.4850  148.9760 hn        1 MGJ      0.152000
     42 H01A       53.7090 -625.2700  148.4810 h4        1 MGJ      0.131000
     43 H01B       55.4080 -624.5320  148.2300 h4        1 MGJ      0.131000
     44 H05        51.1860 -623.6710  148.5410 h4        1 MGJ      0.210000
     45 H06        50.0840 -621.5120  148.1760 hc        1 MGJ      0.168500
     46 H06A       51.8410 -621.1500  148.4580 hc        1 MGJ      0.168500
     47 H08        52.1090 -619.1870  149.7150 ha        1 MGJ      0.152500
     48 HN09       50.9500 -618.7260  151.0900 ha        1 MGJ      0.152500
     49 H18       -47.5800  549.4630 -125.6470 h1        1 MGJ      0.096000
     50 H18A      -44.6910  550.2070 -124.7320 hc        1 MGJ      0.173000
     51 H19       -46.2090  550.6110 -123.8410 hc        1 MGJ      0.173000
     52 H19A      -46.9810  551.6660 -126.2400 ha        1 MGJ      0.198000
     53 H23       -42.8530  557.5200 -126.5340 ha        1 MGJ      0.161000
     54 H25       -46.6450  553.7840 -126.9920 ha        1 MGJ      0.163000
     55 H122       51.6440 -624.9000  152.0350 h5        1 MGJ      0.237000
     56 H022       51.4320 -621.9070  155.0400 h4        1 MGJ      0.103000
     57 H161      -45.7360  546.0370 -124.5610 h1        1 MGJ      0.083667
     58 O04        51.4530 -623.2550  153.4960 o         1 MGJ     -0.398000
@<TRIPOS>BOND
     1    1   18 1   
     2    1   19 1   
     3    2    3 1   
     4    2   14 1   
     5    2   30 1   
     6    3   20 1   
     7    3   55 1   
     8    4   21 1   
     9    4   31 1   
    10    4   32 1   
    11    4   33 1   
    12    5   21 1   
    13    5   25 1   
    14    5   34 1   
    15    5   49 1   
    16    6    7 1   
    17    6   26 1   
    18    6   28 1   
    19    7   35 1   
    20    7   36 1   
    21    8   27 1   
    22    8   37 1   
    23    8   53 1   
    24    9   27 1   
    25    9   28 1   
    26   10   21 1   
    27   10   38 1   
    28   10   39 1   
    29   10   57 1   
    30   11   40 1   
    31   11   56 1   
    32   11   58 1   
    33   12   13 1   
    34   12   41 1   
    35   13   42 1   
    36   13   43 1   
    37   14   15 1   
    38   14   44 1   
    39   15   16 1   
    40   15   45 1   
    41   15   46 1   
    42   16   17 1   
    43   16   19 1   
    44   17   47 1   
    45   17   48 1   
    46   19   29 1   
    47   22   23 1   
    48   22   24 1   
    49   25   26 1   
    50   25   50 1   
    51   25   51 1   
    52   26   52 1   
    53   28   54 1   
@<TRIPOS>SUBSTRUCTURE
     1 MGJ         1 TEMP              0 ****  ****    0 ROOT
