@<TRIPOS>MOLECULE
MGJ
   58    55     1     0     0
SMALL
bcc


@<TRIPOS>ATOM
      1 C10        86.0910 -814.5240  389.8490 c1        1 MGJ     -0.088000
      2 N12        88.3310 -816.3810  392.1480 ns        1 MGJ     -0.187000
      3 C13        88.6570 -816.3400  393.5670 c2        1 MGJ      0.271000
      4 C15       -75.9230  717.6160 -333.9820 c3        1 MGJ     -0.129000
      5 C17       -77.5200  719.1370 -334.9510 c3        1 MGJ     -0.053000
      6 C20       -79.4610  721.7480 -335.4160 ca        1 MGJ     -0.197000
      7 C21       -79.8980  721.4990 -334.1380 c2        1 MGJ      0.122000
      8 C22       -79.5510  723.0870 -335.9390 ca        1 MGJ      0.018000
      9 C24       -78.5910  722.3650 -338.0250 ca        1 MGJ      0.075000
     10 C26       -78.2590  716.9610 -334.0820 c3        1 MGJ     -0.104000
     11 C03        87.6960 -812.3640  392.7660 c2        1 MGJ      0.194000
     12 N02        91.0970 -817.5480  392.0510 n2        1 MGJ     -0.340000
     13 C01        92.2300 -817.3610  391.5020 c2        1 MGJ     -0.061000
     14 C05        88.3350 -817.4780  391.4330 c2        1 MGJ      0.204000
     15 C06        88.0730 -817.5820  389.9730 c3        1 MGJ     -0.151000
     16 C07        87.5350 -816.3380  389.3250 c2        1 MGJ     -0.099000
     17 C08        88.1770 -815.7550  388.3000 c2        1 MGJ     -0.161000
     18 N09        85.9090 -813.3720  389.9050 n1        1 MGJ     -0.017000
     19 N11        86.3130 -815.8770  389.9140 n7        1 MGJ     -0.192000
     20 O14        88.9540 -817.3690  394.1540 o         1 MGJ     -0.219000
     21 N16       -77.1980  717.7510 -334.6590 n3        1 MGJ     -0.253000
     22 C27       -78.9540  717.5240 -332.8530 c2        1 MGJ      0.281000
     23 O28       -79.3890  718.6760 -332.7360 o         1 MGJ     -0.375000
     24 O29       -79.1870  716.7440 -331.7690 oh        1 MGJ     -0.257000
     25 C18       -78.7870  719.3120 -335.8040 c3        1 MGJ     -0.184000
     26 C19       -78.9090  720.7200 -336.2650 ca        1 MGJ      0.126000
     27 C23       -79.1270  723.3820 -337.2130 ca        1 MGJ     -0.181000
     28 C25       -78.4870  721.0560 -337.5490 ca        1 MGJ     -0.199000
     29 H10        85.5100 -816.4030  389.6040 hn        1 MGJ      0.234000
     30 HN12       88.1250 -815.4770  391.7340 hn        1 MGJ      0.304000
     31 H15       -75.6690  716.5270 -333.9010 h1        1 MGJ      0.092000
     32 H15A      -75.1320  718.1190 -334.5990 h1        1 MGJ      0.092000
     33 H17       -75.9210  718.0700 -332.9540 h1        1 MGJ      0.092000
     34 H17A      -77.6550  719.7430 -334.0050 h1        1 MGJ      0.091000
     35 H21       -80.3020  722.3090 -333.5040 ha        1 MGJ      0.185500
     36 H22       -79.8700  720.4920 -333.6740 ha        1 MGJ      0.185500
     37 H24       -79.2020  724.4110 -337.6060 ha        1 MGJ      0.186000
     38 H26       -79.0630  716.8350 -334.8670 h1        1 MGJ      0.127000
     39 H26A      -77.8480  715.9380 -333.8460 h1        1 MGJ      0.127000
     40 HN02       87.4310 -811.8260  391.8320 h4        1 MGJ      0.104500
     41 H01        91.1020 -817.9870  392.9510 hn        1 MGJ      0.156000
     42 H01A       93.2210 -817.6340  391.9180 h4        1 MGJ      0.124000
     43 H01B       92.2630 -816.8770  390.5060 h4        1 MGJ      0.124000
     44 H05        88.5640 -818.4410  391.9590 h4        1 MGJ      0.210000
     45 H06        87.3570 -818.4420  389.8130 hc        1 MGJ      0.168500
     46 H06A       89.0510 -817.8760  389.4860 hc        1 MGJ      0.168500
     47 H08        89.1370 -816.1350  387.9230 ha        1 MGJ      0.153000
     48 HN09       87.7910 -814.8630  387.7810 ha        1 MGJ      0.153000
     49 H18       -76.6420  719.5620 -335.5180 h1        1 MGJ      0.091000
     50 H18A      -78.7410  718.6250 -336.6940 hc        1 MGJ      0.132500
     51 H19       -79.6890  719.0200 -335.1980 hc        1 MGJ      0.132500
     52 H19A      -78.0620  720.2740 -338.2050 ha        1 MGJ      0.183000
     53 H23       -79.9730  723.8770 -335.2910 ha        1 MGJ      0.172000
     54 H25       -78.2500  722.6060 -339.0500 ha        1 MGJ      0.181000
     55 H122       88.5940 -815.3010  393.9760 h5        1 MGJ      0.236000
     56 H022       87.6700 -811.7770  393.7080 h4        1 MGJ      0.104500
     57 H161      -78.8330  715.8520 -331.9060 ho        1 MGJ      0.242000
     58 O04        88.0050 -813.5600  392.7620 o         1 MGJ     -0.396000
@<TRIPOS>BOND
     1    1   18 1   
     2    1   19 1   
     3    2    3 1   
     4    2   14 1   
     5    2   30 1   
     6    3   20 1   
     7    3   55 1   
     8    4   21 1   
     9    4   31 1   
    10    4   32 1   
    11    4   33 1   
    12    5   21 1   
    13    5   25 1   
    14    5   34 1   
    15    5   49 1   
    16    6    7 1   
    17    6    8 1   
    18    6   26 1   
    19    7   35 1   
    20    7   36 1   
    21    8   27 1   
    22    8   53 1   
    23    9   27 1   
    24    9   28 1   
    25    9   54 1   
    26   10   21 1   
    27   10   22 1   
    28   10   38 1   
    29   10   39 1   
    30   11   40 1   
    31   11   56 1   
    32   11   58 1   
    33   12   13 1   
    34   12   41 1   
    35   13   42 1   
    36   13   43 1   
    37   14   15 1   
    38   14   44 1   
    39   15   16 1   
    40   15   45 1   
    41   15   46 1   
    42   16   17 1   
    43   16   19 1   
    44   17   47 1   
    45   17   48 1   
    46   19   29 1   
    47   22   23 1   
    48   22   24 1   
    49   24   57 1   
    50   25   26 1   
    51   25   50 1   
    52   25   51 1   
    53   26   28 1   
    54   27   37 1   
    55   28   52 1   
@<TRIPOS>SUBSTRUCTURE
     1 MGJ         1 TEMP              0 ****  ****    0 ROOT
