@<TRIPOS>MOLECULE
MGJ
   55    56     1     0     0
SMALL
bcc


@<TRIPOS>ATOM
      1 C10         5.6530   -2.8480   -2.1440 cc        1 MGJ      0.343400
      2 N12         2.5120   -0.1690    0.1430 n         1 MGJ     -0.558900
      3 C13         1.6580   -0.9240    0.9060 c         1 MGJ      0.667100
      4 C15         0.3910   -1.4930    0.2540 c3        1 MGJ      0.099800
      5 C17        -1.9490   -1.1810   -0.1810 c3        1 MGJ      0.156800
      6 C20        -5.6330   -0.2560    0.2760 ca        1 MGJ     -0.061300
      7 C21        -5.9950    0.7680   -0.6100 ca        1 MGJ     -0.128500
      8 C22        -7.1270    1.5430   -0.3660 ca        1 MGJ     -0.132500
      9 C24        -7.5570    0.2860    1.6480 ca        1 MGJ     -0.132500
     10 C26        -0.3580    0.4270   -1.0380 c3        1 MGJ      0.024800
     11 C03         3.8870    1.4660    1.4240 c         1 MGJ      0.644100
     12 N02         3.1260    1.4930    2.5700 n         1 MGJ     -0.570900
     13 C01         3.0190    2.6470    3.4000 c3        1 MGJ      0.084300
     14 C05         3.8420    0.1600    0.5860 c3        1 MGJ      0.049700
     15 C06         4.8390    0.3150   -0.5800 c3        1 MGJ     -0.090700
     16 C07         4.9390   -0.9200   -1.3820 cd        1 MGJ      0.255600
     17 C08         4.0590   -1.2930   -2.4250 cc        1 MGJ     -0.212600
     18 N09         4.5210   -2.5130   -2.9020 na        1 MGJ     -0.320900
     19 N11         5.9280   -1.9020   -1.2240 nd        1 MGJ     -0.669000
     20 O14         1.9210   -1.2060    2.1010 o         1 MGJ     -0.678100
     21 N16        -0.6640   -0.5110    0.0380 n3        1 MGJ     -0.705600
     22 C27         0.2750   -0.1860   -2.3090 c         1 MGJ      0.884600
     23 O28        -0.3450   -1.0890   -2.9330 o         1 MGJ     -0.846800
     24 O29         1.4160    0.2530   -2.6530 o         1 MGJ     -0.846800
     25 C18        -3.1430   -0.3050    0.2030 c3        1 MGJ     -0.072400
     26 C19        -4.4290   -1.0870    0.0040 c3        1 MGJ     -0.044100
     27 C23        -7.9110    1.3030    0.7630 ca        1 MGJ     -0.144000
     28 C25        -6.4230   -0.4900    1.4070 ca        1 MGJ     -0.128500
     29 H10         6.2210   -3.7660   -2.3050 h5        1 MGJ      0.042100
     30 HN12        2.2690    0.0570   -0.8080 hn        1 MGJ      0.377500
     31 H15         0.6920   -2.0120   -0.7060 h1        1 MGJ      0.062700
     32 H15A        0.0160   -2.2750    0.9760 h1        1 MGJ      0.062700
     33 H17        -2.0560   -1.4980   -1.2620 h1        1 MGJ      0.045200
     34 H17A       -1.9970   -2.1120    0.4540 h1        1 MGJ      0.045200
     35 H21        -5.3730    0.9590   -1.4980 ha        1 MGJ      0.135000
     36 H22        -7.4020    2.3460   -1.0650 ha        1 MGJ      0.123000
     37 H24        -8.1700    0.0960    2.5410 ha        1 MGJ      0.123000
     38 H26        -1.3040    0.9470   -1.3490 h1        1 MGJ      0.045700
     39 H26A        0.3330    1.2070   -0.6150 h1        1 MGJ      0.045700
     40 HN02        2.5410    0.7140    2.7830 hn        1 MGJ      0.343500
     41 H01         1.9670    3.0430    3.3900 h1        1 MGJ      0.031700
     42 H01A        3.2850    2.3820    4.4590 h1        1 MGJ      0.031700
     43 H01B        3.7130    3.4530    3.0400 h1        1 MGJ      0.031700
     44 H05         4.2120   -0.6690    1.2670 h1        1 MGJ      0.082700
     45 H06         4.5110    1.1630   -1.2400 hc        1 MGJ      0.074200
     46 H06A        5.8320    0.5940   -0.1370 hc        1 MGJ      0.074200
     47 H08         3.1620   -0.7910   -2.8230 h4        1 MGJ      0.253000
     48 HN09        4.0970   -3.0550   -3.6050 hn        1 MGJ      0.297700
     49 H18        -3.0570    0.0210    1.2710 hc        1 MGJ      0.048200
     50 H18A       -3.1690    0.6200   -0.4300 hc        1 MGJ      0.048200
     51 H19        -4.4240   -1.9880    0.6750 hc        1 MGJ      0.048200
     52 H19A       -4.4730   -1.4620   -1.0550 hc        1 MGJ      0.048200
     53 H23        -8.8040    1.9150    0.9540 ha        1 MGJ      0.120000
     54 H25        -6.1460   -1.2880    2.1110 ha        1 MGJ      0.135000
     55 O04         4.6190    2.4250    1.1030 o         1 MGJ     -0.642100
@<TRIPOS>BOND
     1    1   18 1   
     2    1   19 2   
     3    1   29 1   
     4    2    3 1   
     5    2   14 1   
     6    2   30 1   
     7    3    4 1   
     8    3   20 2   
     9    4   21 1   
    10    4   31 1   
    11    4   32 1   
    12    5   21 1   
    13    5   25 1   
    14    5   33 1   
    15    5   34 1   
    16    6    7 ar  
    17    6   26 1   
    18    6   28 ar  
    19    7    8 ar  
    20    7   35 1   
    21    8   27 ar  
    22    8   36 1   
    23    9   27 ar  
    24    9   28 ar  
    25    9   37 1   
    26   10   21 1   
    27   10   22 1   
    28   10   38 1   
    29   10   39 1   
    30   11   12 1   
    31   11   14 1   
    32   11   55 2   
    33   12   13 1   
    34   12   40 1   
    35   13   41 1   
    36   13   42 1   
    37   13   43 1   
    38   14   15 1   
    39   14   44 1   
    40   15   16 1   
    41   15   45 1   
    42   15   46 1   
    43   16   17 2   
    44   16   19 1   
    45   17   18 1   
    46   17   47 1   
    47   18   48 1   
    48   22   23 1   
    49   22   24 1   
    50   25   26 1   
    51   25   49 1   
    52   25   50 1   
    53   26   51 1   
    54   26   52 1   
    55   27   53 1   
    56   28   54 1   
@<TRIPOS>SUBSTRUCTURE
     1 MGJ         1 TEMP              0 ****  ****    0 ROOT
