@<TRIPOS>MOLECULE
MGJ
   55    49     1     0     0
SMALL
bcc


@<TRIPOS>ATOM
      1 C10         0.5660   -0.7110   -5.5380 c1        1 MGJ     -0.129000
      2 N12         2.3480   -1.5360   -0.4560 n         1 MGJ     -0.369000
      3 C13         1.4430   -0.9390    0.5220 c2        1 MGJ      0.317000
      4 C15         1.9920    0.0560    1.5770 c3        1 MGJ     -0.078000
      5 C17         0.5740    1.7050    2.5560 c3        1 MGJ     -0.046000
      6 C20        -2.8280    3.3100    1.7670 c1        1 MGJ     -0.058000
      7 C21        -3.1870    3.0670    0.4490 c1        1 MGJ     -0.132000
      8 C22        -4.5060    3.2230    0.0480 c1        1 MGJ     -0.132000
      9 C24        -5.1120    3.8640    2.2830 c1        1 MGJ     -0.132000
     10 C26         1.5090   -0.0100    3.9050 c3        1 MGJ     -0.125000
     11 O04         2.5650   -4.1880   -1.8110 o         1 MGJ     -0.423000
     12 C03         1.6200   -3.4260   -1.7450 c1        1 MGJ      0.272000
     13 N02         0.2910   -3.9400   -1.7260 n2        1 MGJ     -0.348000
     14 C01         0.0650   -5.3480   -1.8320 c3        1 MGJ     -0.075000
     15 C05         1.8510   -1.9400   -1.7410 c3        1 MGJ      0.015000
     16 C06         2.8660   -1.5830   -2.8080 c3        1 MGJ     -0.092000
     17 C07         2.1350   -1.1750   -4.1000 c2        1 MGJ     -0.118000
     18 C08         2.7270   -0.7270   -5.2560 c1        1 MGJ     -0.151000
     19 N09         1.7620   -0.4450   -6.1310 n2        1 MGJ     -0.215000
     20 N11         0.8110   -1.1610   -4.2830 n2        1 MGJ     -0.144000
     21 O14         0.2560   -1.1580    0.4580 o         1 MGJ     -0.440000
     22 N16         0.9700    0.3030    2.5940 n3        1 MGJ     -0.264000
     23 C27         0.7860   -1.2250    4.4770 c2        1 MGJ      0.328000
     24 O28        -0.1200   -1.0690    5.3510 o         1 MGJ     -0.579500
     25 O29         1.1430   -2.3800    4.1440 o         1 MGJ     -0.579500
     26 C18        -0.9550    1.8040    2.4550 c3        1 MGJ     -0.159000
     27 C19        -1.3570    3.2580    2.1790 c3        1 MGJ     -0.127000
     28 C23        -5.4690    3.6220    0.9680 c1        1 MGJ     -0.132000
     29 C25        -3.7900    3.7080    2.6850 c1        1 MGJ     -0.133000
     30 H10        -0.3100   -0.5980   -5.9440 DU        1 MGJ      0.212333
     31 HN12        3.2300   -1.6360   -0.2580 hn        1 MGJ      0.280000
     32 H15         2.2260    0.9030    1.1370 h1        1 MGJ      0.108500
     33 H15A        2.7850   -0.3210    1.9990 h1        1 MGJ      0.108500
     34 H17         0.9800    2.1370    1.7790 h1        1 MGJ      0.057500
     35 H17A        0.8780    2.1540    3.3760 h1        1 MGJ      0.057500
     36 H21        -2.5120    2.7880   -0.1960 ha        1 MGJ      0.128000
     37 H22        -4.7710    2.9910   -0.8680 ha        1 MGJ      0.128000
     38 H24        -5.7900    4.1440    2.9300 ha        1 MGJ      0.128000
     39 H26         1.3800    0.7660    4.5090 h1        1 MGJ      0.064500
     40 H26A        2.4610   -0.2050    3.8270 h1        1 MGJ      0.064500
     41 HN02       -0.4130   -3.3710   -1.6780 hn        1 MGJ      0.280000
     42 H01        -0.8260   -5.5620   -1.4910 h1        1 MGJ      0.076333
     43 H01A        0.1280   -5.6210   -2.7760 h1        1 MGJ      0.076333
     44 H01B        0.7420   -5.8300   -1.3060 h1        1 MGJ      0.076333
     45 H05         1.0150   -1.4820   -1.9230 h1        1 MGJ      0.140000
     46 H06         3.4390   -2.3610   -2.9880 hc        1 MGJ      0.111500
     47 H06A        3.4200   -0.8340   -2.4950 hc        1 MGJ      0.111500
     48 H08         3.6820   -0.6320   -5.4090 DU        1 MGJ      0.212333
     49 HN09        1.8830   -0.1560   -6.9930 DU        1 MGJ      0.212333
     50 H18        -1.3570    1.5090    3.2980 hc        1 MGJ      0.097000
     51 H18A       -1.2710    1.2360    1.7270 hc        1 MGJ      0.097000
     52 H19        -0.8050    3.6170    1.4580 hc        1 MGJ      0.084000
     53 H19A       -1.2250    3.7920    2.9880 hc        1 MGJ      0.084000
     54 H23        -6.3890    3.7340    0.6870 ha        1 MGJ      0.128000
     55 H25        -3.5380    3.8790    3.6160 ha        1 MGJ      0.127000
@<TRIPOS>BOND
     1    1   19 1   
     2    1   20 1   
     3    2    3 1   
     4    2   15 1   
     5    2   31 1   
     6    3    4 1   
     7    3   21 1   
     8    4   22 1   
     9    4   32 1   
    10    4   33 1   
    11    5   22 1   
    12    5   26 1   
    13    5   34 1   
    14    5   35 1   
    15    6   27 1   
    16    6   29 1   
    17    7    8 1   
    18    7   36 1   
    19    8   37 1   
    20    9   28 1   
    21    9   38 1   
    22   10   22 1   
    23   10   23 1   
    24   10   39 1   
    25   10   40 1   
    26   11   12 1   
    27   12   15 1   
    28   13   14 1   
    29   13   41 1   
    30   14   42 1   
    31   14   43 1   
    32   14   44 1   
    33   15   16 1   
    34   15   45 1   
    35   16   17 1   
    36   16   46 1   
    37   16   47 1   
    38   17   18 1   
    39   17   20 1   
    40   18   19 1   
    41   23   24 1   
    42   23   25 1   
    43   26   27 1   
    44   26   50 1   
    45   26   51 1   
    46   27   52 1   
    47   27   53 1   
    48   28   54 1   
    49   29   55 1   
@<TRIPOS>SUBSTRUCTURE
     1 MGJ         1 TEMP              0 ****  ****    0 ROOT
