@<TRIPOS>MOLECULE
MGK
   56    57     1     0     0
SMALL
bcc


@<TRIPOS>ATOM
      1 C10         0.5700    1.9230    1.1340 cc        1 MGK      0.416400
      2 N12         2.2020   -2.0210    2.6380 n         1 MGK     -0.532900
      3 C13         1.7400   -3.2720    2.3450 c         1 MGK      0.645100
      4 C15         0.7680   -3.9310    3.3440 c3        1 MGK      0.018800
      5 C17         0.2670   -6.0350    4.5320 c3        1 MGK      0.096800
      6 C20        -0.5170   -9.6640    5.3610 ca        1 MGK     -0.113300
      7 C21         0.0480  -10.3050    6.4690 ca        1 MGK     -0.122000
      8 C22         0.1700  -11.6940    6.4870 ca        1 MGK     -0.120500
      9 C24        -0.8390  -11.8150    4.2960 ca        1 MGK     -0.120500
     10 C26         2.6330   -5.3060    4.1950 c3        1 MGK     -0.020200
     11 O29         1.9180   -4.1040    6.2020 o         1 MGK     -0.489000
     12 C27         2.8160   -4.4390    5.4290 c         1 MGK      0.632100
     13 O28         4.0530   -4.0050    5.7390 oh        1 MGK     -0.524100
     14 N16         1.2450   -5.3200    3.6420 n4        1 MGK     -0.659400
     15 C18         0.4350   -7.5480    4.5070 c3        1 MGK     -0.105400
     16 C19        -0.6650   -8.1840    5.3440 c3        1 MGK     -0.025100
     17 C25        -0.9630  -10.4270    4.2750 ca        1 MGK     -0.122000
     18 C23        -0.2720  -12.4500    5.4020 ca        1 MGK     -0.111000
     19 O14         2.1020   -3.9340    1.3510 o         1 MGK     -0.589100
     20 C05         3.3450   -1.4720    1.9420 c3        1 MGK      0.062700
     21 C03         4.6310   -2.2050    2.3400 c         1 MGK      0.640100
     22 O04         4.7430   -3.2060    3.0620 o         1 MGK     -0.619000
     23 O02         5.7370   -1.6630    1.7820 os        1 MGK     -0.409900
     24 C01         6.9950   -2.2970    2.0630 c3        1 MGK      0.122700
     25 C06         3.5350    0.0360    2.2030 c3        1 MGK     -0.004100
     26 C07         2.2770    0.7800    2.0420 cc        1 MGK     -0.260900
     27 N11         1.7960    1.3210    0.8420 na        1 MGK     -0.303900
     28 N09         0.2450    1.7790    2.4400 nd        1 MGK     -0.655000
     29 C08         1.2960    1.0780    3.0170 cd        1 MGK      0.298200
     30 H10        -0.0320    2.4420    0.3780 h5        1 MGK      0.078100
     31 HN12        1.7730   -1.4580    3.3390 hn        1 MGK      0.352500
     32 H15        -0.2490   -3.9910    2.8590 hx        1 MGK      0.135200
     33 H15A        0.6800   -3.3690    4.3190 hx        1 MGK      0.135200
     34 H17         0.3970   -5.6370    5.5820 hx        1 MGK      0.118700
     35 H17A       -0.7700   -5.7690    4.1730 hx        1 MGK      0.118700
     36 H21         0.3880   -9.7150    7.3330 ha        1 MGK      0.130000
     37 H22         0.6100  -12.1940    7.3640 ha        1 MGK      0.144500
     38 H24        -1.1950  -12.4110    3.4420 ha        1 MGK      0.144500
     39 H26         3.3310   -4.9370    3.3760 hx        1 MGK      0.145700
     40 H26A        2.9180   -6.3650    4.4670 hx        1 MGK      0.145700
     41 H18         0.3720   -7.9420    3.4580 hc        1 MGK      0.066700
     42 H18A        1.4320   -7.8450    4.9270 hc        1 MGK      0.066700
     43 H19        -0.6220   -7.7790    6.3910 hc        1 MGK      0.061700
     44 H19A       -1.6680   -7.9090    4.9180 hc        1 MGK      0.061700
     45 H25        -1.4210   -9.9310    3.4070 ha        1 MGK      0.130000
     46 H23        -0.1780  -13.5470    5.4190 ha        1 MGK      0.147000
     47 H05         3.2140   -1.6520    0.8290 h1        1 MGK      0.117700
     48 H01         7.1940   -2.2680    3.1600 h1        1 MGK      0.066700
     49 H01A        6.9750   -3.3500    1.6940 h1        1 MGK      0.066700
     50 H01B        7.7260   -1.6720    1.4920 h1        1 MGK      0.066700
     51 H06         3.9140    0.1950    3.2490 hc        1 MGK      0.090200
     52 H06A        4.3330    0.3940    1.4970 hc        1 MGK      0.090200
     53 H08         1.3160    0.8600    4.0840 h4        1 MGK      0.042100
     54 HN11        2.2760    1.3350   -0.0200 hn        1 MGK      0.310700
     55 H122        4.6880   -4.1840    5.0210 ho        1 MGK      0.471000
     56 H161        1.3000   -5.8250    2.7390 hn        1 MGK      0.469800
@<TRIPOS>BOND
     1    1   27 1   
     2    1   28 2   
     3    1   30 1   
     4    2    3 1   
     5    2   20 1   
     6    2   31 1   
     7    3    4 1   
     8    3   19 2   
     9    4   14 1   
    10    4   32 1   
    11    4   33 1   
    12    5   14 1   
    13    5   15 1   
    14    5   34 1   
    15    5   35 1   
    16    6    7 ar  
    17    6   16 1   
    18    6   17 ar  
    19    7    8 ar  
    20    7   36 1   
    21    8   18 ar  
    22    8   37 1   
    23    9   17 ar  
    24    9   18 ar  
    25    9   38 1   
    26   10   12 1   
    27   10   14 1   
    28   10   39 1   
    29   10   40 1   
    30   11   12 2   
    31   12   13 1   
    32   13   55 1   
    33   14   56 1   
    34   15   16 1   
    35   15   41 1   
    36   15   42 1   
    37   16   43 1   
    38   16   44 1   
    39   17   45 1   
    40   18   46 1   
    41   20   21 1   
    42   20   25 1   
    43   20   47 1   
    44   21   22 2   
    45   21   23 1   
    46   23   24 1   
    47   24   48 1   
    48   24   49 1   
    49   24   50 1   
    50   25   26 1   
    51   25   51 1   
    52   25   52 1   
    53   26   27 1   
    54   26   29 2   
    55   27   54 1   
    56   28   29 1   
    57   29   53 1   
@<TRIPOS>SUBSTRUCTURE
     1 MGK         1 TEMP              0 ****  ****    0 ROOT
