@<TRIPOS>MOLECULE
MGK
   56    57     1     0     0
SMALL
bcc


@<TRIPOS>ATOM
      1 C10         0.5240    1.3530   -0.7850 cc        1 MGK      0.414400
      2 N12         3.7960   -0.6890    3.3710 ns        1 MGK     -0.510900
      3 C13         3.0990   -1.1950    4.4300 c         1 MGK      0.648100
      4 C15         3.8690   -2.1420    5.3720 c3        1 MGK      0.005800
      5 C17         3.7470   -3.4070    7.4860 c3        1 MGK      0.097800
      6 C20         2.9900   -4.6450   11.0030 ca        1 MGK     -0.116300
      7 C21         2.7800   -6.0020   11.2700 ca        1 MGK     -0.122000
      8 C22         2.0360   -6.3890   12.3840 ca        1 MGK     -0.120000
      9 C24         1.7080   -4.0700   12.9750 ca        1 MGK     -0.120000
     10 C26         2.0320   -3.7730    5.7120 c3        1 MGK     -0.015200
     11 O29         3.9240   -5.1260    4.9410 o         1 MGK     -0.475000
     12 C27         2.7110   -4.9400    5.0200 c         1 MGK      0.626100
     13 O28         1.9360   -5.8730    4.4250 oh        1 MGK     -0.515100
     14 N16         2.9560   -2.7960    6.3620 nx        1 MGK     -0.655400
     15 C18         2.8900   -3.7860    8.6870 c3        1 MGK     -0.106400
     16 C19         3.7990   -4.2280    9.8250 c3        1 MGK     -0.024100
     17 C25         2.4520   -3.6800   11.8620 ca        1 MGK     -0.122000
     18 C23         1.4980   -5.4240   13.2360 ca        1 MGK     -0.109000
     19 O14         1.8910   -0.9660    4.6510 o         1 MGK     -0.612100
     20 C05         3.2120    0.2830    2.4700 c3        1 MGK      0.042700
     21 C03         3.7760    1.6940    2.6300 c         1 MGK      0.610100
     22 O04         3.2600    2.7200    2.1860 o         1 MGK     -0.525000
     23 O02         4.9580    1.7900    3.2990 os        1 MGK     -0.450900
     24 C01         5.5250    3.1030    3.4210 c3        1 MGK      0.125700
     25 C06         3.3840   -0.1190    0.9810 c3        1 MGK      0.004900
     26 C07         2.1750    0.2070    0.2080 cc        1 MGK     -0.275900
     27 N11         1.6510    1.4940    0.0240 na        1 MGK     -0.302900
     28 N09         0.3110    0.0590   -1.1250 nd        1 MGK     -0.663000
     29 C08         1.3280   -0.6640   -0.5160 cd        1 MGK      0.325200
     30 H10        -0.0930    2.2050   -1.0970 h5        1 MGK      0.073100
     31 HN12        4.7830   -0.8110    3.3190 hn        1 MGK      0.340500
     32 H15         4.6310   -1.5340    5.9420 hx        1 MGK      0.139200
     33 H15A        4.4070   -2.9490    4.7900 hx        1 MGK      0.139200
     34 H17         4.5180   -2.6470    7.8060 hx        1 MGK      0.116200
     35 H17A        4.2830   -4.3140    7.0770 hx        1 MGK      0.116200
     36 H21         3.2120   -6.7680   10.6090 ha        1 MGK      0.129500
     37 H22         1.8780   -7.4580   12.5930 ha        1 MGK      0.145500
     38 H24         1.2910   -3.3070   13.6500 ha        1 MGK      0.145500
     39 H26         1.4120   -3.2040    4.9510 hx        1 MGK      0.142700
     40 H26A        1.3420   -4.1790    6.5110 hx        1 MGK      0.142700
     41 H18         2.1940   -4.6260    8.4290 hc        1 MGK      0.067700
     42 H18A        2.2700   -2.9150    9.0300 hc        1 MGK      0.067700
     43 H19         4.4780   -3.3810   10.1150 hc        1 MGK      0.061200
     44 H19A        4.4470   -5.0780    9.4800 hc        1 MGK      0.061200
     45 H25         2.6260   -2.6120   11.6660 ha        1 MGK      0.129500
     46 H23         0.9130   -5.7310   14.1170 ha        1 MGK      0.148000
     47 H05         2.1020    0.3590    2.7050 h1        1 MGK      0.138700
     48 H01         6.4740    2.9240    3.9830 h1        1 MGK      0.064367
     49 H01A        5.7200    3.5250    2.4060 h1        1 MGK      0.064367
     50 H01B        4.8250    3.7630    3.9880 h1        1 MGK      0.064367
     51 H06         4.2830    0.4030    0.5560 hc        1 MGK      0.076700
     52 H06A        3.5620   -1.2240    0.8900 hc        1 MGK      0.076700
     53 H08         1.4110   -1.7440   -0.6320 h4        1 MGK      0.041100
     54 HN11        2.0100    2.3270    0.4190 hn        1 MGK      0.325700
     55 H122        0.9920   -5.6590    4.5090 ho        1 MGK      0.452000
     56 H161        2.3460   -2.0530    6.7520 hn        1 MGK      0.470800
@<TRIPOS>BOND
     1    1   27 1   
     2    1   28 2   
     3    1   30 1   
     4    2    3 1   
     5    2   20 1   
     6    2   31 1   
     7    3    4 1   
     8    3   19 2   
     9    4   14 1   
    10    4   32 1   
    11    4   33 1   
    12    5   14 1   
    13    5   15 1   
    14    5   34 1   
    15    5   35 1   
    16    6    7 ar  
    17    6   16 1   
    18    6   17 ar  
    19    7    8 ar  
    20    7   36 1   
    21    8   18 ar  
    22    8   37 1   
    23    9   17 ar  
    24    9   18 ar  
    25    9   38 1   
    26   10   12 1   
    27   10   14 1   
    28   10   39 1   
    29   10   40 1   
    30   11   12 2   
    31   12   13 1   
    32   13   55 1   
    33   14   56 1   
    34   15   16 1   
    35   15   41 1   
    36   15   42 1   
    37   16   43 1   
    38   16   44 1   
    39   17   45 1   
    40   18   46 1   
    41   20   21 1   
    42   20   25 1   
    43   20   47 1   
    44   21   22 2   
    45   21   23 1   
    46   23   24 1   
    47   24   48 1   
    48   24   49 1   
    49   24   50 1   
    50   25   26 1   
    51   25   51 1   
    52   25   52 1   
    53   26   27 1   
    54   26   29 2   
    55   27   54 1   
    56   28   29 1   
    57   29   53 1   
@<TRIPOS>SUBSTRUCTURE
     1 MGK         1 TEMP              0 ****  ****    0 ROOT
