@<TRIPOS>MOLECULE
MGK
   54    55     1     0     0
SMALL
bcc


@<TRIPOS>ATOM
      1 C10        -5.1260    3.9660   -1.0980 cc        1 MGK      0.364400
      2 N12        -2.3890    0.2300   -0.5790 n         1 MGK     -0.558900
      3 C13        -1.4150    1.1790   -0.3700 c         1 MGK      0.676100
      4 C15        -0.0950    1.0220   -1.1380 c3        1 MGK      0.106800
      5 C17         2.2030    0.3180   -0.9920 c3        1 MGK      0.155800
      6 C20         5.7450    0.1120    0.4400 ca        1 MGK     -0.060300
      7 C21         6.5580   -1.0280    0.4230 ca        1 MGK     -0.128000
      8 C22         7.5870   -1.1730    1.3530 ca        1 MGK     -0.133000
      9 C24         7.0070    0.9560    2.3300 ca        1 MGK     -0.133000
     10 C26         0.4430   -1.2480   -0.4460 c3        1 MGK      0.017800
     11 O29         1.0060   -2.2050   -2.5910 o         1 MGK     -0.837800
     12 C27         0.0720   -1.8370   -1.8300 c         1 MGK      0.884600
     13 O28        -1.1590   -1.9110   -2.1300 o         1 MGK     -0.837800
     14 N16         0.8510    0.1540   -0.4500 n3        1 MGK     -0.708600
     15 C18         3.2820    0.0950    0.0700 c3        1 MGK     -0.070400
     16 C19         4.6520    0.2780   -0.5570 c3        1 MGK     -0.045100
     17 C25         5.9780    1.1030    1.4030 ca        1 MGK     -0.128000
     18 C23         7.8150   -0.1820    2.3070 ca        1 MGK     -0.145000
     19 O14        -1.6310    2.1970    0.3320 o         1 MGK     -0.683100
     20 C05        -3.5670    0.1510    0.2430 c3        1 MGK      0.068700
     21 C03        -3.6750   -1.1730    1.0040 c         1 MGK      0.616100
     22 O04        -4.6870   -1.8500    1.2060 o         1 MGK     -0.561000
     23 O02        -2.5040   -1.5840    1.5690 os        1 MGK     -0.413900
     24 C01        -2.5110   -2.8560    2.2160 c3        1 MGK      0.127700
     25 C06        -4.8720    0.3350   -0.5580 c3        1 MGK     -0.021100
     26 C07        -5.2160    1.7420   -0.8350 cc        1 MGK     -0.198900
     27 N11        -4.3750    2.8490   -0.7260 na        1 MGK     -0.294900
     28 N09        -6.3920    3.6260   -1.4410 nd        1 MGK     -0.686000
     29 C08        -6.4630    2.2480   -1.2810 cd        1 MGK      0.267200
     30 H10        -4.7100    4.9770   -1.1030 h5        1 MGK      0.051100
     31 HN12       -2.1440   -0.5970   -1.1150 hn        1 MGK      0.390500
     32 H15        -0.3250    0.6600   -2.1840 h1        1 MGK      0.061700
     33 H15A        0.3440    2.0590   -1.2020 h1        1 MGK      0.061700
     34 H17         2.3790   -0.4020   -1.8480 h1        1 MGK      0.048200
     35 H17A        2.3290    1.3630   -1.3920 h1        1 MGK      0.048200
     36 H21         6.3770   -1.8140   -0.3250 ha        1 MGK      0.135500
     37 H22         8.2180   -2.0720    1.3330 ha        1 MGK      0.122500
     38 H24         7.1810    1.7370    3.0840 ha        1 MGK      0.122500
     39 H26        -0.4290   -1.3500    0.2560 h1        1 MGK      0.046700
     40 H26A        1.2940   -1.8530   -0.0280 h1        1 MGK      0.046700
     41 H18         3.1520    0.8190    0.9150 hc        1 MGK      0.047700
     42 H18A        3.1990   -0.9390    0.4950 hc        1 MGK      0.047700
     43 H19         4.7210    1.3050   -1.0090 hc        1 MGK      0.049200
     44 H19A        4.7770   -0.4610   -1.3930 hc        1 MGK      0.049200
     45 H25         5.3370    1.9960    1.4250 ha        1 MGK      0.135500
     46 H23         8.6260   -0.2970    3.0390 ha        1 MGK      0.120000
     47 H05        -3.5100    0.9470    1.0520 h1        1 MGK      0.098700
     48 H01        -3.1800   -2.8210    3.1100 h1        1 MGK      0.048033
     49 H01A       -2.8570   -3.6460    1.5070 h1        1 MGK      0.048033
     50 H01B       -1.4420   -3.0070    2.5060 h1        1 MGK      0.048033
     51 H06        -4.8030   -0.2240   -1.5320 hc        1 MGK      0.083200
     52 H06A       -5.7190   -0.1200    0.0280 hc        1 MGK      0.083200
     53 H08        -7.3730    1.6900   -1.4880 h4        1 MGK      0.032100
     54 HN11       -3.4330    2.8430   -0.4130 hn        1 MGK      0.335700
@<TRIPOS>BOND
     1    1   27 1   
     2    1   28 2   
     3    1   30 1   
     4    2    3 1   
     5    2   20 1   
     6    2   31 1   
     7    3    4 1   
     8    3   19 2   
     9    4   14 1   
    10    4   32 1   
    11    4   33 1   
    12    5   14 1   
    13    5   15 1   
    14    5   34 1   
    15    5   35 1   
    16    6    7 ar  
    17    6   16 1   
    18    6   17 ar  
    19    7    8 ar  
    20    7   36 1   
    21    8   18 ar  
    22    8   37 1   
    23    9   17 ar  
    24    9   18 ar  
    25    9   38 1   
    26   10   12 1   
    27   10   14 1   
    28   10   39 1   
    29   10   40 1   
    30   11   12 1   
    31   12   13 1   
    32   15   16 1   
    33   15   41 1   
    34   15   42 1   
    35   16   43 1   
    36   16   44 1   
    37   17   45 1   
    38   18   46 1   
    39   20   21 1   
    40   20   25 1   
    41   20   47 1   
    42   21   22 2   
    43   21   23 1   
    44   23   24 1   
    45   24   48 1   
    46   24   49 1   
    47   24   50 1   
    48   25   26 1   
    49   25   51 1   
    50   25   52 1   
    51   26   27 1   
    52   26   29 2   
    53   27   54 1   
    54   28   29 1   
    55   29   53 1   
@<TRIPOS>SUBSTRUCTURE
     1 MGK         1 TEMP              0 ****  ****    0 ROOT
