@<TRIPOS>MOLECULE
MGK
   56    57     1     0     0
SMALL
bcc


@<TRIPOS>ATOM
      1 C10         0.6460    1.8310    0.9500 cc        1 MGK      0.416400
      2 N12         2.2160   -2.0810    2.5980 n         1 MGK     -0.532900
      3 C13         1.7560   -3.3370    2.3240 c         1 MGK      0.645100
      4 C15         0.7530   -3.9670    3.3110 c3        1 MGK      0.018800
      5 C17         0.2080   -6.0390    4.5350 c3        1 MGK      0.096800
      6 C20        -0.6190   -9.6430    5.4290 ca        1 MGK     -0.113300
      7 C21        -0.0820  -10.2610    6.5630 ca        1 MGK     -0.122000
      8 C22        -0.9310  -11.8160    4.4080 ca        1 MGK     -0.121000
      9 C24         0.0320  -11.6490    6.6170 ca        1 MGK     -0.121000
     10 C26         2.5870   -5.3290    4.2470 c3        1 MGK     -0.020200
     11 O29         3.9700   -3.9970    5.7980 oh        1 MGK     -0.524100
     12 C27         2.7390   -4.4330    5.4640 c         1 MGK      0.632100
     13 O28         1.8220   -4.0750    6.2040 o         1 MGK     -0.489000
     14 N16         1.2140   -5.3500    3.6560 n4        1 MGK     -0.659400
     15 C18         0.3680   -7.5530    4.5510 c3        1 MGK     -0.105400
     16 C19        -0.7580   -8.1620    5.3740 c3        1 MGK     -0.025100
     17 C25        -1.0460  -10.4290    4.3520 ca        1 MGK     -0.122000
     18 C23        -0.3910  -12.4280    5.5400 ca        1 MGK     -0.111000
     19 O14         2.1420   -4.0250    1.3570 o         1 MGK     -0.589100
     20 C05         3.3800   -1.5550    1.9220 c3        1 MGK      0.062700
     21 C03         4.6510   -2.2830    2.3740 c         1 MGK      0.640100
     22 O04         4.7380   -3.2660    3.1230 o         1 MGK     -0.619000
     23 O02         5.7750   -1.7600    1.8340 os        1 MGK     -0.409900
     24 C01         7.0210   -2.3910    2.1660 c3        1 MGK      0.122700
     25 C06         3.5700   -0.0410    2.1500 c3        1 MGK     -0.004100
     26 C07         2.3210    0.7040    1.9350 cc        1 MGK     -0.260900
     27 N11         1.8770    1.2160    0.7080 na        1 MGK     -0.303900
     28 N09         0.2840    1.7210    2.2500 nd        1 MGK     -0.655000
     29 C08         1.3140    1.0300    2.8740 cd        1 MGK      0.298200
     30 H10         0.0680    2.3330    0.1650 h5        1 MGK      0.078100
     31 HN12        4.6230   -4.1960    5.1020 ho        1 MGK      0.471000
     32 H15        -0.2510   -4.0340    2.7990 hx        1 MGK      0.135200
     33 H15A        0.6410   -3.3810    4.2690 hx        1 MGK      0.135200
     34 H17         0.3110   -5.6160    5.5790 hx        1 MGK      0.118700
     35 H17A       -0.8170   -5.7760    4.1420 hx        1 MGK      0.118700
     36 H21         0.2430   -9.6520    7.4210 ha        1 MGK      0.130000
     37 H22        -1.2730  -12.4300    3.5600 ha        1 MGK      0.144500
     38 H24         0.4500  -12.1310    7.5140 ha        1 MGK      0.144500
     39 H26         2.8580   -6.3830    4.5530 hx        1 MGK      0.145700
     40 H26A        3.3090   -4.9840    3.4390 hx        1 MGK      0.145700
     41 H18         0.3310   -7.9710    3.5100 hc        1 MGK      0.066700
     42 H18A        1.3520   -7.8450    5.0050 hc        1 MGK      0.066700
     43 H19        -1.7470   -7.8930    4.9150 hc        1 MGK      0.061700
     44 H19A       -0.7390   -7.7340    6.4120 hc        1 MGK      0.061700
     45 H25        -1.4830   -9.9510    3.4630 ha        1 MGK      0.130000
     46 H23        -0.3050  -13.5250    5.5850 ha        1 MGK      0.147000
     47 H05         3.2800   -1.7620    0.8100 h1        1 MGK      0.117700
     48 H01         7.1890   -2.3360    3.2670 h1        1 MGK      0.066700
     49 H01A        7.7720   -1.7830    1.6010 h1        1 MGK      0.066700
     50 H01B        7.0070   -3.4530    1.8230 h1        1 MGK      0.066700
     51 H06         3.9210    0.1420    3.2020 hc        1 MGK      0.090200
     52 H06A        4.3900    0.2960    1.4580 hc        1 MGK      0.090200
     53 H08         1.3030    0.8380    3.9460 h4        1 MGK      0.042100
     54 HN11        2.3810    1.2070   -0.1390 hn        1 MGK      0.310700
     55 H122        1.7700   -1.5000    3.2740 hn        1 MGK      0.352500
     56 H161        1.2910   -5.8770    2.7670 hn        1 MGK      0.469800
@<TRIPOS>BOND
     1    1   27 1   
     2    1   28 2   
     3    1   30 1   
     4    2    3 1   
     5    2   20 1   
     6    2   55 1   
     7    3    4 1   
     8    3   19 2   
     9    4   14 1   
    10    4   32 1   
    11    4   33 1   
    12    5   14 1   
    13    5   15 1   
    14    5   34 1   
    15    5   35 1   
    16    6    7 ar  
    17    6   16 1   
    18    6   17 ar  
    19    7    9 ar  
    20    7   36 1   
    21    8   17 ar  
    22    8   18 ar  
    23    8   37 1   
    24    9   18 ar  
    25    9   38 1   
    26   10   12 1   
    27   10   14 1   
    28   10   39 1   
    29   10   40 1   
    30   11   12 1   
    31   11   31 1   
    32   12   13 2   
    33   14   56 1   
    34   15   16 1   
    35   15   41 1   
    36   15   42 1   
    37   16   43 1   
    38   16   44 1   
    39   17   45 1   
    40   18   46 1   
    41   20   21 1   
    42   20   25 1   
    43   20   47 1   
    44   21   22 2   
    45   21   23 1   
    46   23   24 1   
    47   24   48 1   
    48   24   49 1   
    49   24   50 1   
    50   25   26 1   
    51   25   51 1   
    52   25   52 1   
    53   26   27 1   
    54   26   29 2   
    55   27   54 1   
    56   28   29 1   
    57   29   53 1   
@<TRIPOS>SUBSTRUCTURE
     1 MGK         1 TEMP              0 ****  ****    0 ROOT
