@<TRIPOS>MOLECULE
MGL
   27    27     1     0     0
SMALL
bcc


@<TRIPOS>ATOM
      1 C1          1.0280   -0.3040    0.6510 c3        1 MGL      0.304900
      2 C2         -0.1410    0.1930    1.5240 c3        1 MGL      0.089100
      3 C3         -1.4660   -0.2490    0.8880 c3        1 MGL      0.108100
      4 C4         -1.5210    0.2320   -0.5730 c3        1 MGL      0.122100
      5 C5         -0.2840   -0.2680   -1.3340 c3        1 MGL      0.108100
      6 C6         -0.2330    0.3290   -2.7440 c3        1 MGL      0.140400
      7 O1          2.1910    0.3430    1.1180 os        1 MGL     -0.421600
      8 O2         -0.0880   -0.4000    2.8090 oh        1 MGL     -0.603800
      9 O3         -2.5700    0.3440    1.5480 oh        1 MGL     -0.605800
     10 O4         -2.6560   -0.3060   -1.2270 oh        1 MGL     -0.594800
     11 O5          0.9140    0.1660   -0.6870 os        1 MGL     -0.449600
     12 O6          0.8520   -0.1920   -3.4790 oh        1 MGL     -0.594800
     13 H1          1.1250   -1.4240    0.6730 h2        1 MGL      0.054700
     14 H2         -0.1010    1.3130    1.6100 h1        1 MGL      0.077700
     15 H3         -1.5590   -1.3700    0.9340 h1        1 MGL      0.064700
     16 H4         -1.5650    1.3570   -0.5930 h1        1 MGL      0.064700
     17 H5         -0.2930   -1.3920   -1.3880 h1        1 MGL      0.068700
     18 H61        -1.1550    0.0210   -3.3050 h1        1 MGL      0.064700
     19 H62        -0.1660    1.4470   -2.6830 h1        1 MGL      0.064700
     20 H71         4.1900    0.5070    0.9840 h1        1 MGL      0.042367
     21 H72         3.5460   -1.1910    0.6850 h1        1 MGL      0.042367
     22 H73         3.3560    0.0980   -0.6050 h1        1 MGL      0.042367
     23 HO2         0.7470   -0.1170    3.2070 ho        1 MGL      0.425000
     24 HO3        -2.4920    0.1090    2.4830 ho        1 MGL      0.427000
     25 HO4        -3.4210   -0.0620   -0.6890 ho        1 MGL      0.426000
     26 HO6         1.6570    0.0410   -2.9970 ho        1 MGL      0.409000
     27 C7          3.3900   -0.1010    0.4930 c3        1 MGL      0.122700
@<TRIPOS>BOND
     1    1    2 1   
     2    1    7 1   
     3    1   11 1   
     4    1   13 1   
     5    2    3 1   
     6    2    8 1   
     7    2   14 1   
     8    3    4 1   
     9    3    9 1   
    10    3   15 1   
    11    4    5 1   
    12    4   10 1   
    13    4   16 1   
    14    5    6 1   
    15    5   11 1   
    16    5   17 1   
    17    6   12 1   
    18    6   18 1   
    19    6   19 1   
    20    7   27 1   
    21    8   23 1   
    22    9   24 1   
    23   10   25 1   
    24   12   26 1   
    25   20   27 1   
    26   21   27 1   
    27   22   27 1   
@<TRIPOS>SUBSTRUCTURE
     1 MGL         1 TEMP              0 ****  ****    0 ROOT
