@<TRIPOS>MOLECULE
MGN
   22    21     1     0     0
SMALL
bcc


@<TRIPOS>ATOM
      1 N          -1.0510   -1.2490   -1.2390 n3        1 MGN     -0.883800
      2 CA         -0.5370    0.0800   -0.8810 c3        1 MGN      0.023200
      3 CB1         0.0290    0.0960    0.5500 c3        1 MGN     -0.064400
      4 CB2        -1.6260    1.1470   -1.0190 c3        1 MGN     -0.066100
      5 CG         -0.9850   -0.2400    1.6170 c3        1 MGN     -0.142400
      6 CD         -0.4430   -0.3010    3.0290 c         1 MGN      0.656100
      7 OE1        -1.1190   -0.7930    3.9630 o         1 MGN     -0.667100
      8 NE2         0.7990    0.2100    3.3180 n         1 MGN     -0.679000
      9 C           0.6540    0.5460   -1.8160 c         1 MGN      0.892600
     10 O           1.2860    1.5830   -1.4780 o         1 MGN     -0.837300
     11 OXT         0.8990   -0.1460   -2.8430 o         1 MGN     -0.837300
     12 H          -0.2690   -1.8810   -1.2360 hn        1 MGN      0.333800
     13 H2         -1.3650   -1.1960   -2.1930 hn        1 MGN      0.333800
     14 HB11        0.8870   -0.6260    0.6000 hc        1 MGN      0.048200
     15 HB12        0.4430    1.1290    0.7070 hc        1 MGN      0.048200
     16 HB21       -1.1980    2.1320   -0.7120 hc        1 MGN      0.024367
     17 HB22       -1.9570    1.2230   -2.0820 hc        1 MGN      0.024367
     18 HB23       -2.5150    0.9160   -0.3850 hc        1 MGN      0.024367
     19 HG1        -1.8060    0.5260    1.6200 hc        1 MGN      0.076700
     20 HG2        -1.4580   -1.2370    1.4050 hc        1 MGN      0.076700
     21 HN21        1.1540    0.1400    4.2370 hn        1 MGN      0.307000
     22 HN22        1.3830    0.5630    2.6040 hn        1 MGN      0.307000
@<TRIPOS>BOND
     1    1    2 1   
     2    1   12 1   
     3    1   13 1   
     4    2    3 1   
     5    2    4 1   
     6    2    9 1   
     7    3    5 1   
     8    3   14 1   
     9    3   15 1   
    10    4   16 1   
    11    4   17 1   
    12    4   18 1   
    13    5    6 1   
    14    5   19 1   
    15    5   20 1   
    16    6    7 2   
    17    6    8 1   
    18    8   21 1   
    19    8   22 1   
    20    9   10 1   
    21    9   11 1   
@<TRIPOS>SUBSTRUCTURE
     1 MGN         1 TEMP              0 ****  ****    0 ROOT
