@<TRIPOS>MOLECULE
MGO
   50    52     1     0     0
SMALL
bcc


@<TRIPOS>ATOM
      1 OAJ         0.0000    0.0000    0.0000 o         1 MGO     -0.380167
      2 PBE         1.6430    0.0000    0.0000 p5        1 MGO      0.829900
      3 OAD         1.9860    0.0000    1.6190 o         1 MGO     -0.380167
      4 OAI         2.2070    1.1550   -0.7850 o         1 MGO     -0.380167
      5 OAS         2.1590   -1.4480   -0.6170 os        1 MGO     -0.452800
      6 PBG         1.2250   -2.7490   -0.7380 p5        1 MGO      1.029800
      7 OAL         2.3450   -3.8860   -0.9770 o         1 MGO     -0.550500
      8 OAF         0.3430   -2.9700    0.4270 o         1 MGO     -0.550500
      9 OAT         0.3500   -2.5760   -2.0270 os        1 MGO     -0.439800
     10 PBF         0.8410   -2.9240   -3.4950 p5        1 MGO      0.932800
     11 OAK        -0.5150   -2.6030   -4.3530 o         1 MGO     -0.668000
     12 OAE         1.2800   -4.3420   -3.6060 o         1 MGO     -0.668000
     13 O5'         1.9980   -1.8800   -3.9130 os        1 MGO     -0.499200
     14 C5'         3.3700   -2.0890   -3.5870 c3        1 MGO      0.244400
     15 C4'         4.3120   -1.8250   -4.7400 c3        1 MGO      0.152100
     16 O4'         4.1190   -2.9050   -5.6740 os        1 MGO     -0.373600
     17 C3'         3.9500   -0.5880   -5.5680 c3        1 MGO      0.138100
     18 O3'         4.5120    0.5550   -4.9910 oh        1 MGO     -0.569800
     19 C2'         4.6590   -0.9100   -6.8610 c3        1 MGO      0.094100
     20 O2'         6.0610   -0.9530   -6.6650 oh        1 MGO     -0.559800
     21 C1'         4.2050   -2.3480   -7.0470 c3        1 MGO      0.153800
     22 NBC         2.9080   -2.4370   -7.8290 na        1 MGO      0.333900
     23 CAN         1.6720   -2.7440   -7.3570 cc        1 MGO     -0.412600
     24 NBD         0.8190   -2.7420   -8.4040 na        1 MGO      0.661900
     25 CAA        -0.6280   -3.0170   -8.3010 c3        1 MGO     -0.062400
     26 CAX         1.4800   -2.4350   -9.5390 cc        1 MGO     -0.619900
     27 CAW         2.8180   -2.2400   -9.1550 cd        1 MGO     -0.109100
     28 CAM         3.7970   -1.9040  -10.0840 cd        1 MGO     -0.270200
     29 CAU         3.4420   -1.7490  -11.4090 cc        1 MGO     -0.813400
     30 NAB         4.3830   -1.4140  -12.2880 nz        1 MGO      0.506600
     31 NAP         2.1030   -1.9220  -11.8220 ns        1 MGO     -0.013100
     32 CAV         1.1150   -2.2580  -10.8890 c         1 MGO      0.740100
     33 OAC        -0.0350   -2.4050  -11.2890 o         1 MGO     -0.801500
     34 H51         3.6340   -1.4330   -2.7660 h1        1 MGO      0.027200
     35 H52         3.4960   -3.1160   -3.2650 h1        1 MGO      0.027200
     36 H4          5.3420   -1.7820   -4.4080 h1        1 MGO      0.029700
     37 H3          2.8800   -0.4970   -5.7080 h1        1 MGO      0.065700
     38 H1          4.9760   -2.8850   -7.5870 h2        1 MGO      0.036700
     39 HA          3.9390    1.2910   -5.1290 ho        1 MGO      0.384000
     40 H2          4.3550   -0.2680   -7.6790 h1        1 MGO      0.026700
     41 HB          6.4700   -0.2680   -7.1680 ho        1 MGO      0.373000
     42 HAN         1.4320   -3.0340   -6.3420 h5        1 MGO      0.243000
     43 HAA1       -0.9650   -3.5230   -9.1980 h1        1 MGO      0.043367
     44 HAA2       -0.8150   -3.6470   -7.4400 h1        1 MGO      0.043367
     45 HAA3       -1.1660   -2.0830   -8.1890 h1        1 MGO      0.043367
     46 HAM         4.7820   -1.6040   -9.7480 ha        1 MGO      0.088000
     47 HAB1        5.1490   -2.0540  -12.2160 hn        1 MGO      0.067133
     48 HAB2        4.7040   -0.4860  -12.0960 hn        1 MGO      0.067133
     49 HAP         1.8600   -1.8070  -12.7860 hn        1 MGO      0.122500
     50 HAB3        4.0030   -1.4510  -13.2130 hn        1 MGO      0.067133
@<TRIPOS>BOND
     1    1    2 1   
     2    2    3 1   
     3    2    4 1   
     4    2    5 1   
     5    5    6 1   
     6    6    7 1   
     7    6    8 1   
     8    6    9 1   
     9    9   10 1   
    10   10   11 1   
    11   10   12 1   
    12   10   13 1   
    13   13   14 1   
    14   14   15 1   
    15   14   34 1   
    16   14   35 1   
    17   15   16 1   
    18   15   17 1   
    19   15   36 1   
    20   16   21 1   
    21   17   18 1   
    22   17   19 1   
    23   17   37 1   
    24   18   39 1   
    25   19   20 1   
    26   19   21 1   
    27   19   40 1   
    28   20   41 1   
    29   21   22 1   
    30   21   38 1   
    31   22   23 2   
    32   22   27 1   
    33   23   24 1   
    34   23   42 1   
    35   24   25 1   
    36   24   26 1   
    37   25   43 1   
    38   25   44 1   
    39   25   45 1   
    40   26   27 2   
    41   26   32 1   
    42   27   28 1   
    43   28   29 2   
    44   28   46 1   
    45   29   30 1   
    46   29   31 1   
    47   30   47 1   
    48   30   48 1   
    49   30   50 1   
    50   31   32 1   
    51   31   49 1   
    52   32   33 2   
@<TRIPOS>SUBSTRUCTURE
     1 MGO         1 TEMP              0 ****  ****    0 ROOT
