@<TRIPOS>MOLECULE
MGR
   50    52     1     0     0
SMALL
bcc


@<TRIPOS>ATOM
      1 C1         -0.0470    0.0530   -0.1080 ce        1 MGR      0.295600
      2 C2          1.3990    0.1320   -0.2670 ca        1 MGR     -0.156800
      3 C3          2.2080   -0.9870    0.0040 ca        1 MGR     -0.080000
      4 C4          3.5900   -0.9040   -0.1410 ca        1 MGR     -0.138000
      5 C5          4.1810    0.2840   -0.5740 ca        1 MGR     -0.072000
      6 C6          3.3860    1.3970   -0.8540 ca        1 MGR     -0.138000
      7 C7          2.0050    1.3280   -0.6940 ca        1 MGR     -0.080000
      8 C8         -0.7190   -1.1310   -0.5130 cd        1 MGR     -0.220000
      9 C9         -0.1760   -1.9760   -1.5190 cd        1 MGR      0.000500
     10 C10        -0.8180   -3.1160   -1.9330 cc        1 MGR     -0.326600
     11 C11        -2.0600   -3.5220   -1.3420 cc        1 MGR      0.426900
     12 C12        -2.5900   -2.6870   -0.3030 cc        1 MGR     -0.326600
     13 C13        -1.9430   -1.5380    0.0810 cd        1 MGR      0.000500
     14 C14        -0.7390    1.1610    0.4480 ca        1 MGR     -0.231800
     15 C15        -0.0850    2.0720    1.3220 ca        1 MGR      0.000500
     16 C16        -0.7410    3.1410    1.8790 ca        1 MGR     -0.240000
     17 C17        -2.1180    3.4040    1.5770 ca        1 MGR      0.280600
     18 C18        -2.7670    2.5040    0.6680 ca        1 MGR     -0.240000
     19 C19        -2.1000    1.4270    0.1390 ca        1 MGR      0.000500
     20 C22        -2.1420   -5.4950   -2.7720 c3        1 MGR      0.007100
     21 C23        -3.9600   -5.0380   -1.1480 c3        1 MGR      0.007100
     22 C24        -2.0990    5.3740    3.0140 c3        1 MGR      0.184600
     23 C25        -4.1670    4.7030    1.8180 c3        1 MGR      0.184600
     24 N2         -2.7070   -4.6560   -1.7470 nh        1 MGR     -0.251100
     25 N3         -2.7800    4.4650    2.1260 nh        1 MGR     -0.633000
     26 H31         1.7450   -1.9240    0.3520 ha        1 MGR      0.149000
     27 H41         4.2180   -1.7800    0.0870 ha        1 MGR      0.155000
     28 H51         5.2750    0.3440   -0.6950 ha        1 MGR      0.156000
     29 H61         3.8510    2.3330   -1.2030 ha        1 MGR      0.155000
     30 H71         1.3780    2.2060   -0.9220 ha        1 MGR      0.149000
     31 H91         0.7740   -1.6850   -2.0030 ha        1 MGR      0.153000
     32 H101       -0.3660   -3.7200   -2.7360 ha        1 MGR      0.156500
     33 H121       -3.5220   -2.9710    0.2090 ha        1 MGR      0.156500
     34 H131       -2.3620   -0.9380    0.9080 ha        1 MGR      0.153000
     35 H151        0.9730    1.8910    1.5840 ha        1 MGR      0.153000
     36 H161       -0.1940    3.8000    2.5720 ha        1 MGR      0.156500
     37 H181       -3.8140    2.6790    0.3740 ha        1 MGR      0.156500
     38 H191       -2.6210    0.7750   -0.5850 ha        1 MGR      0.153000
     39 H221       -1.1250   -5.8600   -2.4590 h1        1 MGR      0.061700
     40 H222       -2.8010   -6.3850   -2.9510 h1        1 MGR      0.061700
     41 H223       -2.0440   -4.9210   -3.7340 h1        1 MGR      0.061700
     42 H231       -4.7190   -4.2200   -1.2810 h1        1 MGR      0.061700
     43 H232       -3.8230   -5.2340   -0.0500 h1        1 MGR      0.061700
     44 H233       -4.3530   -5.9710   -1.6330 h1        1 MGR      0.061700
     45 H241       -1.2210    5.8420    2.4910 h1        1 MGR      0.061700
     46 H242       -1.7340    4.8250    3.9240 h1        1 MGR      0.061700
     47 H243       -2.7960    6.1890    3.3420 h1        1 MGR      0.061700
     48 H251       -4.5430    5.5940    2.3880 h1        1 MGR      0.061700
     49 H252       -4.7860    3.8090    2.1030 h1        1 MGR      0.061700
     50 H253       -4.2940    4.9000    0.7190 h1        1 MGR      0.061700
@<TRIPOS>BOND
     1    1    2 1   
     2    1    8 2   
     3    1   14 1   
     4    2    3 ar  
     5    2    7 ar  
     6    3    4 ar  
     7    3   26 1   
     8    4    5 ar  
     9    4   27 1   
    10    5    6 ar  
    11    5   28 1   
    12    6    7 ar  
    13    6   29 1   
    14    7   30 1   
    15    8    9 1   
    16    8   13 1   
    17    9   10 2   
    18    9   31 1   
    19   10   11 1   
    20   10   32 1   
    21   11   12 1   
    22   11   24 2   
    23   12   13 2   
    24   12   33 1   
    25   13   34 1   
    26   14   15 ar  
    27   14   19 ar  
    28   15   16 ar  
    29   15   35 1   
    30   16   17 ar  
    31   16   36 1   
    32   17   18 ar  
    33   17   25 1   
    34   18   19 ar  
    35   18   37 1   
    36   19   38 1   
    37   20   24 1   
    38   20   39 1   
    39   20   40 1   
    40   20   41 1   
    41   21   24 1   
    42   21   42 1   
    43   21   43 1   
    44   21   44 1   
    45   22   25 1   
    46   22   45 1   
    47   22   46 1   
    48   22   47 1   
    49   23   25 1   
    50   23   48 1   
    51   23   49 1   
    52   23   50 1   
@<TRIPOS>SUBSTRUCTURE
     1 MGR         1 TEMP              0 ****  ****    0 ROOT
