@<TRIPOS>MOLECULE
MGR
   50    52     1     0     0
SMALL
bcc


@<TRIPOS>ATOM
      1 C1         -0.0220    0.7390   -0.0810 ce        1 MGR      0.295600
      2 C2         -0.0650    2.1910   -0.1930 ca        1 MGR     -0.156800
      3 C3          0.7930    2.9910    0.5850 ca        1 MGR     -0.080000
      4 C4          0.7430    4.3780    0.4820 ca        1 MGR     -0.138000
      5 C5         -0.1460    4.9840   -0.4080 ca        1 MGR     -0.072000
      6 C6         -0.9950    4.1990   -1.1900 ca        1 MGR     -0.138000
      7 C7         -0.9640    2.8120   -1.0800 ca        1 MGR     -0.080000
      8 C8          1.2380    0.0970    0.0530 cd        1 MGR     -0.220000
      9 C9          2.4250    0.6980   -0.4470 cd        1 MGR      0.000500
     10 C10         3.6490    0.0860   -0.3380 cc        1 MGR     -0.326600
     11 C11         3.7870   -1.1830    0.3150 cc        1 MGR      0.426900
     12 C12         2.5930   -1.7730    0.8480 cc        1 MGR     -0.326600
     13 C13         1.3740   -1.1560    0.7090 cd        1 MGR      0.000500
     14 C14        -1.2410    0.0110   -0.1100 ca        1 MGR     -0.231800
     15 C15        -2.4640    0.6120    0.2970 ca        1 MGR      0.000500
     16 C16        -3.6500   -0.0800    0.2890 ca        1 MGR     -0.240000
     17 C17        -3.7100   -1.4400   -0.1620 ca        1 MGR      0.280600
     18 C18        -2.4820   -2.0340   -0.6040 ca        1 MGR     -0.240000
     19 C19        -1.3020   -1.3320   -0.5670 ca        1 MGR      0.000500
     20 C22         6.1910   -1.1760   -0.0890 c3        1 MGR      0.007100
     21 C23         5.1140   -3.0820    1.0750 c3        1 MGR      0.007100
     22 C24        -6.1130   -1.5110    0.2470 c3        1 MGR      0.184600
     23 C25        -4.9200   -3.5070   -0.6180 c3        1 MGR      0.184600
     24 N2          5.0000   -1.8010    0.4270 nh        1 MGR     -0.251100
     25 N3         -4.8850   -2.1370   -0.1730 nh        1 MGR     -0.633000
     26 H31         1.4920    2.5150    1.2920 ha        1 MGR      0.149000
     27 H41         1.4070    4.9980    1.1040 ha        1 MGR      0.155000
     28 H51        -0.1790    6.0830   -0.4920 ha        1 MGR      0.156000
     29 H61        -1.6920    4.6760   -1.8970 ha        1 MGR      0.155000
     30 H71        -1.6300    2.1930   -1.7030 ha        1 MGR      0.149000
     31 H91         2.3520    1.6710   -0.9650 ha        1 MGR      0.153000
     32 H101        4.5330    0.5840   -0.7670 ha        1 MGR      0.156500
     33 H121        2.6460   -2.7310    1.3890 ha        1 MGR      0.156500
     34 H131        0.4810   -1.6220    1.1620 ha        1 MGR      0.153000
     35 H151       -2.4500    1.6550    0.6600 ha        1 MGR      0.153000
     36 H161       -4.5640    0.4250    0.6400 ha        1 MGR      0.156500
     37 H181       -2.4770   -3.0640   -0.9930 ha        1 MGR      0.156500
     38 H191       -0.3810   -1.8100   -0.9480 ha        1 MGR      0.153000
     39 H221        7.0870   -1.8190    0.1160 h1        1 MGR      0.061700
     40 H222        6.1010   -1.0300   -1.2010 h1        1 MGR      0.061700
     41 H223        6.3490   -0.1760    0.3990 h1        1 MGR      0.061700
     42 H231        6.1760   -3.4420    1.0400 h1        1 MGR      0.061700
     43 H232        4.7970   -3.0030    2.1510 h1        1 MGR      0.061700
     44 H233        4.4620   -3.8380    0.5580 h1        1 MGR      0.061700
     45 H241       -6.3260   -0.6080   -0.3880 h1        1 MGR      0.061700
     46 H242       -6.9690   -2.2290    0.1460 h1        1 MGR      0.061700
     47 H243       -6.0370   -1.1920    1.3220 h1        1 MGR      0.061700
     48 H251       -4.2290   -4.1350    0.0060 h1        1 MGR      0.061700
     49 H252       -5.9600   -3.9190   -0.5230 h1        1 MGR      0.061700
     50 H253       -4.6050   -3.5750   -1.6950 h1        1 MGR      0.061700
@<TRIPOS>BOND
     1    1    2 1   
     2    1    8 2   
     3    1   14 1   
     4    2    3 ar  
     5    2    7 ar  
     6    3    4 ar  
     7    3   26 1   
     8    4    5 ar  
     9    4   27 1   
    10    5    6 ar  
    11    5   28 1   
    12    6    7 ar  
    13    6   29 1   
    14    7   30 1   
    15    8    9 1   
    16    8   13 1   
    17    9   10 2   
    18    9   31 1   
    19   10   11 1   
    20   10   32 1   
    21   11   12 1   
    22   11   24 2   
    23   12   13 2   
    24   12   33 1   
    25   13   34 1   
    26   14   15 ar  
    27   14   19 ar  
    28   15   16 ar  
    29   15   35 1   
    30   16   17 ar  
    31   16   36 1   
    32   17   18 ar  
    33   17   25 1   
    34   18   19 ar  
    35   18   37 1   
    36   19   38 1   
    37   20   24 1   
    38   20   39 1   
    39   20   40 1   
    40   20   41 1   
    41   21   24 1   
    42   21   42 1   
    43   21   43 1   
    44   21   44 1   
    45   22   25 1   
    46   22   45 1   
    47   22   46 1   
    48   22   47 1   
    49   23   25 1   
    50   23   48 1   
    51   23   49 1   
    52   23   50 1   
@<TRIPOS>SUBSTRUCTURE
     1 MGR         1 TEMP              0 ****  ****    0 ROOT
