@<TRIPOS>MOLECULE
MGS
   44    41     1     0     0
SMALL
bcc


@<TRIPOS>ATOM
      1 C1          1.3090    3.2670   -1.1540 c1        1 MGS     -0.091000
      2 O1          3.6500   -2.8470    3.3060 o         1 MGS     -0.398000
      3 C7          4.2630   -3.8930    3.0720 c2        1 MGS      0.200000
      4 C2         -0.5730    0.8110   -0.3330 c3        1 MGS     -0.049000
      5 O2         -0.6010   -0.5190   -0.8300 os        1 MGS     -0.290000
      6 C8          0.2940   -0.7510   -1.9110 c3        1 MGS     -0.081000
      7 C3          0.2670    0.8790    0.9100 c2        1 MGS      0.055000
      8 O3          0.6320   -0.3190    1.4980 oh        1 MGS     -0.348000
      9 C4          0.6790    2.0130    1.5070 c2        1 MGS     -0.281000
     10 N4          2.1710   -0.5810    3.8160 nz        1 MGS     -0.120000
     11 C9          1.7150   -0.1490    5.1710 c2        1 MGS      0.248000
     12 O9          1.0530   -0.9500    5.8120 o         1 MGS     -0.173000
     13 C5          0.3510    3.3680    0.9880 c3        1 MGS      0.077000
     14 O5          1.3920    3.7960    0.0390 os        1 MGS     -0.170000
     15 C6          0.3580    4.4160    2.0820 c3        1 MGS     -0.219000
     16 O12         1.1660    3.2650    6.4860 oh        1 MGS     -0.308000
     17 C11         3.4030    1.0970    6.4840 c3        1 MGS     -0.248000
     18 C10         2.1480    1.2470    5.6330 c3        1 MGS      0.045000
     19 O10         2.4430    2.0100    4.4750 oh        1 MGS     -0.351000
     20 HC1        -0.6300    3.3680    0.4360 h1        1 MGS      0.117000
     21 HC71        2.1370    3.6860   -1.7790 ha        1 MGS      0.061000
     22 HC72        5.3610   -3.9680    3.2150 h4        1 MGS      0.101500
     23 HC73        3.7410   -4.8030    2.7080 h4        1 MGS      0.101500
     24 HC2        -0.1840    1.5490   -1.0940 h1        1 MGS      0.148500
     25 HC81        0.0780   -0.0540   -2.7570 h1        1 MGS      0.086667
     26 HC82        1.3510   -0.6280   -1.5690 h1        1 MGS      0.086667
     27 HC83        0.0920   -1.8100   -2.2110 h1        1 MGS      0.086667
     28 HC3        -1.6420    1.0500   -0.0740 h1        1 MGS      0.148500
     29 HO3         0.2610   -1.0460    0.9670 ho        1 MGS      0.266000
     30 HC4         1.9320    0.1490    3.1230 hn        1 MGS      0.280667
     31 HN4         1.2940    1.9910    2.4200 ha        1 MGS      0.123000
     32 HC5         1.7340   -1.4680    3.5320 hn        1 MGS      0.280667
     33 HC61        0.2060    5.4300    1.6400 hc        1 MGS      0.094000
     34 HC62       -0.4670    4.2020    2.8010 hc        1 MGS      0.094000
     35 HC63        1.3320    4.4110    2.6280 hc        1 MGS      0.094000
     36 H121        0.9390    1.4050    7.4610 h1        1 MGS      0.127000
     37 H122        3.2300    0.3710    7.3140 hc        1 MGS      0.113667
     38 HO12        1.7250    3.4770    7.2460 ho        1 MGS      0.227000
     39 HC10        3.6630    2.0950    6.9180 hc        1 MGS      0.113667
     40 HO10        0.0110    1.7150    5.9030 h1        1 MGS      0.127000
     41 H111        2.1630    2.9290    4.6300 ho        1 MGS      0.272000
     42 C12         0.9840    1.8710    6.4440 c3        1 MGS     -0.044000
     43 H42         3.1910   -0.7140    3.8170 hn        1 MGS      0.280667
     44 H112        4.2630    0.7560    5.8590 hc        1 MGS      0.113667
@<TRIPOS>BOND
     1    1   14 1   
     2    1   21 1   
     3    2    3 1   
     4    3   22 1   
     5    3   23 1   
     6    4    5 1   
     7    4    7 1   
     8    4   24 1   
     9    4   28 1   
    10    5    6 1   
    11    6   25 1   
    12    6   26 1   
    13    6   27 1   
    14    7    8 1   
    15    7    9 1   
    16    8   29 1   
    17    9   13 1   
    18    9   31 1   
    19   10   11 1   
    20   10   30 1   
    21   10   32 1   
    22   10   43 1   
    23   11   12 1   
    24   11   18 1   
    25   13   14 1   
    26   13   15 1   
    27   13   20 1   
    28   15   33 1   
    29   15   34 1   
    30   15   35 1   
    31   16   38 1   
    32   16   42 1   
    33   17   18 1   
    34   17   37 1   
    35   17   39 1   
    36   17   44 1   
    37   18   19 1   
    38   18   42 1   
    39   19   41 1   
    40   36   42 1   
    41   40   42 1   
@<TRIPOS>SUBSTRUCTURE
     1 MGS         1 TEMP              0 ****  ****    0 ROOT
