@<TRIPOS>MOLECULE
MGS
   43    43     1     0     0
SMALL
bcc


@<TRIPOS>ATOM
      1 C1          0.3020   -0.3030    3.3300 c3        1 MGS      0.306900
      2 O1          0.7140   -1.6260    3.6320 os        1 MGS     -0.453600
      3 C7          1.7800   -1.6940    4.5680 c3        1 MGS      0.121700
      4 C2         -1.0330   -0.4180    2.5710 c3        1 MGS      0.092100
      5 O2         -1.6580    0.8610    2.4980 os        1 MGS     -0.419600
      6 C8         -2.4660    1.1690    3.6240 c3        1 MGS      0.114700
      7 C3         -0.8220   -0.8860    1.1230 c3        1 MGS      0.132100
      8 O3         -2.0310   -0.8410    0.3980 oh        1 MGS     -0.594800
      9 C4          0.2860   -0.0320    0.4550 c3        1 MGS      0.036700
     10 N4          0.4680   -0.3740   -0.9360 n         1 MGS     -0.541900
     11 C9          0.5940    0.5870   -1.9140 c         1 MGS      0.626100
     12 O9          0.7300    1.8000   -1.6550 o         1 MGS     -0.609100
     13 C5          1.5780   -0.2220    1.2940 c3        1 MGS      0.141100
     14 O5          1.3540    0.2950    2.6120 os        1 MGS     -0.426600
     15 C6          2.7480    0.5630    0.7380 c3        1 MGS     -0.093100
     16 O12        -2.2070   -0.6490   -5.6800 oh        1 MGS     -0.602800
     17 C11        -0.8310   -0.0610   -3.8540 c3        1 MGS     -0.117400
     18 C10         0.6060    0.1210   -3.3780 c3        1 MGS      0.080100
     19 O10         1.3040    1.0600   -4.1680 oh        1 MGS     -0.587800
     20 HC1         0.1960    0.3330    4.2550 h2        1 MGS      0.080700
     21 HC71        2.0180   -2.7840    4.6370 h1        1 MGS      0.039700
     22 HC72        2.6610   -1.1150    4.2000 h1        1 MGS      0.039700
     23 HC73        1.4460   -1.2990    5.5600 h1        1 MGS      0.039700
     24 HC2        -1.6960   -1.1550    3.1050 h1        1 MGS      0.076700
     25 HC81       -2.8650    2.1910    3.4020 h1        1 MGS      0.039700
     26 HC82       -3.3010    0.4320    3.7220 h1        1 MGS      0.039700
     27 HC83       -1.8550    1.1820    4.5590 h1        1 MGS      0.039700
     28 HC3        -0.5320   -1.9750    1.1380 h1        1 MGS      0.091700
     29 HO3        -2.3570    0.0700    0.4370 ho        1 MGS      0.421000
     30 HC4        -0.0100    1.0600    0.5280 h1        1 MGS      0.108700
     31 HN4         0.2090   -1.2940   -1.2040 hn        1 MGS      0.314500
     32 HC5         1.8270   -1.3160    1.3780 h1        1 MGS      0.048700
     33 HC61        3.5080    0.7330    1.5380 hc        1 MGS      0.053367
     34 HC62        3.2180   -0.0090   -0.0970 hc        1 MGS      0.053367
     35 HC63        2.4060    1.5540    0.3500 hc        1 MGS      0.053367
     36 H121       -0.2710    0.1100   -5.9520 h1        1 MGS      0.031200
     37 H122       -0.3870   -1.6070   -5.3320 h1        1 MGS      0.031200
     38 HO12       -2.2070   -0.8870   -6.6140 ho        1 MGS      0.403000
     39 H112       -1.3740    0.9190   -3.8140 hc        1 MGS      0.069200
     40 HC10        1.1920   -0.8340   -3.4980 h1        1 MGS      0.087700
     41 HO10        1.0130    1.9470   -3.9050 ho        1 MGS      0.428000
     42 H111       -1.3690   -0.7780   -3.1830 hc        1 MGS      0.069200
     43 C12        -0.8470   -0.5830   -5.2810 c3        1 MGS      0.134400
@<TRIPOS>BOND
     1    1    2 1   
     2    1    4 1   
     3    1   14 1   
     4    1   20 1   
     5    2    3 1   
     6    3   21 1   
     7    3   22 1   
     8    3   23 1   
     9    4    5 1   
    10    4    7 1   
    11    4   24 1   
    12    5    6 1   
    13    6   25 1   
    14    6   26 1   
    15    6   27 1   
    16    7    8 1   
    17    7    9 1   
    18    7   28 1   
    19    8   29 1   
    20    9   10 1   
    21    9   13 1   
    22    9   30 1   
    23   10   11 1   
    24   10   31 1   
    25   11   12 2   
    26   11   18 1   
    27   13   14 1   
    28   13   15 1   
    29   13   32 1   
    30   15   33 1   
    31   15   34 1   
    32   15   35 1   
    33   16   38 1   
    34   16   43 1   
    35   17   18 1   
    36   17   39 1   
    37   17   42 1   
    38   17   43 1   
    39   18   19 1   
    40   18   40 1   
    41   19   41 1   
    42   36   43 1   
    43   37   43 1   
@<TRIPOS>SUBSTRUCTURE
     1 MGS         1 TEMP              0 ****  ****    0 ROOT
