@<TRIPOS>MOLECULE
MGS
   43    41     1     0     0
SMALL
bcc


@<TRIPOS>ATOM
      1 C1         -0.4570    0.9560    0.0080 c3        1 MGS     -0.103000
      2 O1         -1.0340   -1.8720    1.7550 o         1 MGS     -0.295000
      3 C7         -1.7270   -2.8660    1.5540 c2        1 MGS      0.148000
      4 C2         -0.3690    1.0410   -1.4760 c1        1 MGS     -0.030000
      5 O2          0.8050    1.4230   -1.9330 os        1 MGS     -0.157000
      6 C8          0.8930    1.5080   -3.3720 c3        1 MGS     -0.073000
      7 C3          2.8380   -0.2910    1.7260 c3        1 MGS     -0.022000
      8 O3          4.2480   -0.3210    1.7240 oh        1 MGS     -0.322000
      9 C4          2.2720    0.9630    2.4270 c3        1 MGS     -0.036000
     10 N4          2.4910    0.9140    3.8590 n         1 MGS     -0.343000
     11 C9          2.9530    2.0170    4.5490 c2        1 MGS      0.270000
     12 O9          3.4170    3.0300    3.9860 o         1 MGS     -0.367000
     13 C5          0.7670    1.0790    2.0530 c3        1 MGS      0.005000
     14 O5          0.7620    1.3240    0.6430 os        1 MGS     -0.281000
     15 C6          0.0860    2.2180    2.7870 c3        1 MGS     -0.245000
     16 O12         0.6590    1.2400    6.1630 oh        1 MGS     -0.336000
     17 C11         4.3870    1.5600    6.5290 c3        1 MGS     -0.239000
     18 C10         2.9890    1.9730    6.0930 c3        1 MGS      0.028000
     19 O10         2.6770    3.2770    6.5690 oh        1 MGS     -0.330000
     20 HC1         0.2440    0.1040    2.2730 h1        1 MGS      0.099000
     21 HC71       -1.2850    1.6450    0.3340 h1        1 MGS      0.115500
     22 HC72       -2.3880   -2.9550    0.6660 h4        1 MGS      0.074500
     23 HC73       -1.7310   -3.7330    2.2490 h4        1 MGS      0.074500
     24 HC2        -0.7400   -0.1040    0.2730 h1        1 MGS      0.115500
     25 HC81        1.7160    0.8120   -3.6650 h1        1 MGS      0.095333
     26 HC82        1.1660    2.5680   -3.5940 h1        1 MGS      0.095333
     27 HC83       -0.0700    1.2260   -3.8580 h1        1 MGS      0.095333
     28 HC3         2.5510   -0.2480    0.6390 h1        1 MGS      0.096000
     29 HO3         2.4300   -1.2280    2.1910 h1        1 MGS      0.096000
     30 HC4         4.5460   -0.2650    2.6390 ho        1 MGS      0.199000
     31 HN4         2.8100    1.8680    2.0090 h1        1 MGS      0.155000
     32 HC5         1.8900    0.2930    4.3560 hn        1 MGS      0.228000
     33 HC61       -0.9180    2.4140    2.3410 hc        1 MGS      0.086333
     34 HC62       -0.0490    1.9590    3.8650 hc        1 MGS      0.086333
     35 HC63        0.6960    3.1500    2.7090 hc        1 MGS      0.086333
     36 H121        1.9050    1.2640    7.8380 h1        1 MGS      0.101000
     37 H122        4.6010    0.5150    6.2020 hc        1 MGS      0.095000
     38 HO12        0.4160    2.1660    6.3030 ho        1 MGS      0.221000
     39 H112        4.4660    1.6210    7.6410 hc        1 MGS      0.095000
     40 HC10        5.1440    2.2450    6.0770 hc        1 MGS      0.095000
     41 HO10        3.2290    3.9050    6.0790 ho        1 MGS      0.234000
     42 H111        2.1900   -0.0220    6.5580 h1        1 MGS      0.101000
     43 C12         1.9360    1.0560    6.7340 c3        1 MGS     -0.015000
@<TRIPOS>BOND
     1    1    4 1   
     2    1   14 1   
     3    1   21 1   
     4    1   24 1   
     5    2    3 1   
     6    3   22 1   
     7    3   23 1   
     8    4    5 1   
     9    5    6 1   
    10    6   25 1   
    11    6   26 1   
    12    6   27 1   
    13    7    8 1   
    14    7    9 1   
    15    7   28 1   
    16    7   29 1   
    17    8   30 1   
    18    9   10 1   
    19    9   13 1   
    20    9   31 1   
    21   10   11 1   
    22   10   32 1   
    23   11   12 1   
    24   11   18 1   
    25   13   14 1   
    26   13   15 1   
    27   13   20 1   
    28   15   33 1   
    29   15   34 1   
    30   15   35 1   
    31   16   38 1   
    32   16   43 1   
    33   17   18 1   
    34   17   37 1   
    35   17   39 1   
    36   17   40 1   
    37   18   19 1   
    38   18   43 1   
    39   19   41 1   
    40   36   43 1   
    41   42   43 1   
@<TRIPOS>SUBSTRUCTURE
     1 MGS         1 TEMP              0 ****  ****    0 ROOT
