@<TRIPOS>MOLECULE
MGS
   43    43     1     0     0
SMALL
bcc


@<TRIPOS>ATOM
      1 C1         -1.9310   -1.1620   -2.2870 c3        1 MGS      0.307900
      2 O1         -2.3420   -2.4430   -2.8710 os        1 MGS     -0.415600
      3 C7         -3.6000   -2.4010   -3.5090 c3        1 MGS      0.120700
      4 C2         -0.3940   -1.0590   -2.3390 c3        1 MGS      0.087100
      5 O2         -0.0460    0.2200   -2.7180 os        1 MGS     -0.424600
      6 C8          0.5590    0.3000   -4.0270 c3        1 MGS      0.115700
      7 C3          0.2790   -1.3790   -0.9640 c3        1 MGS      0.133100
      8 O3          1.5460   -1.2530   -1.0210 oh        1 MGS     -0.591800
      9 C4         -0.3960   -0.1930   -0.1520 c3        1 MGS      0.021700
     10 N4          0.0870   -0.2120    1.1540 n         1 MGS     -0.532900
     11 C9          0.9420    0.8710    1.6330 c         1 MGS      0.626100
     12 O9          1.2330    1.7960    0.8870 o         1 MGS     -0.604100
     13 C5         -1.9170   -0.3010   -0.1130 c3        1 MGS      0.151100
     14 O5         -2.3630   -1.0910   -1.0770 os        1 MGS     -0.440600
     15 C6         -2.5530    1.1540   -0.2930 c3        1 MGS     -0.122100
     16 C12         3.3720    1.3590    4.5680 c3        1 MGS      0.130400
     17 O12         4.5700    2.1080    4.6910 oh        1 MGS     -0.600800
     18 C11         2.7460    1.6110    3.1670 c3        1 MGS     -0.114400
     19 C10         1.3910    0.8940    3.0680 c3        1 MGS      0.075100
     20 O10         0.4410    1.5740    3.8450 oh        1 MGS     -0.594800
     21 HC1        -2.3040   -0.4570   -2.7910 h2        1 MGS      0.052700
     22 HC71       -4.2310   -3.0180   -3.0410 h1        1 MGS      0.040367
     23 HC72       -3.9560   -1.4760   -3.4760 h1        1 MGS      0.040367
     24 HC73       -3.5010   -2.6840   -4.4560 h1        1 MGS      0.040367
     25 HC2        -0.0550   -1.6980   -3.0180 h1        1 MGS      0.085700
     26 HC81        0.8460    1.2180   -4.1980 h1        1 MGS      0.040367
     27 HC82       -0.1050    0.0260   -4.7180 h1        1 MGS      0.040367
     28 HC83        1.3350   -0.2970   -4.0660 h1        1 MGS      0.040367
     29 HC3         0.0080   -2.2600   -0.6200 h1        1 MGS      0.089700
     30 HO3         1.9090   -2.0290   -1.0910 ho        1 MGS      0.433000
     31 HC4        -0.1440    0.6740   -0.5770 h1        1 MGS      0.102700
     32 HN4        -0.1140   -0.9020    1.6990 hn        1 MGS      0.311500
     33 HC5        -2.1860   -0.6590    0.7400 h1        1 MGS      0.074700
     34 HC61       -3.4730    1.0700   -0.6020 hc        1 MGS      0.048033
     35 HC62       -2.0390    1.6540   -0.9430 hc        1 MGS      0.048033
     36 HC63       -2.5390    1.6400    0.5950 hc        1 MGS      0.048033
     37 H121        3.5790    0.3710    4.6740 h1        1 MGS      0.029700
     38 H122        2.7100    1.6490    5.2960 h1        1 MGS      0.029700
     39 HO12        4.9680    1.9100    5.4660 ho        1 MGS      0.403000
     40 H111        2.6130    2.5830    3.0340 hc        1 MGS      0.079200
     41 H112        3.3500    1.2670    2.4740 hc        1 MGS      0.079200
     42 HC10        1.4840   -0.0360    3.4000 h1        1 MGS      0.105700
     43 HO10        0.2190    1.0600    4.5770 ho        1 MGS      0.409000
@<TRIPOS>BOND
     1    1    2 1   
     2    1    4 1   
     3    1   14 1   
     4    1   21 1   
     5    2    3 1   
     6    3   22 1   
     7    3   23 1   
     8    3   24 1   
     9    4    5 1   
    10    4    7 1   
    11    4   25 1   
    12    5    6 1   
    13    6   26 1   
    14    6   27 1   
    15    6   28 1   
    16    7    8 1   
    17    7    9 1   
    18    7   29 1   
    19    8   30 1   
    20    9   10 1   
    21    9   13 1   
    22    9   31 1   
    23   10   11 1   
    24   10   32 1   
    25   11   12 2   
    26   11   19 1   
    27   13   14 1   
    28   13   15 1   
    29   13   33 1   
    30   15   34 1   
    31   15   35 1   
    32   15   36 1   
    33   16   17 1   
    34   16   18 1   
    35   16   37 1   
    36   16   38 1   
    37   17   39 1   
    38   18   19 1   
    39   18   40 1   
    40   18   41 1   
    41   19   20 1   
    42   19   42 1   
    43   20   43 1   
@<TRIPOS>SUBSTRUCTURE
     1 MGS         1 TEMP              0 ****  ****    0 ROOT
