@<TRIPOS>MOLECULE
MGS
   44    38     1     0     0
SMALL
bcc


@<TRIPOS>ATOM
      1 C1         -1.6680   -1.2900   -1.3650 c1        1 MGS     -0.117000
      2 O1         -2.5720   -0.9090   -0.5140 os        1 MGS     -0.123000
      3 C7         -2.3580    0.3730    0.1340 c3        1 MGS     -0.096000
      4 C2          2.5520   -0.3640   -1.6980 c2        1 MGS      0.193000
      5 O2          0.3010    0.4290   -1.8360 oh        1 MGS     -0.406000
      6 C8          1.3710   -0.1220   -2.5270 c3        1 MGS     -0.064000
      7 C3          2.6240   -0.0830   -0.2740 c3        1 MGS     -0.092000
      8 O3          3.7840   -0.6520    0.2810 oh        1 MGS     -0.312000
      9 C4          2.4410    1.4600    0.0350 c3        1 MGS     -0.001000
     10 N4          2.4020    1.7610    1.4160 n         1 MGS     -0.361000
     11 C9          3.5840    1.9550    2.1440 c2        1 MGS      0.441000
     12 O9          4.6840    1.8610    1.5630 o         1 MGS     -0.352000
     13 C5          0.1700   -0.7750    3.2370 c2        1 MGS      0.216000
     14 O5          0.3590   -0.3090    2.1040 o         1 MGS     -0.378000
     15 C6          0.7810   -0.2130    4.4670 c3        1 MGS     -0.300000
     16 O12         3.7720    3.6280   10.4880 oh        1 MGS     -0.149000
     17 C11         3.3480    2.5510    4.6880 c1        1 MGS     -0.032000
     18 C10         3.4300    2.2730    3.5260 c1        1 MGS     -0.281000
     19 O10         2.6110    2.8030    7.7160 oh        1 MGS     -0.443000
     20 HC1        -0.4890   -1.6620    3.3810 h4        1 MGS      0.104000
     21 HC71       -1.7340    0.1840    1.0420 h1        1 MGS      0.116333
     22 HC72       -3.3890    0.7130    0.3990 h1        1 MGS      0.116333
     23 HC73       -1.8500    1.0820   -0.5620 h1        1 MGS      0.116333
     24 HC2        -1.9420   -2.2830   -1.7880 ha        1 MGS      0.097000
     25 HC81       -0.4330   -0.2840   -1.6870 ho        1 MGS      0.304000
     26 HC82        1.6910    0.6340   -3.3230 h1        1 MGS      0.176000
     27 HC83        1.1050   -1.0740   -3.0820 h1        1 MGS      0.176000
     28 HC3         3.4520   -0.7960   -2.1880 ha        1 MGS      0.183000
     29 HO3         1.7340   -0.6080    0.2310 h1        1 MGS      0.229000
     30 HC4         4.4380    0.0470    0.4580 ho        1 MGS      0.260000
     31 HN4         3.3160    1.9880   -0.4420 h1        1 MGS      0.140500
     32 HC5         1.4690    1.7680   -0.4480 h1        1 MGS      0.140500
     33 HC61        1.3640   -1.0100    4.9950 hc        1 MGS      0.120667
     34 HC62        1.4650    0.6440    4.2430 hc        1 MGS      0.120667
     35 HC63       -0.0260    0.1420    5.1570 hc        1 MGS      0.120667
     36 H121        1.1180    2.5710   10.4560 ha        1 MGS      0.004500
     37 H122        2.2490    4.9670   10.8900 ha        1 MGS      0.032000
     38 HO12        4.0850    3.7200   11.4160 ho        1 MGS      0.171000
     39 HC10        1.2890    2.4260    9.8150 ha        1 MGS      0.004500
     40 HO10        2.2110    3.6110    8.0630 ho        1 MGS      0.219500
     41 H111        3.2450    2.5660    8.4010 ho        1 MGS      0.219500
     42 C12         2.7430    4.3110   10.1420 c1        1 MGS     -0.053000
     43 H42         1.5560    1.5700    1.9110 hn        1 MGS      0.259000
     44 H112        3.2650    2.7890    5.7310 ha        1 MGS      0.276000
@<TRIPOS>BOND
     1    1    2 1   
     2    1   24 1   
     3    2    3 1   
     4    3   21 1   
     5    3   22 1   
     6    3   23 1   
     7    4    6 1   
     8    4    7 1   
     9    4   28 1   
    10    5    6 1   
    11    5   25 1   
    12    6   26 1   
    13    6   27 1   
    14    7    8 1   
    15    7    9 1   
    16    7   29 1   
    17    8   30 1   
    18    9   10 1   
    19    9   31 1   
    20    9   32 1   
    21   10   11 1   
    22   10   43 1   
    23   11   12 1   
    24   11   18 1   
    25   13   14 1   
    26   13   15 1   
    27   13   20 1   
    28   15   33 1   
    29   15   34 1   
    30   15   35 1   
    31   16   38 1   
    32   16   42 1   
    33   17   18 1   
    34   17   44 1   
    35   19   40 1   
    36   19   41 1   
    37   36   39 1   
    38   37   42 1   
@<TRIPOS>SUBSTRUCTURE
     1 MGS         1 TEMP              0 ****  ****    0 ROOT
