@<TRIPOS>MOLECULE
MGW
   53    50     1     0     0
SMALL
bcc


@<TRIPOS>ATOM
      1 C10        -0.1150    2.6400    1.6970 c1        1 MGW      0.020000
      2 N12         0.9430    1.4060    3.8900 n4        1 MGW     -0.150000
      3 C13         1.5410    2.5610    4.6370 c2        1 MGW      0.284000
      4 C15         2.8830    3.0030    4.1660 c3        1 MGW     -0.250000
      5 C17         4.7290    8.6080    2.0130 c2        1 MGW     -0.012000
      6 C20         7.6470    9.0830    2.4250 c2        1 MGW     -0.192000
      7 C21         9.4660    7.1110    1.4550 c1        1 MGW     -0.083000
      8 C22         9.9310    8.2970    2.0790 c2        1 MGW     -0.230000
      9 C24         8.0290    6.9230    1.2990 c3        1 MGW     -0.200000
     10 C26         2.6660    5.9890    1.9210 c2        1 MGW      0.307000
     11 C03         0.6920   -0.2010    5.7670 c2        1 MGW      0.284000
     12 O02        -0.1710   -0.8800    6.5640 os        1 MGW     -0.260000
     13 C01         0.4090   -1.6330    7.6430 c3        1 MGW     -0.066000
     14 C05        -0.0270    0.6050    4.6910 c3        1 MGW     -0.052000
     15 C06        -0.8480   -0.3470    3.7990 c3        1 MGW     -0.255000
     16 C07        -0.0620   -0.8830    2.7120 c1        1 MGW     -0.086000
     17 C08         4.2000    0.2780    1.0040 c1        1 MGW     -0.126000
     18 N09         3.4730    0.8090    1.7360 n1        1 MGW     -0.129000
     19 N11        -0.3530    3.3030    0.7650 n2        1 MGW     -0.246000
     20 O14         0.8680    3.0590    5.5320 o         1 MGW     -0.225000
     21 N16         3.3630    8.3750    1.9500 n3        1 MGW     -0.329000
     22 C25         2.8240    7.3010    1.1720 c3        1 MGW     -0.074000
     23 O27         3.4860    5.6170    2.9390 oh        1 MGW     -0.303000
     24 O28         1.8210    5.1280    1.6480 o         1 MGW     -0.372000
     25 C18         5.7040    7.7280    1.6700 c2        1 MGW     -0.251000
     26 C19         7.1170    7.9770    1.8320 c2        1 MGW     -0.019000
     27 C23         9.0690    9.2460    2.5470 c2        1 MGW     -0.013000
     28 H10        -0.5110    3.8870    0.0040 hn        1 MGW      0.318000
     29 HN12        0.4360    1.8060    3.0020 hn        1 MGW      0.308500
     30 H115        3.6240    2.1660    4.2250 hc        1 MGW      0.151667
     31 H215        3.2300    3.8540    4.8060 hc        1 MGW      0.151667
     32 H117        4.1370    6.3100    3.1380 ho        1 MGW      0.260000
     33 H217        4.9790    9.5990    2.4460 h4        1 MGW      0.160000
     34 H24         7.8440    6.7960    0.1900 hc        1 MGW      0.155500
     35 H101        0.9680   -0.9460    8.3220 h1        1 MGW      0.109333
     36 H201       -0.4850   -2.0790    8.1460 h1        1 MGW      0.109333
     37 H301        1.0890   -2.4160    7.2310 h1        1 MGW      0.109333
     38 H05        -0.7270    1.3230    5.2210 hx        1 MGW      0.178000
     39 H106       -1.7220    0.2220    3.3590 hc        1 MGW      0.166500
     40 H206       -1.2960   -1.1420    4.4670 hc        1 MGW      0.166500
     41 H08         4.8730   -0.2140    0.3300 ha        1 MGW      0.257000
     42 HN11       -0.4950   -1.6820    2.1000 ha        1 MGW      0.096000
     43 H125        1.7970    7.5840    0.7970 h1        1 MGW      0.131000
     44 H225        3.4700    7.0680    0.2720 h1        1 MGW      0.131000
     45 H118        2.7810    9.1800    2.0230 hn        1 MGW      0.237000
     46 H218        5.4550    6.7490    1.2240 ha        1 MGW      0.122000
     47 H23         7.0130    9.8850    2.8320 ha        1 MGW      0.128000
     48 H20         9.4310   10.1660    3.0350 ha        1 MGW      0.137000
     49 H21         7.7760    5.9300    1.7760 hc        1 MGW      0.155500
     50 H122        1.6840    0.7740    3.5550 hn        1 MGW      0.308500
     51 H161        2.8180    3.3720    3.1050 hc        1 MGW      0.151667
     52 O04         1.9060   -0.2690    5.9570 o         1 MGW     -0.327000
     53 H22        11.0210    8.4260    2.1770 ha        1 MGW      0.155000
@<TRIPOS>BOND
     1    1   19 1   
     2    2    3 1   
     3    2   14 1   
     4    2   29 1   
     5    2   50 1   
     6    3    4 1   
     7    3   20 1   
     8    4   30 1   
     9    4   31 1   
    10    4   51 1   
    11    5   21 1   
    12    5   25 1   
    13    5   33 1   
    14    6   26 1   
    15    6   27 1   
    16    6   47 1   
    17    7    8 1   
    18    7    9 1   
    19    8   27 1   
    20    8   53 1   
    21    9   26 1   
    22    9   34 1   
    23    9   49 1   
    24   10   22 1   
    25   10   23 1   
    26   10   24 1   
    27   11   12 1   
    28   11   14 1   
    29   11   52 1   
    30   12   13 1   
    31   13   35 1   
    32   13   36 1   
    33   13   37 1   
    34   14   15 1   
    35   14   38 1   
    36   15   16 1   
    37   15   39 1   
    38   15   40 1   
    39   16   42 1   
    40   17   18 1   
    41   17   41 1   
    42   19   28 1   
    43   21   22 1   
    44   21   45 1   
    45   22   43 1   
    46   22   44 1   
    47   23   32 1   
    48   25   26 1   
    49   25   46 1   
    50   27   48 1   
@<TRIPOS>SUBSTRUCTURE
     1 MGW         1 TEMP              0 ****  ****    0 ROOT
