@<TRIPOS>MOLECULE
MGW
   53    46     1     0     0
SMALL
bcc


@<TRIPOS>ATOM
      1 C10        -1.2400   -1.8790   -0.6230 c1        1 MGW      0.377800
      2 N12         3.4030    1.6090    3.9950 ns        1 MGW     -0.560900
      3 C13         4.5710    2.3440    4.0260 c         1 MGW      0.690100
      4 C15         5.8240    1.6620    4.5040 c3        1 MGW     -0.176100
      5 C17         4.7640    6.3880    3.4910 c3        1 MGW      0.189800
      6 C20         7.2300    8.1050    4.7130 c1        1 MGW     -0.012800
      7 C21         7.1190    7.1710    1.3880 c1        1 MGW     -0.156100
      8 C22         7.0660    6.2440    0.6330 c1        1 MGW     -0.143500
      9 C24         7.2200    8.2990    2.2690 c3        1 MGW      0.040900
     10 C26         1.9170    4.5270   -0.0430 c1        1 MGW      0.923000
     11 C03         1.4420    3.0330    4.4600 c         1 MGW      0.634100
     12 O02         0.6630    2.3690    5.3440 os        1 MGW     -0.417900
     13 C01        -0.0940    3.1520    6.2780 c3        1 MGW      0.120700
     14 C05         2.1790    2.1300    3.4790 c3        1 MGW      0.041000
     15 C06        -0.4000   -0.2980    3.6860 c1        1 MGW     -0.170500
     16 C07        -0.5580   -0.8430    2.6330 c1        1 MGW     -0.170500
     17 C08         0.2880    0.9630    0.0020 c1        1 MGW      0.249300
     18 N09         0.8510    1.9250    0.3260 n1        1 MGW     -0.480800
     19 N11        -1.8000   -2.7790   -1.1280 n1        1 MGW     -0.824200
     20 O14         4.5710    3.5440    3.6590 o         1 MGW     -0.689100
     21 N16         3.3240    6.0820    3.3940 n7        1 MGW     -0.648000
     22 C25         2.3810    6.9290    3.3180 c1        1 MGW      0.499000
     23 O27         2.0770    4.7560    1.1210 o         1 MGW     -0.461500
     24 O28         1.7750    4.3370   -1.2020 o         1 MGW     -0.461500
     25 C18         5.0730    7.8810    3.5780 c3        1 MGW     -0.059200
     26 C19         6.5530    8.0770    3.5920 c2        1 MGW     -0.159500
     27 C23         7.9170    8.1530    5.8110 c2        1 MGW     -0.205100
     28 H10        -2.2640   -3.5220   -1.5450 hn        1 MGW      0.457400
     29 HN12        3.3960    0.6860    4.3650 hn        1 MGW      0.337500
     30 H115        6.0670    0.7890    3.8500 hc        1 MGW      0.082367
     31 H215        5.7000    1.3060    5.5560 hc        1 MGW      0.082367
     32 H117        5.2550    5.9340    2.5770 h1        1 MGW      0.121700
     33 H217        5.1490    5.8430    4.4020 h1        1 MGW      0.121700
     34 H24         8.3110    8.5400    2.4280 hc        1 MGW      0.082200
     35 H101        0.6000    3.7480    6.9180 h1        1 MGW      0.063367
     36 H201       -0.7910    3.8260    5.7260 h1        1 MGW      0.063367
     37 H301       -0.6460    2.3820    6.8730 h1        1 MGW      0.063367
     38 H05         1.4900    1.2760    3.2060 h1        1 MGW      0.109200
     39 H106        2.3810    2.7610    2.5610 h1        1 MGW      0.109200
     40 H206       -0.2760    0.1860    4.6240 ha        1 MGW      0.170500
     41 H08        -0.2360    0.0620   -0.2880 ha        1 MGW      0.223500
     42 HN11       -0.7040   -1.3230    1.6940 ha        1 MGW      0.170500
     43 H125        0.4050    6.0200    3.2990 ha        1 MGW      0.023500
     44 H225        0.6200    5.7630    2.7020 ha        1 MGW      0.023500
     45 H118        4.6380    8.4250    2.6960 hc        1 MGW      0.067700
     46 H218        4.6190    8.3170    4.5090 hc        1 MGW      0.067700
     47 H23         8.0880    9.0960    6.3560 ha        1 MGW      0.151000
     48 H20         8.3730    7.2580    6.2620 ha        1 MGW      0.151000
     49 H21         6.7510    9.2000    1.7770 hc        1 MGW      0.082200
     50 H122        6.6710    2.3910    4.4640 hc        1 MGW      0.082367
     51 H161        3.1460    5.0560    3.4010 hn        1 MGW      0.570800
     52 O04         1.4790    4.2700    4.4920 o         1 MGW     -0.618000
     53 H22         7.0380    5.4280   -0.0460 ha        1 MGW      0.172500
@<TRIPOS>BOND
     1    1   19 3   
     2    2    3 1   
     3    2   14 1   
     4    2   29 1   
     5    3    4 1   
     6    3   20 2   
     7    4   30 1   
     8    4   31 1   
     9    4   50 1   
    10    5   21 1   
    11    5   25 1   
    12    5   32 1   
    13    5   33 1   
    14    6   26 2   
    15    6   27 2   
    16    7    8 3   
    17    7    9 1   
    18    8   53 1   
    19    9   26 1   
    20    9   34 1   
    21    9   49 1   
    22   10   23 2   
    23   10   24 2   
    24   11   12 1   
    25   11   14 1   
    26   11   52 2   
    27   12   13 1   
    28   13   35 1   
    29   13   36 1   
    30   13   37 1   
    31   14   38 1   
    32   14   39 1   
    33   15   16 3   
    34   15   40 1   
    35   16   42 1   
    36   17   18 3   
    37   17   41 1   
    38   19   28 1   
    39   21   22 3   
    40   21   51 1   
    41   25   26 1   
    42   25   45 1   
    43   25   46 1   
    44   27   47 1   
    45   27   48 1   
    46   43   44 1   
@<TRIPOS>SUBSTRUCTURE
     1 MGW         1 TEMP              0 ****  ****    0 ROOT
