@<TRIPOS>MOLECULE
MGW
   51    52     1     0     0
SMALL
bcc


@<TRIPOS>ATOM
      1 C10        -3.4540    1.1780   -3.3000 cc        1 MGW      0.375400
      2 N12        -1.7350   -0.3720    0.7960 n         1 MGW     -0.561900
      3 C13        -1.2190    0.9080    0.8000 c         1 MGW      0.675100
      4 C15         0.2500    1.1240    1.1790 c3        1 MGW      0.090800
      5 C17         2.2000    0.6660   -0.1850 c3        1 MGW      0.171800
      6 C20         4.7260    0.1370   -2.7000 ca        1 MGW     -0.128500
      7 C21         6.0890    0.3340   -2.9160 ca        1 MGW     -0.141000
      8 C22         6.9780    0.2990   -1.8430 ca        1 MGW     -0.148000
      9 C24         5.1380   -0.1310   -0.3300 ca        1 MGW     -0.128500
     10 C26         2.5390   -0.0760    2.7570 c         1 MGW      0.889600
     11 C03        -3.6320   -1.5380    1.7680 c         1 MGW      0.611100
     12 O02        -4.6560   -0.9600    2.4630 os        1 MGW     -0.431900
     13 C01        -5.1640   -1.6870    3.5820 c3        1 MGW      0.124700
     14 C05        -3.1320   -0.6530    0.6230 c3        1 MGW      0.067700
     15 C06        -3.4810   -1.4020   -0.6800 c3        1 MGW     -0.016100
     16 C07        -3.5930   -0.5400   -1.8690 cc        1 MGW     -0.213900
     17 C08        -4.1670   -0.8790   -3.1200 cd        1 MGW      0.275200
     18 N09        -4.0740    0.1940   -3.9960 nd        1 MGW     -0.683000
     19 N11        -3.1410    0.7730   -2.0020 na        1 MGW     -0.290900
     20 O14        -1.9570    1.8860    0.5320 o         1 MGW     -0.679100
     21 N16         1.1350    0.1040    0.6440 n3        1 MGW     -0.738600
     22 C25         1.6550   -0.7760    1.6880 c3        1 MGW      0.024800
     23 O27         3.7910   -0.2000    2.6530 o         1 MGW     -0.836300
     24 O28         1.9480    0.5840    3.6570 o         1 MGW     -0.836300
     25 C18         2.7920   -0.3440   -1.1780 c3        1 MGW     -0.033100
     26 C19         4.2420   -0.0970   -1.4080 ca        1 MGW     -0.081300
     27 C23         6.5000    0.0680   -0.5530 ca        1 MGW     -0.141000
     28 H10        -3.2100    2.1750   -3.6790 h5        1 MGW      0.056100
     29 HN12       -1.1270   -1.1480    0.9350 hn        1 MGW      0.345500
     30 H115        0.5090    2.1570    0.8070 h1        1 MGW      0.100700
     31 H215        0.2910    1.1590    2.3150 h1        1 MGW      0.100700
     32 H117        1.7830    1.5250   -0.7830 h1        1 MGW      0.045700
     33 H217        3.0300    1.0720    0.4690 h1        1 MGW      0.045700
     34 H22         8.0520    0.4560   -2.0130 ha        1 MGW      0.113000
     35 H24         4.7580   -0.3050    0.7010 ha        1 MGW      0.164000
     36 H101       -5.6040   -2.6540    3.2370 h1        1 MGW      0.049033
     37 H201       -4.3450   -1.8800    4.3160 h1        1 MGW      0.049033
     38 H301       -5.9440   -1.0100    4.0060 h1        1 MGW      0.049033
     39 H05        -3.7090    0.3230    0.6640 h1        1 MGW      0.115700
     40 H106       -2.7150   -2.2030   -0.8750 hc        1 MGW      0.069700
     41 H206       -4.4710   -1.9160   -0.5330 hc        1 MGW      0.069700
     42 H08        -4.6250   -1.8220   -3.4110 h4        1 MGW      0.032100
     43 HN11       -2.7060    1.3200   -1.2960 hn        1 MGW      0.337700
     44 H125        2.2580   -1.5830    1.1940 h1        1 MGW      0.037700
     45 H225        0.7760   -1.2500    2.2030 h1        1 MGW      0.037700
     46 H118        2.6750   -1.3970   -0.8020 hc        1 MGW      0.047700
     47 H218        2.2250   -0.2800   -2.1440 hc        1 MGW      0.047700
     48 H23         7.1960    0.0440    0.2980 ha        1 MGW      0.121500
     49 H20         4.0280    0.1670   -3.5490 ha        1 MGW      0.164000
     50 O04        -3.2460   -2.6560    2.1040 o         1 MGW     -0.536000
     51 H21         6.4610    0.5190   -3.9330 ha        1 MGW      0.121500
@<TRIPOS>BOND
     1    1   18 2   
     2    1   19 1   
     3    1   28 1   
     4    2    3 1   
     5    2   14 1   
     6    2   29 1   
     7    3    4 1   
     8    3   20 2   
     9    4   21 1   
    10    4   30 1   
    11    4   31 1   
    12    5   21 1   
    13    5   25 1   
    14    5   32 1   
    15    5   33 1   
    16    6    7 ar  
    17    6   26 ar  
    18    6   49 1   
    19    7    8 ar  
    20    7   51 1   
    21    8   27 ar  
    22    8   34 1   
    23    9   26 ar  
    24    9   27 ar  
    25    9   35 1   
    26   10   22 1   
    27   10   23 1   
    28   10   24 1   
    29   11   12 1   
    30   11   14 1   
    31   11   50 2   
    32   12   13 1   
    33   13   36 1   
    34   13   37 1   
    35   13   38 1   
    36   14   15 1   
    37   14   39 1   
    38   15   16 1   
    39   15   40 1   
    40   15   41 1   
    41   16   17 2   
    42   16   19 1   
    43   17   18 1   
    44   17   42 1   
    45   19   43 1   
    46   21   22 1   
    47   22   44 1   
    48   22   45 1   
    49   25   26 1   
    50   25   46 1   
    51   25   47 1   
    52   27   48 1   
@<TRIPOS>SUBSTRUCTURE
     1 MGW         1 TEMP              0 ****  ****    0 ROOT
