@<TRIPOS>MOLECULE
MGX
   12    10     1     0     0
SMALL
bcc


@<TRIPOS>ATOM
      1 CD         -1.4160   -0.1500   -0.7780 c3        1 MGX      0.165100
      2 NE          0.0170   -0.1820   -0.8030 nh        1 MGX     -0.774000
      3 CZ          0.7580   -0.1070    0.4250 c2        1 MGX      0.312000
      4 NH1         1.0040    1.1640    1.0350 nh        1 MGX     -0.811600
      5 NH2         1.2160   -1.2190    0.9970 n1        1 MGX     -0.344000
      6 HD1        -1.7740   -0.7240   -1.5110 h1        1 MGX      0.039700
      7 HD2        -1.7410   -0.4920    0.1000 h1        1 MGX      0.039700
      8 HD3        -1.7290    0.7820   -0.9060 h1        1 MGX      0.039700
      9 HNE         0.4680   -0.2290   -1.6160 hn        1 MGX      0.400800
     10 HH11        1.5880    1.7640    0.6340 hn        1 MGX      0.391300
     11 HH12        0.5450    1.4050    1.8070 hn        1 MGX      0.391300
     12 HNH2        1.0640   -2.0120    0.6180 DU        1 MGX      0.149000
@<TRIPOS>BOND
     1    1    2 1   
     2    1    6 1   
     3    1    7 1   
     4    1    8 1   
     5    2    3 1   
     6    2    9 1   
     7    3    4 1   
     8    3    5 2   
     9    4   10 1   
    10    4   11 1   
@<TRIPOS>SUBSTRUCTURE
     1 MGX         1 TEMP              0 ****  ****    0 ROOT
