@<TRIPOS>MOLECULE
MGX
   14    13     1     0     0
SMALL
bcc


@<TRIPOS>ATOM
      1 CD          0.1430   -0.5310   -0.1860 c3        1 MGX      0.061100
      2 NE          1.3280    0.3580   -0.0310 n4        1 MGX     -0.774000
      3 CZ          2.1390    0.0320    1.2030 c2        1 MGX      0.607100
      4 NH1         1.5260    0.5110    2.4910 n4        1 MGX     -0.817600
      5 NH2         3.2440   -0.5910    1.2830 n2        1 MGX     -0.586100
      6 HD1         0.4600   -1.6110   -0.1530 hx        1 MGX      0.140033
      7 HD2        -0.3310   -0.3210   -1.1920 hx        1 MGX      0.140033
      8 HD3        -0.6120   -0.3220    0.6190 hx        1 MGX      0.140033
      9 HNE         1.0280    1.3470   -0.0240 hn        1 MGX      0.496300
     10 HH11        1.4960    1.5430    2.5150 hn        1 MGX      0.514467
     11 HH12        0.5780    0.1230    2.6110 hn        1 MGX      0.514467
     12 HNH2        3.7750   -0.9690    0.5170 hn        1 MGX      0.552400
     13 HE3         1.9430    0.2390   -0.8600 hn        1 MGX      0.496300
     14 HH13        2.1130    0.1890    3.2940 hn        1 MGX      0.514467
@<TRIPOS>BOND
     1    1    2 1   
     2    1    6 1   
     3    1    7 1   
     4    1    8 1   
     5    2    3 1   
     6    2    9 1   
     7    2   13 1   
     8    3    4 1   
     9    3    5 2   
    10    4   10 1   
    11    4   11 1   
    12    4   14 1   
    13    5   12 1   
@<TRIPOS>SUBSTRUCTURE
     1 MGX         1 TEMP              0 ****  ****    0 ROOT
