@<TRIPOS>MOLECULE
MGX
   12    11     1     0     0
SMALL
bcc


@<TRIPOS>ATOM
      1 CD          1.9190    0.0460    0.1810 c3        1 MGX      0.158100
      2 NE          0.7400    0.5610   -0.4660 nh        1 MGX     -0.790200
      3 CZ         -0.5120   -0.0340   -0.0400 c2        1 MGX      0.738100
      4 NH1        -0.6100   -1.4520   -0.2010 nh        1 MGX     -0.928800
      5 NH2        -1.4440    0.7370    0.4630 n2        1 MGX     -0.873100
      6 HD1         1.8850    0.1170    1.3020 h1        1 MGX      0.039700
      7 HD2         2.0740   -1.0290   -0.0980 h1        1 MGX      0.039700
      8 HD3         2.8000    0.6370   -0.1870 h1        1 MGX      0.039700
      9 HNE         0.6950    1.5620   -0.3910 hn        1 MGX      0.401800
     10 HH11       -1.5340   -1.7660   -0.4030 hn        1 MGX      0.392300
     11 HH12        0.0670   -1.8580   -0.8090 hn        1 MGX      0.392300
     12 HNH2       -2.3190    0.3000    0.6490 hn        1 MGX      0.391400
@<TRIPOS>BOND
     1    1    2 1   
     2    1    6 1   
     3    1    7 1   
     4    1    8 1   
     5    2    3 1   
     6    2    9 1   
     7    3    4 1   
     8    3    5 2   
     9    4   10 1   
    10    4   11 1   
    11    5   12 1   
@<TRIPOS>SUBSTRUCTURE
     1 MGX         1 TEMP              0 ****  ****    0 ROOT
