@<TRIPOS>MOLECULE
MGX
   14    13     1     0     0
SMALL
bcc


@<TRIPOS>ATOM
      1 CD          0.0950    0.4330   -0.1760 c3        1 MGX      0.062100
      2 NE          1.3340   -0.3800   -0.0210 n4        1 MGX     -0.774000
      3 CZ          2.1440    0.0250    1.1900 c2        1 MGX      0.607100
      4 NH1         1.5870   -0.4640    2.4980 n4        1 MGX     -0.817600
      5 NH2         3.2080    0.7180    1.2350 n2        1 MGX     -0.586100
      6 HD1        -0.6310    0.2010    0.6480 hx        1 MGX      0.140033
      7 HD2        -0.3830    0.1690   -1.1670 hx        1 MGX      0.140033
      8 HD3         0.3480    1.5310   -0.1760 hx        1 MGX      0.140033
      9 HNE         1.0940   -1.3840    0.0140 hn        1 MGX      0.496300
     10 HH11        2.1650   -0.0860    3.2830 hn        1 MGX      0.514467
     11 HH12        0.6170   -0.1350    2.6280 hn        1 MGX      0.514467
     12 HNH2        3.7000    1.1120    0.4520 hn        1 MGX      0.552400
     13 HE3         1.9270   -0.2440   -0.8640 hn        1 MGX      0.496300
     14 HH13        1.6240   -1.4950    2.5460 hn        1 MGX      0.514467
@<TRIPOS>BOND
     1    1    2 1   
     2    1    6 1   
     3    1    7 1   
     4    1    8 1   
     5    2    3 1   
     6    2    9 1   
     7    2   13 1   
     8    3    4 1   
     9    3    5 2   
    10    4   10 1   
    11    4   11 1   
    12    4   14 1   
    13    5   12 1   
@<TRIPOS>SUBSTRUCTURE
     1 MGX         1 TEMP              0 ****  ****    0 ROOT
