@<TRIPOS>MOLECULE
MGX
   14    13     1     0     0
SMALL
bcc


@<TRIPOS>ATOM
      1 CD          0.1340   -0.5110   -0.1850 c3        1 MGX      0.061100
      2 NE          1.3190    0.3770   -0.0230 ny        1 MGX     -0.774000
      3 CZ          2.1420    0.0260    1.1960 c2        1 MGX      0.607100
      4 NH1         1.5410    0.4780    2.4990 nz        1 MGX     -0.817600
      5 NH2         3.2480   -0.5970    1.2520 n2        1 MGX     -0.586100
      6 HD1         0.4530   -1.5910   -0.1790 hx        1 MGX      0.140033
      7 HD2        -0.3500   -0.2800   -1.1830 hx        1 MGX      0.140033
      8 HD3        -0.6130   -0.3210    0.6310 hx        1 MGX      0.140033
      9 HNE         1.9260    0.2770   -0.8590 hn        1 MGX      0.496300
     10 HH11        2.1360    0.1390    3.2900 hn        1 MGX      0.514467
     11 HH12        1.5110    1.5090    2.5460 hn        1 MGX      0.514467
     12 HNH2        3.7720   -0.9590    0.4740 hn        1 MGX      0.552400
     13 HE3         1.0160    1.3650    0.0090 hn        1 MGX      0.496300
     14 HH13        0.5940    0.0870    2.6210 hn        1 MGX      0.514467
@<TRIPOS>BOND
     1    1    2 1   
     2    1    6 1   
     3    1    7 1   
     4    1    8 1   
     5    2    3 1   
     6    2    9 1   
     7    2   13 1   
     8    3    4 1   
     9    3    5 2   
    10    4   10 1   
    11    4   11 1   
    12    4   14 1   
    13    5   12 1   
@<TRIPOS>SUBSTRUCTURE
     1 MGX         1 TEMP              0 ****  ****    0 ROOT
