@<TRIPOS>MOLECULE
MGY
   12    11     1     0     0
SMALL
bcc


@<TRIPOS>ATOM
      1 N          -0.7430   -0.0070    0.1420 n3        1 MGY     -0.812200
      2 CA          0.7130    0.0440    0.1870 c3        1 MGY      0.020800
      3 C           1.2250   -1.0220    1.1330 c         1 MGY      0.885600
      4 O           1.1030   -2.2330    0.8350 o         1 MGY     -0.850300
      5 OXT         1.8310   -0.6910    2.1890 o         1 MGY     -0.850300
      6 CN         -1.1960    0.5590   -1.0760 c3        1 MGY      0.155100
      7 HN         -1.0930    0.4730    0.8580 hn        1 MGY      0.359800
      8 HA1         1.0710   -0.1140   -0.7060 h1        1 MGY      0.030200
      9 HA2         0.9960    0.9150    0.4980 h1        1 MGY      0.030200
     10 HN1        -0.8450    1.4690   -1.1630 h1        1 MGY      0.010700
     11 HN2        -2.1780    0.5860   -1.0810 h1        1 MGY      0.010700
     12 HN3        -0.8850    0.0220   -1.8160 h1        1 MGY      0.010700
@<TRIPOS>BOND
     1    1    2 1   
     2    1    6 1   
     3    1    7 1   
     4    2    3 1   
     5    2    8 1   
     6    2    9 1   
     7    3    4 1   
     8    3    5 1   
     9    6   10 1   
    10    6   11 1   
    11    6   12 1   
@<TRIPOS>SUBSTRUCTURE
     1 MGY         1 TEMP              0 ****  ****    0 ROOT
