@<TRIPOS>MOLECULE
MGY
   12    11     1     0     0
SMALL
bcc


@<TRIPOS>ATOM
      1 N           0.0970   -0.6800    1.5460 n3        1 MGY     -0.812200
      2 CA         -0.6620   -0.5420    0.3150 c3        1 MGY      0.020800
      3 C          -0.1070    0.4690   -0.7220 c         1 MGY      0.885600
      4 O           1.0930    0.8550   -0.6080 o         1 MGY     -0.850300
      5 OXT        -0.8920    0.8420   -1.6390 o         1 MGY     -0.850300
      6 CN         -0.1730    0.3660    2.5020 c3        1 MGY      0.155100
      7 HN          1.0760   -0.6400    1.3000 hn        1 MGY      0.359800
      8 HA1        -0.6670   -1.5540   -0.1760 h1        1 MGY      0.030200
      9 HA2        -1.7240   -0.2660    0.5500 h1        1 MGY      0.030200
     10 HN1         0.4820    0.2150    3.4000 h1        1 MGY      0.010700
     11 HN2         0.0050    1.4030    2.1040 h1        1 MGY      0.010700
     12 HN3        -1.2440    0.2990    2.8290 h1        1 MGY      0.010700
@<TRIPOS>BOND
     1    1    2 1   
     2    1    6 1   
     3    1    7 1   
     4    2    3 1   
     5    2    8 1   
     6    2    9 1   
     7    3    4 1   
     8    3    5 1   
     9    6   10 1   
    10    6   11 1   
    11    6   12 1   
@<TRIPOS>SUBSTRUCTURE
     1 MGY         1 TEMP              0 ****  ****    0 ROOT
