@<TRIPOS>MOLECULE
MGZ
   31    32     1     0     0
SMALL
bcc


@<TRIPOS>ATOM
      1 C2         -0.2030    0.0760    0.1010 ca        1 MGZ      0.012400
      2 C3          1.0750    0.6360    0.0970 ca        1 MGZ     -0.144500
      3 Cl1        -1.1600    0.1500   -1.3150 cl        1 MGZ     -0.144400
      4 C4          1.8480    0.5820    1.2560 ca        1 MGZ     -0.096000
      5 C5         -0.7090   -0.5480    1.2460 ca        1 MGZ     -0.144500
      6 C6          0.0730   -0.6020    2.3970 ca        1 MGZ     -0.096000
      7 C7          1.3540   -0.0330    2.4120 ca        1 MGZ     -0.046300
      8 C8          2.1930   -0.1010    3.6490 c3        1 MGZ      0.040400
      9 C9          2.3440   -1.5640    4.1900 c         1 MGZ      0.910600
     10 O12         1.5150    0.7460    4.6140 os        1 MGZ     -0.315900
     11 O11         3.5330   -1.9670    4.3150 o         1 MGZ     -0.810300
     12 O10         1.3110   -2.2230    4.4630 o         1 MGZ     -0.810300
     13 C13         2.2690    1.2020    5.6630 ca        1 MGZ      0.157100
     14 C16         3.5030    0.6640    6.0660 ca        1 MGZ     -0.167000
     15 C14         1.7000    2.2820    6.3690 ca        1 MGZ     -0.137000
     16 C17         4.1620    1.2160    7.1610 ca        1 MGZ     -0.108000
     17 C15         2.3830    2.8100    7.4610 ca        1 MGZ     -0.149300
     18 C18         3.6150    2.2890    7.8630 ca        1 MGZ     -0.147000
     19 C19         1.7740    3.9640    8.2410 c3        1 MGZ      0.687200
     20 F20         0.9060    4.7610    7.5330 f         1 MGZ     -0.249967
     21 F21         1.0420    3.5910    9.3450 f         1 MGZ     -0.249967
     22 F22         2.6860    4.8600    8.7530 f         1 MGZ     -0.249967
     23 H1          1.4710    1.1170   -0.8080 ha        1 MGZ      0.132000
     24 H2          2.8570    1.0220    1.2570 ha        1 MGZ      0.161000
     25 H3         -1.7110   -0.9980    1.2390 ha        1 MGZ      0.132000
     26 H4         -0.2780   -1.1210    3.3090 ha        1 MGZ      0.161000
     27 H5          3.2160    0.3240    3.4530 h1        1 MGZ      0.046700
     28 H7          3.9280   -0.2130    5.5360 ha        1 MGZ      0.210000
     29 H8          0.7290    2.6890    6.0520 ha        1 MGZ      0.155000
     30 H9          5.1260    0.7920    7.4800 ha        1 MGZ      0.131000
     31 H10         4.1410    2.7250    8.7230 ha        1 MGZ      0.131000
@<TRIPOS>BOND
     1    1    2 ar  
     2    1    3 1   
     3    1    5 ar  
     4    2    4 ar  
     5    2   23 1   
     6    4    7 ar  
     7    4   24 1   
     8    5    6 ar  
     9    5   25 1   
    10    6    7 ar  
    11    6   26 1   
    12    7    8 1   
    13    8    9 1   
    14    8   10 1   
    15    8   27 1   
    16    9   11 1   
    17    9   12 1   
    18   10   13 1   
    19   13   14 ar  
    20   13   15 ar  
    21   14   16 ar  
    22   14   28 1   
    23   15   17 ar  
    24   15   29 1   
    25   16   18 ar  
    26   16   30 1   
    27   17   18 ar  
    28   17   19 1   
    29   18   31 1   
    30   19   20 1   
    31   19   21 1   
    32   19   22 1   
@<TRIPOS>SUBSTRUCTURE
     1 MGZ         1 TEMP              0 ****  ****    0 ROOT
