@<TRIPOS>MOLECULE
MH1
   22    22     1     0     0
SMALL
bcc


@<TRIPOS>ATOM
      1 N          -1.0570    1.8010    0.2960 n3        1 MH1     -0.900800
      2 C2          4.1350    0.6960   -0.4680 c3        1 MH1      0.038600
      3 C          -2.8260    0.1370   -0.4570 c         1 MH1      0.890600
      4 NE2         2.9810    0.0250    0.0130 na        1 MH1     -0.229900
      5 CD2         1.6470    0.3810   -0.2210 cc        1 MH1     -0.238600
      6 CE1         2.9500   -1.1600    0.7680 cc        1 MH1      0.358400
      7 ND1         1.6870   -1.5510    1.0220 nd        1 MH1     -0.678000
      8 CG          0.8520   -0.5980    0.4090 cd        1 MH1      0.333600
      9 CB         -0.6270   -0.6630    0.4360 c3        1 MH1     -0.097700
     10 CA         -1.3070    0.4940   -0.3000 c3        1 MH1      0.015500
     11 O          -3.6780    0.9970   -0.0930 o         1 MH1     -0.841300
     12 HN         -1.8070    2.4090    0.0040 hn        1 MH1      0.333800
     13 HNA        -1.1310    1.7220    1.2940 hn        1 MH1      0.333800
     14 H2          4.9620    0.6310    0.2890 h1        1 MH1      0.038367
     15 H2A         4.4930    0.2330   -1.4290 h1        1 MH1      0.038367
     16 H2B         3.8950    1.7760   -0.6590 h1        1 MH1      0.038367
     17 OXT        -3.1100   -0.9820   -0.9640 o         1 MH1     -0.841300
     18 HB         -0.9720   -1.6150   -0.0590 hc        1 MH1      0.068700
     19 HBA        -0.9780   -0.6980    1.5030 hc        1 MH1      0.068700
     20 HA         -0.8890    0.5420   -1.3480 h1        1 MH1      0.040700
     21 HD2         1.3620    1.2760   -0.7710 h4        1 MH1      0.194000
     22 HE1         3.8570   -1.6700    1.0970 h5        1 MH1      0.038100
@<TRIPOS>BOND
     1    1   10 1   
     2    1   12 1   
     3    1   13 1   
     4    2    4 1   
     5    2   14 1   
     6    2   15 1   
     7    2   16 1   
     8    3   10 1   
     9    3   11 1   
    10    3   17 1   
    11    4    5 1   
    12    4    6 1   
    13    5    8 2   
    14    5   21 1   
    15    6    7 2   
    16    6   22 1   
    17    7    8 1   
    18    8    9 1   
    19    9   10 1   
    20    9   18 1   
    21    9   19 1   
    22   10   20 1   
@<TRIPOS>SUBSTRUCTURE
     1 MH1         1 TEMP              0 ****  ****    0 ROOT
