@<TRIPOS>MOLECULE
MH4
   73    78     1     0     0
SMALL
bcc


@<TRIPOS>ATOM
      1 O23         0.0290    0.4000    0.5040 o         1 MH4     -0.435100
      2 C21         1.2030    0.2300    0.2050 c         1 MH4      0.506600
      3 N22         2.1970    0.1740    1.3550 n4        1 MH4     -0.670800
      4 C32         1.5570    0.3260    2.7000 c3        1 MH4      0.165100
      5 C33         2.5720    0.2310    3.7890 ca        1 MH4     -0.131300
      6 C38         3.0870    1.3870    4.3800 ca        1 MH4     -0.231300
      7 C37         4.0140    1.2310    5.4310 ca        1 MH4      0.423200
      8 N36         4.4310    0.0410    5.8900 nb        1 MH4     -0.628000
      9 C35         3.9240   -1.0810    5.3140 ca        1 MH4      0.443600
     10 C39         4.3580   -2.4170    5.8220 c3        1 MH4     -0.161400
     11 C34         2.9890   -1.0200    4.2550 ca        1 MH4     -0.242300
     12 C20         1.7830    0.0750   -1.1050 cc        1 MH4      0.158800
     13 C16         1.0580    0.0770   -2.3480 cc        1 MH4     -0.099600
     14 C8         -0.3690    0.1710   -2.6700 c3        1 MH4     -0.024100
     15 N19         3.1440   -0.0860   -1.3590 nd        1 MH4     -0.504800
     16 N18         3.2950   -0.1820   -2.6620 na        1 MH4      0.217400
     17 C24         4.5800   -0.3700   -3.3190 c3        1 MH4      0.019600
     18 C17         2.0620   -0.0890   -3.3330 cd        1 MH4     -0.172800
     19 C10         1.7420   -0.1470   -4.7530 ca        1 MH4      0.537800
     20 N15         2.6750   -0.5070   -5.6590 nb        1 MH4     -0.777000
     21 C14         2.2500   -0.5860   -6.9830 ca        1 MH4      0.893900
     22 N13         0.9490   -0.2910   -7.4040 nb        1 MH4     -0.704000
     23 C12         0.0810    0.0750   -6.4610 ca        1 MH4      0.480200
     24 C11         0.4030    0.1750   -5.0850 ca        1 MH4     -0.355900
     25 C9         -0.5940    0.6530   -4.0980 c3        1 MH4     -0.014100
     26 N1          3.1800   -1.0580   -7.9120 nh        1 MH4     -0.692300
     27 C2          2.9940   -0.9090   -9.3100 ca        1 MH4      0.062600
     28 C7          3.9250   -0.1690  -10.0700 ca        1 MH4     -0.093500
     29 C6          3.8030   -0.0770  -11.4470 ca        1 MH4     -0.170000
     30 C5          2.7360   -0.7110  -12.1340 ca        1 MH4      0.164600
     31 C4          1.8050   -1.4390  -11.3580 ca        1 MH4     -0.170000
     32 C3          1.9350   -1.5460   -9.9800 ca        1 MH4     -0.093500
     33 N25         2.6860   -0.6760  -13.5430 nh        1 MH4     -0.639000
     34 C30         1.6680   -1.4940  -14.1820 c3        1 MH4      0.188800
     35 C29         1.8270   -1.5540  -15.7140 c3        1 MH4      0.164300
     36 N28         1.9490   -0.2380  -16.3220 n3        1 MH4     -0.732600
     37 C31         2.0860   -0.3000  -17.7600 c3        1 MH4      0.155100
     38 C27         2.9960    0.5520  -15.6940 c3        1 MH4      0.164300
     39 C26         2.8470    0.6310  -14.1610 c3        1 MH4      0.188800
     40 H22         2.6940   -0.7240    1.3160 hn        1 MH4      0.463800
     41 H321        0.7770   -0.4850    2.8040 hx        1 MH4      0.117700
     42 H322        1.0270    1.3230    2.7200 hx        1 MH4      0.117700
     43 H38         2.7760    2.3910    4.0610 ha        1 MH4      0.154000
     44 H34         2.5860   -1.9480    3.8270 ha        1 MH4      0.147000
     45 H37         4.4470    2.1160    5.9360 h4        1 MH4      0.049100
     46 H391        3.9740   -2.5700    6.8630 hc        1 MH4      0.070033
     47 H392        5.4750   -2.4860    5.8520 hc        1 MH4      0.070033
     48 H393        3.9630   -3.2310    5.1690 hc        1 MH4      0.070033
     49 H81C       -0.8880    0.8640   -1.9520 hc        1 MH4      0.079200
     50 H82C       -0.8330   -0.8480   -2.5360 hc        1 MH4      0.079200
     51 H91C       -1.6230    0.3360   -4.4180 hc        1 MH4      0.067700
     52 H92C       -0.5800    1.7800   -4.1080 hc        1 MH4      0.067700
     53 H241        4.5670   -1.3620   -3.8470 h1        1 MH4      0.093033
     54 H242        5.4150   -0.3480   -2.5690 h1        1 MH4      0.093033
     55 H243        4.7170    0.4560   -4.0680 h1        1 MH4      0.093033
     56 H1          4.1340   -1.0590   -7.6140 hn        1 MH4      0.443800
     57 H12        -0.9420    0.3080   -6.8180 h4        1 MH4      0.042100
     58 H7          4.7700    0.3380   -9.5790 ha        1 MH4      0.139000
     59 H3          1.1880   -2.1290   -9.4180 ha        1 MH4      0.139000
     60 H6          4.5660    0.4900  -12.0030 ha        1 MH4      0.143500
     61 H4          0.9490   -1.9430  -11.8340 ha        1 MH4      0.143500
     62 H301        0.6310   -1.1180  -13.9410 h1        1 MH4      0.045950
     63 H302        1.7650   -2.5460  -13.7920 h1        1 MH4      0.045950
     64 H261        1.9700    1.2990  -13.9160 h1        1 MH4      0.045950
     65 H262        3.7790    1.1170  -13.7590 h1        1 MH4      0.045950
     66 H291        0.9020   -2.0430  -16.1310 h1        1 MH4      0.042950
     67 H292        2.7100   -2.2130  -15.9610 h1        1 MH4      0.042950
     68 H311        2.0880    0.7450  -18.1660 h1        1 MH4      0.037033
     69 H312        1.2040   -0.8490  -18.1820 h1        1 MH4      0.037033
     70 H313        3.0250   -0.8180  -18.0970 h1        1 MH4      0.037033
     71 H271        4.0250    0.1550  -15.9380 h1        1 MH4      0.042950
     72 H272        2.9250    1.6020  -16.0950 h1        1 MH4      0.042950
     73 H222        2.8920    0.9190    1.2220 hn        1 MH4      0.463800
@<TRIPOS>BOND
     1    1    2 2   
     2    2    3 1   
     3    2   12 1   
     4    3    4 1   
     5    3   40 1   
     6    3   73 1   
     7    4    5 1   
     8    4   41 1   
     9    4   42 1   
    10    5    6 ar  
    11    5   11 ar  
    12    6    7 ar  
    13    6   43 1   
    14    7    8 ar  
    15    7   45 1   
    16    8    9 ar  
    17    9   10 1   
    18    9   11 ar  
    19   10   46 1   
    20   10   47 1   
    21   10   48 1   
    22   11   44 1   
    23   12   13 1   
    24   12   15 2   
    25   13   14 1   
    26   13   18 2   
    27   14   25 1   
    28   14   49 1   
    29   14   50 1   
    30   15   16 1   
    31   16   17 1   
    32   16   18 1   
    33   17   53 1   
    34   17   54 1   
    35   17   55 1   
    36   18   19 1   
    37   19   20 ar  
    38   19   24 ar  
    39   20   21 ar  
    40   21   22 ar  
    41   21   26 1   
    42   22   23 ar  
    43   23   24 ar  
    44   23   57 1   
    45   24   25 1   
    46   25   51 1   
    47   25   52 1   
    48   26   27 1   
    49   26   56 1   
    50   27   28 ar  
    51   27   32 ar  
    52   28   29 ar  
    53   28   58 1   
    54   29   30 ar  
    55   29   60 1   
    56   30   31 ar  
    57   30   33 1   
    58   31   32 ar  
    59   31   61 1   
    60   32   59 1   
    61   33   34 1   
    62   33   39 1   
    63   34   35 1   
    64   34   62 1   
    65   34   63 1   
    66   35   36 1   
    67   35   66 1   
    68   35   67 1   
    69   36   37 1   
    70   36   38 1   
    71   37   68 1   
    72   37   69 1   
    73   37   70 1   
    74   38   39 1   
    75   38   71 1   
    76   38   72 1   
    77   39   64 1   
    78   39   65 1   
@<TRIPOS>SUBSTRUCTURE
     1 MH4         1 TEMP              0 ****  ****    0 ROOT
