@<TRIPOS>MOLECULE
MH4
   74    79     1     0     0
SMALL
bcc


@<TRIPOS>ATOM
      1 O23         0.0300   -0.2440    0.0820 o         1 MH4     -0.414100
      2 C21         1.1760   -0.2200   -0.3450 c         1 MH4      0.496600
      3 N22         2.2520    0.3060    0.5750 n4        1 MH4     -0.666800
      4 C32         1.7270    0.7370    1.9170 c3        1 MH4      0.170100
      5 C33         2.8280    1.2900    2.7560 ca        1 MH4     -0.140300
      6 C38         3.2720    2.6020    2.5600 ca        1 MH4     -0.248300
      7 C37         4.2840    3.0870    3.4110 ca        1 MH4      0.429200
      8 N36         4.8440    2.3640    4.3940 nb        1 MH4     -0.620000
      9 C35         4.4040    1.0940    4.5860 ca        1 MH4      0.449600
     10 C39         4.9910    0.2810    5.6930 c3        1 MH4     -0.165400
     11 C34         3.3940    0.5200    3.7750 ca        1 MH4     -0.229300
     12 C20         1.6250   -0.6480   -1.6570 cc        1 MH4      0.173800
     13 C16         0.7850   -1.2040   -2.6840 cc        1 MH4     -0.080600
     14 C8         -0.6420   -1.5340   -2.7260 c3        1 MH4     -0.032100
     15 N19         2.9330   -0.5690   -2.1180 nd        1 MH4     -0.464800
     16 N18         2.9550   -1.0360   -3.3480 na        1 MH4      0.214400
     17 C24         4.1600   -1.1110   -4.1620 c3        1 MH4      0.018600
     18 C17         1.6730   -1.4440   -3.7640 cd        1 MH4     -0.218800
     19 C10         1.2070   -2.0210   -5.0120 ca        1 MH4      0.537800
     20 N15         2.0730   -2.4550   -5.9650 nb        1 MH4     -0.685000
     21 C14         1.4940   -3.0270   -7.0670 ca        1 MH4      0.721900
     22 N13         0.1510   -3.2050   -7.2970 nb        1 MH4     -0.645000
     23 C12        -0.6720   -2.7520   -6.3360 ca        1 MH4      0.464200
     24 C11        -0.2070   -2.1330   -5.1520 ca        1 MH4     -0.235900
     25 C9         -1.1640   -1.5930   -4.1550 c3        1 MH4     -0.042100
     26 N1          2.4160   -3.5060   -8.1490 n4        1 MH4     -0.576100
     27 C2          2.4700   -2.5810   -9.2770 ca        1 MH4     -0.190400
     28 C7          3.5400   -1.6720   -9.3980 ca        1 MH4     -0.029000
     29 C6          3.6260   -0.8450  -10.4950 ca        1 MH4     -0.211500
     30 C5          2.6470   -0.8810  -11.5430 ca        1 MH4      0.264600
     31 C4          1.5430   -1.7750  -11.3570 ca        1 MH4     -0.211500
     32 C3          1.4590   -2.6030  -10.2600 ca        1 MH4     -0.029000
     33 N25         2.7790   -0.1260  -12.6780 nh        1 MH4     -0.618000
     34 C30         1.6800   -0.0750  -13.6270 c3        1 MH4      0.200800
     35 C29         1.9740    0.6550  -14.9510 c3        1 MH4      0.156800
     36 N28         2.7530    1.8660  -14.7630 n3        1 MH4     -0.728600
     37 C31         2.9110    2.6340  -15.9780 c3        1 MH4      0.151100
     38 C27         4.0150    1.5540  -14.1160 c3        1 MH4      0.156800
     39 C26         3.8280    0.8760  -12.7460 c3        1 MH4      0.200800
     40 H22         2.9610   -0.4250    0.7080 hn        1 MH4      0.467800
     41 H321        0.9260    1.5130    1.7390 hx        1 MH4      0.120700
     42 H322        1.2480   -0.1610    2.4030 hx        1 MH4      0.120700
     43 H38         2.8360    3.2540    1.7920 ha        1 MH4      0.147000
     44 H34         3.0550   -0.5070    3.9720 ha        1 MH4      0.153000
     45 H37         4.6670    4.1210    3.3020 h4        1 MH4      0.052100
     46 H391        6.1100    0.3270    5.6750 hc        1 MH4      0.074367
     47 H392        4.6460    0.6820    6.6800 hc        1 MH4      0.074367
     48 H393        4.6720   -0.7860    5.6070 hc        1 MH4      0.074367
     49 H81C       -0.7970   -2.5300   -2.2200 hc        1 MH4      0.098200
     50 H82C       -1.2380   -0.7790   -2.1410 hc        1 MH4      0.098200
     51 H91C       -2.1080   -2.2060   -4.1630 hc        1 MH4      0.093700
     52 H92C       -1.4470   -0.5530   -4.4880 hc        1 MH4      0.093700
     53 H241        3.9710   -0.5620   -5.1230 h1        1 MH4      0.093367
     54 H242        4.3820   -2.1920   -4.3680 h1        1 MH4      0.093367
     55 H243        5.0290   -0.6430   -3.6250 h1        1 MH4      0.093367
     56 H1          2.0680   -4.4170   -8.4850 hn        1 MH4      0.474300
     57 H12        -1.7570   -2.8960   -6.5270 h4        1 MH4      0.078100
     58 H7          4.3250   -1.6160   -8.6250 ha        1 MH4      0.148500
     59 H3          0.5930   -3.2810  -10.1630 ha        1 MH4      0.148500
     60 H6          4.4760   -0.1460  -10.5500 ha        1 MH4      0.165000
     61 H4          0.7270   -1.8180  -12.0980 ha        1 MH4      0.165000
     62 H301        0.7960    0.4200  -13.1280 h1        1 MH4      0.058200
     63 H302        1.3940   -1.1330  -13.9000 h1        1 MH4      0.058200
     64 H261        4.8120    0.3820  -12.4950 h1        1 MH4      0.058200
     65 H262        3.6170    1.6720  -11.9730 h1        1 MH4      0.058200
     66 H291        0.9810    0.9360  -15.4030 h1        1 MH4      0.057450
     67 H292        2.4820   -0.0690  -15.6550 h1        1 MH4      0.057450
     68 H311        1.8930    2.8940  -16.3720 h1        1 MH4      0.048700
     69 H312        3.4560    3.5830  -15.7330 h1        1 MH4      0.048700
     70 H313        3.4800    2.0870  -16.7790 h1        1 MH4      0.048700
     71 H271        4.5720    2.5180  -13.9370 h1        1 MH4      0.057450
     72 H272        4.6670    0.8920  -14.7590 h1        1 MH4      0.057450
     73 H222        2.7140    1.1080    0.1250 hn        1 MH4      0.467800
     74 H121        3.3610   -3.6230   -7.7610 hn        1 MH4      0.474300
@<TRIPOS>BOND
     1    1    2 2   
     2    2    3 1   
     3    2   12 1   
     4    3    4 1   
     5    3   40 1   
     6    3   73 1   
     7    4    5 1   
     8    4   41 1   
     9    4   42 1   
    10    5    6 ar  
    11    5   11 ar  
    12    6    7 ar  
    13    6   43 1   
    14    7    8 ar  
    15    7   45 1   
    16    8    9 ar  
    17    9   10 1   
    18    9   11 ar  
    19   10   46 1   
    20   10   47 1   
    21   10   48 1   
    22   11   44 1   
    23   12   13 1   
    24   12   15 2   
    25   13   14 1   
    26   13   18 2   
    27   14   25 1   
    28   14   49 1   
    29   14   50 1   
    30   15   16 1   
    31   16   17 1   
    32   16   18 1   
    33   17   53 1   
    34   17   54 1   
    35   17   55 1   
    36   18   19 1   
    37   19   20 ar  
    38   19   24 ar  
    39   20   21 ar  
    40   21   22 ar  
    41   21   26 1   
    42   22   23 ar  
    43   23   24 ar  
    44   23   57 1   
    45   24   25 1   
    46   25   51 1   
    47   25   52 1   
    48   26   27 1   
    49   26   56 1   
    50   26   74 1   
    51   27   28 ar  
    52   27   32 ar  
    53   28   29 ar  
    54   28   58 1   
    55   29   30 ar  
    56   29   60 1   
    57   30   31 ar  
    58   30   33 1   
    59   31   32 ar  
    60   31   61 1   
    61   32   59 1   
    62   33   34 1   
    63   33   39 1   
    64   34   35 1   
    65   34   62 1   
    66   34   63 1   
    67   35   36 1   
    68   35   66 1   
    69   35   67 1   
    70   36   37 1   
    71   36   38 1   
    72   37   68 1   
    73   37   69 1   
    74   37   70 1   
    75   38   39 1   
    76   38   71 1   
    77   38   72 1   
    78   39   64 1   
    79   39   65 1   
@<TRIPOS>SUBSTRUCTURE
     1 MH4         1 TEMP              0 ****  ****    0 ROOT
