@<TRIPOS>MOLECULE
MH4
   72    77     1     0     0
SMALL
bcc


@<TRIPOS>ATOM
      1 O23         5.6170   -2.4700    0.3540 o         1 MH4     -0.611100
      2 C21         5.4950   -1.4220   -0.3140 c         1 MH4      0.602600
      3 N22         6.5910   -0.8030   -0.8890 n         1 MH4     -0.547900
      4 C32         7.9350   -1.2060   -0.5740 c3        1 MH4      0.122300
      5 C33         8.6970   -0.2160    0.2630 ca        1 MH4     -0.075300
      6 C38         9.1210   -0.5460    1.5520 ca        1 MH4     -0.234300
      7 C37         9.8550    0.4120    2.2750 ca        1 MH4      0.400200
      8 N36        10.1710    1.6300    1.8050 nb        1 MH4     -0.666000
      9 C35         9.7530    1.9480    0.5510 ca        1 MH4      0.412600
     10 C39        10.0870    3.2970    0.0010 c3        1 MH4     -0.148400
     11 C34         9.0140    1.0480   -0.2460 ca        1 MH4     -0.245300
     12 C20         4.1560   -0.8420   -0.5670 cc        1 MH4      0.246800
     13 C16         2.9070   -1.4840   -0.2520 cc        1 MH4     -0.141600
     14 C8          2.5860   -2.8020    0.3030 c3        1 MH4     -0.014100
     15 N19         3.9120    0.3980   -1.1120 nd        1 MH4     -0.487800
     16 N18         2.5950    0.5700   -1.1580 na        1 MH4      0.156400
     17 C24         1.9520    1.7580   -1.6770 c3        1 MH4      0.036600
     18 C17         1.9200   -0.5490   -0.6420 cd        1 MH4     -0.208800
     19 C10         0.5020   -0.8240   -0.4900 ca        1 MH4      0.560800
     20 N15        -0.4330   -0.0230   -1.0430 nb        1 MH4     -0.762000
     21 C14        -1.7580   -0.4130   -0.8780 ca        1 MH4      0.865900
     22 N13        -2.1640   -1.5370   -0.1710 nb        1 MH4     -0.723000
     23 C12        -1.1920   -2.2840    0.3700 ca        1 MH4      0.460200
     24 C11         0.1820   -1.9920    0.2580 ca        1 MH4     -0.337900
     25 C9          1.2040   -2.8220    0.9420 c3        1 MH4     -0.016100
     26 N1         -2.7240    0.3680   -1.5530 nh        1 MH4     -0.694300
     27 C2         -4.0800    0.3650   -1.1400 ca        1 MH4      0.086600
     28 C7         -4.6900    1.5580   -0.6940 ca        1 MH4     -0.106000
     29 C6         -6.0370    1.5920   -0.3720 ca        1 MH4     -0.160000
     30 C5         -6.8400    0.4300   -0.4630 ca        1 MH4      0.134600
     31 C4         -6.2210   -0.7600   -0.9010 ca        1 MH4     -0.160000
     32 C3         -4.8740   -0.7920   -1.2430 ca        1 MH4     -0.106000
     33 N25        -8.2300    0.5200   -0.2010 nh        1 MH4     -0.635000
     34 C30        -9.0280   -0.6440   -0.5470 c3        1 MH4      0.185300
     35 C29       -10.5410   -0.3800   -0.4090 c3        1 MH4      0.165300
     36 N28       -10.9050    0.1730    0.8870 n3        1 MH4     -0.732600
     37 C31       -12.3230    0.4310    1.0010 c3        1 MH4      0.157100
     38 C27       -10.0980    1.3340    1.2340 c3        1 MH4      0.165300
     39 C26        -8.5850    1.0760    1.0970 c3        1 MH4      0.185300
     40 H22         6.4840    0.1050   -1.2790 hn        1 MH4      0.319500
     41 H321        7.9050   -2.2050   -0.0480 h1        1 MH4      0.074700
     42 H322        8.4900   -1.3400   -1.5490 h1        1 MH4      0.074700
     43 H38         8.8880   -1.5230    1.9970 ha        1 MH4      0.152000
     44 H34         8.6980    1.3380   -1.2570 ha        1 MH4      0.139000
     45 H37        10.2120    0.1920    3.2980 h4        1 MH4      0.023100
     46 H391       11.1950    3.4440   -0.0270 hc        1 MH4      0.053033
     47 H392        9.6850    3.4040   -1.0360 hc        1 MH4      0.053033
     48 H393        9.6440    4.1000    0.6410 hc        1 MH4      0.053033
     49 H81C        2.6340   -3.5620   -0.5260 hc        1 MH4      0.077200
     50 H82C        3.3620   -3.0990    1.0620 hc        1 MH4      0.077200
     51 H91C        0.8500   -3.8870    0.9920 hc        1 MH4      0.054700
     52 H92C        1.2900   -2.4530    2.0020 hc        1 MH4      0.054700
     53 H241        1.3440    1.4780   -2.5780 h1        1 MH4      0.070700
     54 H242        1.2770    2.1780   -0.8850 h1        1 MH4      0.070700
     55 H243        2.7190    2.5260   -1.9640 h1        1 MH4      0.070700
     56 H1         -2.3940    1.2700   -1.8350 hn        1 MH4      0.429800
     57 H12        -1.5360   -3.1730    0.9320 h4        1 MH4      0.030100
     58 H7         -4.1010    2.4850   -0.6070 ha        1 MH4      0.141500
     59 H3         -4.4340   -1.7420   -1.5880 ha        1 MH4      0.141500
     60 H6         -6.4780    2.5490   -0.0510 ha        1 MH4      0.137500
     61 H4         -6.7950   -1.6950   -0.9850 ha        1 MH4      0.137500
     62 H301       -8.8240   -0.9040   -1.6240 h1        1 MH4      0.044700
     63 H302       -8.7600   -1.5360    0.0910 h1        1 MH4      0.044700
     64 H261       -8.2560    0.3930    1.9340 h1        1 MH4      0.044700
     65 H262       -8.0590    2.0620    1.2270 h1        1 MH4      0.044700
     66 H291      -10.8710    0.2890   -1.2570 h1        1 MH4      0.038950
     67 H292      -11.0700   -1.3680   -0.5220 h1        1 MH4      0.038950
     68 H311      -12.8790   -0.5230    0.8050 h1        1 MH4      0.033033
     69 H312      -12.5440    0.7710    2.0460 h1        1 MH4      0.033033
     70 H313      -12.6940    1.2140    0.2830 h1        1 MH4      0.033033
     71 H271      -10.3700    2.2340    0.6090 h1        1 MH4      0.038950
     72 H272      -10.3040    1.5850    2.3120 h1        1 MH4      0.038950
@<TRIPOS>BOND
     1    1    2 2   
     2    2    3 1   
     3    2   12 1   
     4    3    4 1   
     5    3   40 1   
     6    4    5 1   
     7    4   41 1   
     8    4   42 1   
     9    5    6 ar  
    10    5   11 ar  
    11    6    7 ar  
    12    6   43 1   
    13    7    8 ar  
    14    7   45 1   
    15    8    9 ar  
    16    9   10 1   
    17    9   11 ar  
    18   10   46 1   
    19   10   47 1   
    20   10   48 1   
    21   11   44 1   
    22   12   13 1   
    23   12   15 2   
    24   13   14 1   
    25   13   18 2   
    26   14   25 1   
    27   14   49 1   
    28   14   50 1   
    29   15   16 1   
    30   16   17 1   
    31   16   18 1   
    32   17   53 1   
    33   17   54 1   
    34   17   55 1   
    35   18   19 1   
    36   19   20 ar  
    37   19   24 ar  
    38   20   21 ar  
    39   21   22 ar  
    40   21   26 1   
    41   22   23 ar  
    42   23   24 ar  
    43   23   57 1   
    44   24   25 1   
    45   25   51 1   
    46   25   52 1   
    47   26   27 1   
    48   26   56 1   
    49   27   28 ar  
    50   27   32 ar  
    51   28   29 ar  
    52   28   58 1   
    53   29   30 ar  
    54   29   60 1   
    55   30   31 ar  
    56   30   33 1   
    57   31   32 ar  
    58   31   61 1   
    59   32   59 1   
    60   33   34 1   
    61   33   39 1   
    62   34   35 1   
    63   34   62 1   
    64   34   63 1   
    65   35   36 1   
    66   35   66 1   
    67   35   67 1   
    68   36   37 1   
    69   36   38 1   
    70   37   68 1   
    71   37   69 1   
    72   37   70 1   
    73   38   39 1   
    74   38   71 1   
    75   38   72 1   
    76   39   64 1   
    77   39   65 1   
@<TRIPOS>SUBSTRUCTURE
     1 MH4         1 TEMP              0 ****  ****    0 ROOT
