@<TRIPOS>MOLECULE
MH4
   73    78     1     0     0
SMALL
bcc


@<TRIPOS>ATOM
      1 O23         0.0320    0.4260    0.5060 o         1 MH4     -0.435100
      2 C21         1.2060    0.2480    0.2080 c         1 MH4      0.506600
      3 N22         2.1990    0.1850    1.3570 ny        1 MH4     -0.670800
      4 C32         1.5600    0.3410    2.7020 c3        1 MH4      0.165100
      5 C33         2.5730    0.2350    3.7910 ca        1 MH4     -0.131300
      6 C38         3.0950    1.3850    4.3880 ca        1 MH4     -0.231300
      7 C37         4.0200    1.2190    5.4390 ca        1 MH4      0.423200
      8 N36         4.4300    0.0250    5.8930 nb        1 MH4     -0.628000
      9 C35         3.9180   -1.0910    5.3100 ca        1 MH4      0.443600
     10 C39         4.3450   -2.4320    5.8120 c3        1 MH4     -0.161400
     11 C34         2.9840   -1.0210    4.2510 ca        1 MH4     -0.242300
     12 C20         1.7850    0.0890   -1.1030 cc        1 MH4      0.158800
     13 C16         1.0590    0.0940   -2.3460 cc        1 MH4     -0.099600
     14 C8         -0.3670    0.1960   -2.6680 c3        1 MH4     -0.024100
     15 N19         3.1440   -0.0800   -1.3570 nd        1 MH4     -0.504800
     16 N18         3.2950   -0.1790   -2.6600 na        1 MH4      0.217400
     17 C24         4.5790   -0.3740   -3.3170 c3        1 MH4      0.019600
     18 C17         2.0620   -0.0790   -3.3300 cd        1 MH4     -0.172800
     19 C10         1.7410   -0.1360   -4.7500 ca        1 MH4      0.537800
     20 N15         2.6730   -0.5030   -5.6560 nb        1 MH4     -0.777000
     21 C14         2.2460   -0.5810   -6.9800 ca        1 MH4      0.893900
     22 N13         0.9470   -0.2800   -7.4020 nb        1 MH4     -0.704000
     23 C12         0.0820    0.0920   -6.4590 ca        1 MH4      0.480200
     24 C11         0.4050    0.1920   -5.0830 ca        1 MH4     -0.355900
     25 C9         -0.5890    0.6780   -4.0960 c3        1 MH4     -0.014100
     26 N1          3.1740   -1.0600   -7.9080 nu        1 MH4     -0.692300
     27 C2          2.9880   -0.9140   -9.3070 ca        1 MH4      0.062600
     28 C7          3.9220   -0.1810  -10.0700 ca        1 MH4     -0.093500
     29 C6          3.8000   -0.0930  -11.4470 ca        1 MH4     -0.170000
     30 C5          2.7300   -0.7230  -12.1310 ca        1 MH4      0.164600
     31 C4          1.7950   -1.4440  -11.3530 ca        1 MH4     -0.170000
     32 C3          1.9250   -1.5470   -9.9740 ca        1 MH4     -0.093500
     33 N25         2.6790   -0.6920  -13.5400 nh        1 MH4     -0.639000
     34 C30         1.6570   -1.5070  -14.1760 c3        1 MH4      0.188800
     35 C29         1.8160   -1.5730  -15.7090 c3        1 MH4      0.164300
     36 N28         1.9440   -0.2590  -16.3210 n3        1 MH4     -0.732600
     37 C31         2.0800   -0.3260  -17.7580 c3        1 MH4      0.155100
     38 C27         2.9960    0.5280  -15.6950 c3        1 MH4      0.164300
     39 C26         2.8470    0.6130  -14.1630 c3        1 MH4      0.188800
     40 H22         2.8990    0.9250    1.2250 hn        1 MH4      0.463800
     41 H321        0.7730   -0.4640    2.8040 hx        1 MH4      0.117700
     42 H322        1.0390    1.3420    2.7230 hx        1 MH4      0.117700
     43 H38         2.7890    2.3920    4.0750 ha        1 MH4      0.154000
     44 H34         2.5760   -1.9450    3.8180 ha        1 MH4      0.147000
     45 H37         4.4570    2.1000    5.9490 h4        1 MH4      0.049100
     46 H391        3.9430   -3.2410    5.1570 hc        1 MH4      0.070033
     47 H392        5.4610   -2.5090    5.8390 hc        1 MH4      0.070033
     48 H393        3.9630   -2.5880    6.8530 hc        1 MH4      0.070033
     49 H81C       -0.8820    0.8920   -1.9510 hc        1 MH4      0.079200
     50 H82C       -0.8370   -0.8200   -2.5330 hc        1 MH4      0.079200
     51 H91C       -0.5680    1.8040   -4.1070 hc        1 MH4      0.067700
     52 H92C       -1.6210    0.3660   -4.4160 hc        1 MH4      0.067700
     53 H241        5.4140   -0.3550   -2.5670 h1        1 MH4      0.093033
     54 H242        4.7200    0.4500   -4.0670 h1        1 MH4      0.093033
     55 H243        4.5600   -1.3660   -3.8440 h1        1 MH4      0.093033
     56 H1          4.1280   -1.0660   -7.6110 hn        1 MH4      0.443800
     57 H12        -0.9400    0.3310   -6.8150 h4        1 MH4      0.042100
     58 H7          4.7700    0.3230   -9.5790 ha        1 MH4      0.139000
     59 H3          1.1750   -2.1250   -9.4110 ha        1 MH4      0.139000
     60 H6          4.5660    0.4690  -12.0040 ha        1 MH4      0.143500
     61 H4          0.9360   -1.9440  -11.8270 ha        1 MH4      0.143500
     62 H301        0.6220   -1.1250  -13.9360 h1        1 MH4      0.045950
     63 H302        1.7500   -2.5590  -13.7830 h1        1 MH4      0.045950
     64 H261        1.9740    1.2850  -13.9200 h1        1 MH4      0.045950
     65 H262        3.7820    1.0940  -13.7620 h1        1 MH4      0.045950
     66 H291        2.6960   -2.2370  -15.9530 h1        1 MH4      0.042950
     67 H292        0.8890   -2.0580  -16.1240 h1        1 MH4      0.042950
     68 H311        3.0170   -0.8510  -18.0940 h1        1 MH4      0.037033
     69 H312        2.0890    0.7180  -18.1680 h1        1 MH4      0.037033
     70 H313        1.1960   -0.8720  -18.1780 h1        1 MH4      0.037033
     71 H271        4.0220    0.1250  -15.9380 h1        1 MH4      0.042950
     72 H272        2.9300    1.5770  -16.1000 h1        1 MH4      0.042950
     73 H222        2.6900   -0.7160    1.3180 hn        1 MH4      0.463800
@<TRIPOS>BOND
     1    1    2 2   
     2    2    3 1   
     3    2   12 1   
     4    3    4 1   
     5    3   40 1   
     6    3   73 1   
     7    4    5 1   
     8    4   41 1   
     9    4   42 1   
    10    5    6 ar  
    11    5   11 ar  
    12    6    7 ar  
    13    6   43 1   
    14    7    8 ar  
    15    7   45 1   
    16    8    9 ar  
    17    9   10 1   
    18    9   11 ar  
    19   10   46 1   
    20   10   47 1   
    21   10   48 1   
    22   11   44 1   
    23   12   13 1   
    24   12   15 2   
    25   13   14 1   
    26   13   18 2   
    27   14   25 1   
    28   14   49 1   
    29   14   50 1   
    30   15   16 1   
    31   16   17 1   
    32   16   18 1   
    33   17   53 1   
    34   17   54 1   
    35   17   55 1   
    36   18   19 1   
    37   19   20 ar  
    38   19   24 ar  
    39   20   21 ar  
    40   21   22 ar  
    41   21   26 1   
    42   22   23 ar  
    43   23   24 ar  
    44   23   57 1   
    45   24   25 1   
    46   25   51 1   
    47   25   52 1   
    48   26   27 1   
    49   26   56 1   
    50   27   28 ar  
    51   27   32 ar  
    52   28   29 ar  
    53   28   58 1   
    54   29   30 ar  
    55   29   60 1   
    56   30   31 ar  
    57   30   33 1   
    58   31   32 ar  
    59   31   61 1   
    60   32   59 1   
    61   33   34 1   
    62   33   39 1   
    63   34   35 1   
    64   34   62 1   
    65   34   63 1   
    66   35   36 1   
    67   35   66 1   
    68   35   67 1   
    69   36   37 1   
    70   36   38 1   
    71   37   68 1   
    72   37   69 1   
    73   37   70 1   
    74   38   39 1   
    75   38   71 1   
    76   38   72 1   
    77   39   64 1   
    78   39   65 1   
@<TRIPOS>SUBSTRUCTURE
     1 MH4         1 TEMP              0 ****  ****    0 ROOT
