@<TRIPOS>MOLECULE
MH4
   72    67     1     0     0
SMALL
bcc


@<TRIPOS>ATOM
      1 O23        -3.8410   -0.9940    5.3870 o         1 MH4     -0.373000
      2 C21        -2.6810   -1.3570    5.3070 c1        1 MH4      0.386000
      3 N22        -1.9510   -1.7410    6.5130 n2        1 MH4     -0.358000
      4 C32        -2.6010   -1.6810    7.7950 c3        1 MH4      0.000000
      5 C33        -1.5670   -2.0290    8.9170 c2        1 MH4     -0.068000
      6 C38        -1.2680   -3.3320    9.1920 c1        1 MH4     -0.169000
      7 C37        -0.3770   -3.6330   10.2070 c1        1 MH4     -0.035000
      8 N36         0.2090   -2.6150   10.9400 n1        1 MH4     -0.169000
      9 C35        -0.0920   -1.3160   10.6630 c1        1 MH4     -0.010000
     10 C39         0.5910   -0.1770   11.4670 c3        1 MH4     -0.172000
     11 C34        -0.9800   -1.0110    9.6520 c2        1 MH4     -0.180000
     12 C20        -2.0310   -1.5490    3.9320 c2        1 MH4     -0.171000
     13 C16        -2.4420   -1.3860    2.6340 c1        1 MH4     -0.068000
     14 C8         -3.7790   -1.2420    2.0430 c2        1 MH4     -0.099000
     15 N19        -0.6760   -1.4970    3.9520 n2        1 MH4     -0.054000
     16 N18        -0.2360   -1.3010    2.6630 n2        1 MH4     -0.057000
     17 C24         1.0750   -0.7420    2.4030 c2        1 MH4     -0.062000
     18 C17        -1.3220   -1.2330    1.8520 c2        1 MH4     -0.079000
     19 C10        -1.4500   -1.1160    0.3760 c1        1 MH4      0.126000
     20 N15        -0.3390   -1.0970   -0.3900 n1        1 MH4     -0.235000
     21 C14        -0.4480   -1.1230   -1.7650 c1        1 MH4      0.149000
     22 N13        -1.6760   -1.1680   -2.3510 n1        1 MH4     -0.169000
     23 C12        -2.7710   -1.1870   -1.6010 c1        1 MH4     -0.035000
     24 C11        -2.6650   -1.1610   -0.2030 c1        1 MH4     -0.198000
     25 C9         -3.8940   -1.0730    0.6340 c3        1 MH4     -0.102000
     26 N1          0.7000   -1.2870   -2.6090 n3        1 MH4     -0.222000
     27 C2          0.8640   -0.4470   -3.7780 c2        1 MH4      0.040000
     28 C7          1.7300    0.6680   -3.7250 c2        1 MH4     -0.160000
     29 C6          1.9970    1.4110   -4.8880 c1        1 MH4     -0.140000
     30 C5          1.4140    1.0530   -6.0860 c1        1 MH4     -0.002000
     31 C4          0.5460   -0.0630   -6.1430 c1        1 MH4     -0.098000
     32 C3          0.2790   -0.8080   -4.9720 c1        1 MH4     -0.105000
     33 N25         1.7060    1.8440   -7.3270 n3        1 MH4     -0.221000
     34 C30         3.0360    1.5630   -7.7760 c3        1 MH4     -0.066000
     35 C29         3.4460    2.4390   -8.9210 c3        1 MH4     -0.070000
     36 N28         3.2420    3.7970   -8.6520 n3        1 MH4     -0.259000
     37 C31         3.5220    4.5660   -9.8450 c3        1 MH4     -0.119000
     38 C27         1.9080    4.0710   -8.2000 c3        1 MH4     -0.070000
     39 C26         1.5020    3.1990   -7.0640 c3        1 MH4     -0.066000
     40 H22        -1.1260   -2.0790    6.4490 hn        1 MH4      0.234000
     41 H321       -3.3380   -2.3200    7.8190 h1        1 MH4      0.113500
     42 H322       -2.9490   -0.7730    7.9440 h1        1 MH4      0.113500
     43 H38        -1.6840   -4.0510    8.6730 ha        1 MH4      0.152000
     44 H34        -1.1820   -0.1270    9.4650 ha        1 MH4      0.139000
     45 H37        -0.1720   -4.5150   10.3960 ha        1 MH4      0.164000
     46 H391        1.0060    0.4420   10.8570 hc        1 MH4      0.092333
     47 H392        1.2650   -0.5530   12.0520 hc        1 MH4      0.092333
     48 H393       -0.0940    0.3000   12.0130 hc        1 MH4      0.092333
     49 H81C       -4.1960   -0.4900    2.4580 ha        1 MH4      0.117000
     50 H82C       -4.2980   -2.0470    2.2900 ha        1 MH4      0.117000
     51 H91C       -4.4950   -1.7240    0.3200 hc        1 MH4      0.094500
     52 H92C       -4.3070   -0.1670    0.4700 hc        1 MH4      0.094500
     53 H241        1.5720   -0.5940    3.3000 ha        1 MH4      0.110000
     54 H242        1.5880   -1.3600    1.8430 ha        1 MH4      0.110000
     55 H243        0.9780    0.1230    1.9350 ha        1 MH4      0.110000
     56 H1          1.3200   -1.9800   -2.4320 hn        1 MH4      0.228000
     57 H12        -3.6150   -1.2210   -2.0050 ha        1 MH4      0.164000
     58 H7          2.1260    0.9090   -2.9210 ha        1 MH4      0.131000
     59 H3         -0.3290   -1.5970   -5.0100 ha        1 MH4      0.156000
     60 H6          2.5890    2.1730   -4.8480 ha        1 MH4      0.138000
     61 H4          0.1000   -0.3370   -7.0480 ha        1 MH4      0.149000
     62 H301        3.6630    1.7040   -7.0250 h1        1 MH4      0.080750
     63 H302        3.0820    0.6130   -8.0630 h1        1 MH4      0.080750
     64 H261        1.9980    3.4390   -6.3050 h1        1 MH4      0.080750
     65 H262        0.5790    3.3380   -6.8880 h1        1 MH4      0.080750
     66 H291        2.9680    2.2150   -9.6390 h1        1 MH4      0.077500
     67 H292        4.3400    2.3000   -9.1010 h1        1 MH4      0.077500
     68 H311        4.5020    4.4320  -10.1160 h1        1 MH4      0.071667
     69 H312        2.9510    4.2700  -10.5580 h1        1 MH4      0.071667
     70 H313        3.3580    5.5240   -9.6660 h1        1 MH4      0.071667
     71 H271        1.2640    3.9270   -8.9720 h1        1 MH4      0.077500
     72 H272        1.8570    4.9830   -7.9190 h1        1 MH4      0.077500
@<TRIPOS>BOND
     1    1    2 1   
     2    2   12 1   
     3    3    4 1   
     4    3   40 1   
     5    4    5 1   
     6    4   41 1   
     7    4   42 1   
     8    5    6 1   
     9    5   11 1   
    10    6   43 1   
    11    7    8 1   
    12    7   45 1   
    13    9   10 1   
    14    9   11 1   
    15   10   46 1   
    16   10   47 1   
    17   10   48 1   
    18   11   44 1   
    19   12   13 1   
    20   12   15 1   
    21   13   18 1   
    22   14   25 1   
    23   14   49 1   
    24   14   50 1   
    25   15   16 1   
    26   16   18 1   
    27   17   53 1   
    28   17   54 1   
    29   17   55 1   
    30   18   19 1   
    31   19   24 1   
    32   20   21 1   
    33   21   26 1   
    34   22   23 1   
    35   23   57 1   
    36   24   25 1   
    37   25   51 1   
    38   25   52 1   
    39   26   27 1   
    40   26   56 1   
    41   27   28 1   
    42   27   32 1   
    43   28   29 1   
    44   28   58 1   
    45   29   60 1   
    46   30   31 1   
    47   30   33 1   
    48   31   61 1   
    49   32   59 1   
    50   33   34 1   
    51   33   39 1   
    52   34   35 1   
    53   34   62 1   
    54   34   63 1   
    55   35   36 1   
    56   35   66 1   
    57   35   67 1   
    58   36   37 1   
    59   36   38 1   
    60   37   68 1   
    61   37   69 1   
    62   37   70 1   
    63   38   39 1   
    64   38   71 1   
    65   38   72 1   
    66   39   64 1   
    67   39   65 1   
@<TRIPOS>SUBSTRUCTURE
     1 MH4         1 TEMP              0 ****  ****    0 ROOT
