@<TRIPOS>MOLECULE
MH6
   11    10     1     0     0
SMALL
bcc


@<TRIPOS>ATOM
      1 N           0.4970    1.6740    0.0000 n2        1 MH6     -0.760100
      2 CA          0.2720    0.4130    0.0000 ce        1 MH6      0.354300
      3 C          -1.1520   -0.2140    0.0000 c         1 MH6      0.824300
      4 CB          1.3110   -0.6920   -0.0000 c3        1 MH6      0.025100
      5 OG          2.6310   -0.1510   -0.0000 oh        1 MH6     -0.633800
      6 O          -1.1860   -1.4780    0.0000 o         1 MH6     -0.816300
      7 OXT        -2.1620    0.5290    0.0000 o         1 MH6     -0.816300
      8 H           1.4680    1.9210    0.0000 hn        1 MH6      0.346400
      9 HB2         1.1590   -1.3270    0.9130 h1        1 MH6      0.048700
     10 HB3         1.1590   -1.3270   -0.9130 h1        1 MH6      0.048700
     11 HG          3.2240   -0.9080   -0.0000 ho        1 MH6      0.381000
@<TRIPOS>BOND
     1    1    2 2   
     2    1    8 1   
     3    2    3 1   
     4    2    4 1   
     5    3    6 1   
     6    3    7 1   
     7    4    5 1   
     8    4    9 1   
     9    4   10 1   
    10    5   11 1   
@<TRIPOS>SUBSTRUCTURE
     1 MH6         1 TEMP              0 ****  ****    0 ROOT
