@<TRIPOS>MOLECULE
MH6
   11     8     1     0     0
SMALL
bcc


@<TRIPOS>ATOM
      1 N          -1.7050    0.2540    0.2960 n1        1 MH6     -0.619800
      2 CA         -0.4010    0.1730    0.2860 c1        1 MH6      0.240700
      3 C           0.3630    0.0900    1.5890 c1        1 MH6      0.791000
      4 CB          0.3450    0.1610   -1.0300 c3        1 MH6      0.134500
      5 OG          0.3180   -1.1400   -1.5750 oh        1 MH6     -0.631800
      6 O           0.5910   -1.0310    2.1150 o         1 MH6     -0.791500
      7 OXT         0.7690    1.1420    2.1480 o         1 MH6     -0.791500
      8 H          -2.1560    0.2610    1.0910 DU        1 MH6      0.147000
      9 HB2        -0.0820    0.7850   -1.6530 h1        1 MH6      0.058700
     10 HB3         1.2750    0.4330   -0.8810 h1        1 MH6      0.058700
     11 HG          0.6830   -1.1290   -2.3860 ho        1 MH6      0.403000
@<TRIPOS>BOND
     1    1    2 3   
     2    2    4 1   
     3    3    6 2   
     4    3    7 2   
     5    4    5 1   
     6    4    9 1   
     7    4   10 1   
     8    5   11 1   
@<TRIPOS>SUBSTRUCTURE
     1 MH6         1 TEMP              0 ****  ****    0 ROOT
