@<TRIPOS>MOLECULE
MH7
   65    66     1     0     0
SMALL
bcc


@<TRIPOS>ATOM
      1 C01        -0.3790    0.3410    0.8370 c3        1 MH7     -0.106100
      2 C02         0.9490   -0.1920    1.3140 c3        1 MH7     -0.072400
      3 C03         1.9420    0.9490    1.4870 c3        1 MH7     -0.119400
      4 C04         3.2660    0.3690    1.9700 c3        1 MH7      0.116800
      5 N05         4.2990    1.4660    2.1550 n4        1 MH7     -0.760700
      6 C06         5.5930    0.9300    2.6630 ca        1 MH7      0.827900
      7 N07         6.3820    0.2310    1.7750 nb        1 MH7     -0.604000
      8 C08         7.5500   -0.2250    2.2460 ca        1 MH7      0.521200
      9 C09         8.0010   -0.0210    3.5820 ca        1 MH7     -0.367200
     10 C10         9.3070   -0.5430    4.0460 c         1 MH7      0.558700
     11 O11         9.5730   -0.7260    5.2330 o         1 MH7     -0.414100
     12 N12        10.3740   -0.8720    3.0490 n4        1 MH7     -0.578200
     13 C13        10.4590   -2.3530    2.8690 c3        1 MH7      0.077100
     14 C14        11.7150   -0.3080    3.5040 c3        1 MH7      0.119800
     15 C15        12.7320   -0.2350    2.3740 c3        1 MH7     -0.114400
     16 C16        13.9980    0.4260    2.9040 c3        1 MH7     -0.074400
     17 C17        15.0420    0.5020    1.8180 c3        1 MH7     -0.106100
     18 C18         7.0920    0.6750    4.4410 ca        1 MH7      0.652200
     19 N19         7.3600    0.9330    5.8690 n4        1 MH7     -0.789700
     20 C20         6.4560    0.1240    6.8230 c3        1 MH7      0.140500
     21 C21         6.6000    0.6830    8.2450 c3        1 MH7     -0.098900
     22 C22         5.6180   -0.0460    9.1420 c3        1 MH7     -0.106900
     23 C23         5.8320   -1.5600    9.1230 c3        1 MH7      0.146100
     24 O24         4.7370   -2.1950    9.7560 oh        1 MH7     -0.573800
     25 C25         5.8400   -2.1080    7.6950 c3        1 MH7     -0.106900
     26 C26         6.8140   -1.3600    6.8070 c3        1 MH7     -0.098900
     27 N27         5.9020    1.1600    3.9780 nb        1 MH7     -0.671000
     28 H012       -0.2740    0.8550   -0.1490 hc        1 MH7      0.066367
     29 H011       -1.0990   -0.5070    0.7140 hc        1 MH7      0.066367
     30 H013       -0.8100    1.0620    1.5730 hc        1 MH7      0.066367
     31 H021        0.8120   -0.7260    2.2920 hc        1 MH7      0.059700
     32 H022        1.3470   -0.9320    0.5710 hc        1 MH7      0.059700
     33 H031        2.0690    1.4750    0.5030 hc        1 MH7      0.084200
     34 H032        1.5310    1.6850    2.2280 hc        1 MH7      0.084200
     35 H041        3.1310   -0.1440    2.9630 hx        1 MH7      0.118700
     36 H042        3.6710   -0.3620    1.2110 hx        1 MH7      0.118700
     37 H051        3.9240    2.1720    2.8120 hn        1 MH7      0.499800
     38 H081        8.1310   -0.8050    1.4910 h4        1 MH7      0.096100
     39 H133       11.2970   -2.5820    2.1490 hx        1 MH7      0.127700
     40 H131       10.6840   -2.8410    3.8580 hx        1 MH7      0.127700
     41 H132        9.4920   -2.7430    2.4560 hx        1 MH7      0.127700
     42 H141       12.0930   -0.9680    4.3380 hx        1 MH7      0.115200
     43 H142       11.5200    0.7240    3.9100 hx        1 MH7      0.115200
     44 H152       12.3360    0.3660    1.5130 hc        1 MH7      0.075700
     45 H151       12.9900   -1.2600    1.9960 hc        1 MH7      0.075700
     46 H162       14.3980   -0.1630    3.7710 hc        1 MH7      0.060700
     47 H161       13.7600    1.4590    3.2720 hc        1 MH7      0.060700
     48 H172       14.6770    1.1020    0.9500 hc        1 MH7      0.065033
     49 H173       15.3190   -0.5180    1.4560 hc        1 MH7      0.065033
     50 H171       15.9650    0.9920    2.2200 hc        1 MH7      0.065033
     51 H191        8.3410    0.7060    6.0950 hn        1 MH7      0.489300
     52 H201        5.3950    0.2800    6.4660 hx        1 MH7      0.120700
     53 H212        7.6440    0.5250    8.6240 hc        1 MH7      0.068200
     54 H211        6.3720    1.7820    8.2720 hc        1 MH7      0.068200
     55 H221        4.5620    0.1810    8.8390 hc        1 MH7      0.093950
     56 H222        5.7470    0.3340   10.1930 hc        1 MH7      0.093950
     57 H231        6.8000   -1.8150    9.6380 h1        1 MH7      0.059700
     58 H241        4.8740   -2.1380   10.7120 ho        1 MH7      0.438000
     59 H251        4.8000   -2.0540    7.2770 hc        1 MH7      0.093950
     60 H252        6.1290   -3.1930    7.7260 hc        1 MH7      0.093950
     61 H261        7.8620   -1.5130    7.1810 hc        1 MH7      0.068200
     62 H262        6.7520   -1.7680    5.7650 hc        1 MH7      0.068200
     63 H052        4.4630    1.9260    1.2410 hn        1 MH7      0.499800
     64 H121       10.1540   -0.4380    2.1420 hn        1 MH7      0.456800
     65 H192        7.1990    1.9360    6.0760 hn        1 MH7      0.489300
@<TRIPOS>BOND
     1    1    2 1   
     2    1   28 1   
     3    1   29 1   
     4    1   30 1   
     5    2    3 1   
     6    2   31 1   
     7    2   32 1   
     8    3    4 1   
     9    3   33 1   
    10    3   34 1   
    11    4    5 1   
    12    4   35 1   
    13    4   36 1   
    14    5    6 1   
    15    5   37 1   
    16    5   63 1   
    17    6    7 ar  
    18    6   27 ar  
    19    7    8 ar  
    20    8    9 ar  
    21    8   38 1   
    22    9   10 1   
    23    9   18 ar  
    24   10   11 2   
    25   10   12 1   
    26   12   13 1   
    27   12   14 1   
    28   12   64 1   
    29   13   39 1   
    30   13   40 1   
    31   13   41 1   
    32   14   15 1   
    33   14   42 1   
    34   14   43 1   
    35   15   16 1   
    36   15   44 1   
    37   15   45 1   
    38   16   17 1   
    39   16   46 1   
    40   16   47 1   
    41   17   48 1   
    42   17   49 1   
    43   17   50 1   
    44   18   19 1   
    45   18   27 ar  
    46   19   20 1   
    47   19   51 1   
    48   19   65 1   
    49   20   21 1   
    50   20   26 1   
    51   20   52 1   
    52   21   22 1   
    53   21   53 1   
    54   21   54 1   
    55   22   23 1   
    56   22   55 1   
    57   22   56 1   
    58   23   24 1   
    59   23   25 1   
    60   23   57 1   
    61   24   58 1   
    62   25   26 1   
    63   25   59 1   
    64   25   60 1   
    65   26   61 1   
    66   26   62 1   
@<TRIPOS>SUBSTRUCTURE
     1 MH7         1 TEMP              0 ****  ****    0 ROOT
