@<TRIPOS>MOLECULE
MH7
   63    64     1     0     0
SMALL
bcc


@<TRIPOS>ATOM
      1 C01         0.2770    0.8660   -0.1390 c3        1 MH7     -0.097100
      2 C02         1.6850    0.3330   -0.0730 c3        1 MH7     -0.077400
      3 C03         2.2490    0.4560    1.3270 c3        1 MH7     -0.100400
      4 C04         3.6750   -0.0930    1.3540 c3        1 MH7      0.206800
      5 N05         4.2780   -0.0050    2.6660 nu        1 MH7     -0.802900
      6 C06         5.5380   -0.4520    2.9420 ca        1 MH7      0.967900
      7 N07         6.3140   -1.0080    1.8820 nb        1 MH7     -0.742000
      8 C08         7.5320   -1.3800    2.1920 ca        1 MH7      0.532200
      9 C09         8.1350   -1.2690    3.4850 ca        1 MH7     -0.597200
     10 C10         9.4790   -1.6550    3.7550 c         1 MH7      0.606700
     11 O11        10.0290   -1.9260    4.8250 o         1 MH7     -0.518100
     12 N12        10.4270   -1.7550    2.5440 nx        1 MH7     -0.592200
     13 C13        10.6100   -3.1800    2.1830 c3        1 MH7      0.086100
     14 C14        11.7460   -1.1060    2.8360 c3        1 MH7      0.106800
     15 C15        11.6700    0.4150    2.8560 c3        1 MH7     -0.103400
     16 C16        13.0460    0.9840    3.1440 c3        1 MH7     -0.077400
     17 C17        13.0100    2.4900    3.1680 c3        1 MH7     -0.098100
     18 C18         7.2560   -0.7540    4.5410 ca        1 MH7      0.822200
     19 N19         7.7050   -0.6270    5.8210 nu        1 MH7     -0.826900
     20 C20         6.8980   -0.1440    6.9360 c3        1 MH7      0.215500
     21 C21         7.8010    0.3840    8.0660 c3        1 MH7     -0.089400
     22 C22         6.9510    0.9740    9.1690 c3        1 MH7     -0.096400
     23 C23         5.9660   -0.0540    9.7200 c3        1 MH7      0.141100
     24 O24         5.0680    0.5540   10.6380 oh        1 MH7     -0.589800
     25 C25         5.1030   -0.6370    8.6050 c3        1 MH7     -0.096400
     26 C26         5.9600   -1.2220    7.5060 c3        1 MH7     -0.089400
     27 N27         5.9800   -0.3480    4.2470 nb        1 MH7     -0.845000
     28 H012       -0.1230    0.7670   -1.1770 hc        1 MH7      0.043033
     29 H011       -0.3940    0.3000    0.5520 hc        1 MH7      0.043033
     30 H013        0.2470    1.9450    0.1490 hc        1 MH7      0.043033
     31 H021        2.3360    0.8980   -0.7920 hc        1 MH7      0.046200
     32 H022        1.6960   -0.7440   -0.3890 hc        1 MH7      0.046200
     33 H031        2.2410    1.5330    1.6420 hc        1 MH7      0.056700
     34 H032        1.5990   -0.1110    2.0450 hc        1 MH7      0.056700
     35 H041        4.3100    0.4840    0.6200 h1        1 MH7      0.068200
     36 H042        3.6630   -1.1730    1.0240 h1        1 MH7      0.068200
     37 H051        3.7260    0.3670    3.4120 hn        1 MH7      0.470800
     38 H081        8.0780   -1.8450    1.3460 h4        1 MH7      0.010100
     39 H133       11.0720   -3.7220    3.0520 hx        1 MH7      0.102367
     40 H131        9.6080   -3.6320    1.9500 hx        1 MH7      0.102367
     41 H132       11.2800   -3.2660    1.2860 hx        1 MH7      0.102367
     42 H141       12.4750   -1.4380    2.0410 hx        1 MH7      0.106700
     43 H142       12.1060   -1.4890    3.8350 hx        1 MH7      0.106700
     44 H152       10.9510    0.7570    3.6470 hc        1 MH7      0.062700
     45 H151       11.3040    0.8050    1.8690 hc        1 MH7      0.062700
     46 H162       13.7700    0.6360    2.3600 hc        1 MH7      0.053700
     47 H161       13.4120    0.5990    4.1330 hc        1 MH7      0.053700
     48 H172       12.3130    2.8590    3.9590 hc        1 MH7      0.048367
     49 H173       14.0310    2.8920    3.3830 hc        1 MH7      0.048367
     50 H171       12.6720    2.8960    2.1840 hc        1 MH7      0.048367
     51 H191        8.5790   -1.0440    6.0650 hn        1 MH7      0.461800
     52 H201        6.2640    0.7190    6.5660 h1        1 MH7      0.091700
     53 H212        8.4930    1.1730    7.6720 hc        1 MH7      0.053200
     54 H211        8.4280   -0.4500    8.4770 hc        1 MH7      0.053200
     55 H221        6.3790    1.8600    8.7880 hc        1 MH7      0.063200
     56 H222        7.6160    1.3350    9.9970 hc        1 MH7      0.063200
     57 H231        6.5320   -0.8800   10.2370 h1        1 MH7      0.037700
     58 H241        5.6000    0.8940   11.3670 ho        1 MH7      0.407000
     59 H251        4.4400   -1.4330    9.0340 hc        1 MH7      0.063200
     60 H252        4.4380    0.1680    8.1970 hc        1 MH7      0.063200
     61 H261        5.2960   -1.6200    6.6950 hc        1 MH7      0.053200
     62 H262        6.5640   -2.0770    7.9080 hc        1 MH7      0.053200
     63 H121       10.0030   -1.2550    1.7560 hn        1 MH7      0.442800
@<TRIPOS>BOND
     1    1    2 1   
     2    1   28 1   
     3    1   29 1   
     4    1   30 1   
     5    2    3 1   
     6    2   31 1   
     7    2   32 1   
     8    3    4 1   
     9    3   33 1   
    10    3   34 1   
    11    4    5 1   
    12    4   35 1   
    13    4   36 1   
    14    5    6 1   
    15    5   37 1   
    16    6    7 ar  
    17    6   27 ar  
    18    7    8 ar  
    19    8    9 ar  
    20    8   38 1   
    21    9   10 1   
    22    9   18 ar  
    23   10   11 2   
    24   10   12 1   
    25   12   13 1   
    26   12   14 1   
    27   12   63 1   
    28   13   39 1   
    29   13   40 1   
    30   13   41 1   
    31   14   15 1   
    32   14   42 1   
    33   14   43 1   
    34   15   16 1   
    35   15   44 1   
    36   15   45 1   
    37   16   17 1   
    38   16   46 1   
    39   16   47 1   
    40   17   48 1   
    41   17   49 1   
    42   17   50 1   
    43   18   19 1   
    44   18   27 ar  
    45   19   20 1   
    46   19   51 1   
    47   20   21 1   
    48   20   26 1   
    49   20   52 1   
    50   21   22 1   
    51   21   53 1   
    52   21   54 1   
    53   22   23 1   
    54   22   55 1   
    55   22   56 1   
    56   23   24 1   
    57   23   25 1   
    58   23   57 1   
    59   24   58 1   
    60   25   26 1   
    61   25   59 1   
    62   25   60 1   
    63   26   61 1   
    64   26   62 1   
@<TRIPOS>SUBSTRUCTURE
     1 MH7         1 TEMP              0 ****  ****    0 ROOT
