@<TRIPOS>MOLECULE
MH7
   63    64     1     0     0
SMALL
bcc


@<TRIPOS>ATOM
      1 C01         0.1500    0.7590   -0.0980 c3        1 MH7     -0.097100
      2 C02         1.6040    0.3720   -0.0120 c3        1 MH7     -0.077400
      3 C03         2.0950    0.4160    1.4210 c3        1 MH7     -0.100400
      4 C04         3.5700    0.0170    1.4670 c3        1 MH7      0.206800
      5 N05         4.1070    0.0390    2.8100 nh        1 MH7     -0.802900
      6 C06         5.3960   -0.2980    3.1070 ca        1 MH7      0.967900
      7 N07         6.2690   -0.6660    2.0400 nb        1 MH7     -0.742000
      8 C08         7.5070   -0.9380    2.3740 ca        1 MH7      0.532200
      9 C09         8.0420   -0.8900    3.7010 ca        1 MH7     -0.597200
     10 C10         9.4070   -1.1600    4.0010 c         1 MH7      0.606700
     11 O11         9.9470   -1.4580    5.0690 o         1 MH7     -0.519100
     12 N12        10.4080   -1.0520    2.8330 n4        1 MH7     -0.592200
     13 C13        10.7410   -2.4110    2.3470 c3        1 MH7      0.084100
     14 C14        11.6280   -0.3030    3.2770 c3        1 MH7      0.110800
     15 C15        12.5090    0.1640    2.1260 c3        1 MH7     -0.105400
     16 C16        13.6560    0.9900    2.6770 c3        1 MH7     -0.077400
     17 C17        14.5630    1.4570    1.5670 c3        1 MH7     -0.099100
     18 C18         7.0720   -0.5730    4.7550 ca        1 MH7      0.823200
     19 N19         7.4530   -0.5230    6.0610 nh        1 MH7     -0.826900
     20 C20         6.5560   -0.2320    7.1740 c3        1 MH7      0.215500
     21 C21         7.3530    0.2770    8.3900 c3        1 MH7     -0.089900
     22 C22         6.4020    0.6710    9.4980 c3        1 MH7     -0.096400
     23 C23         5.5110   -0.5000    9.9060 c3        1 MH7      0.141100
     24 O24         4.5190   -0.0760   10.8300 oh        1 MH7     -0.589800
     25 C25         4.7600   -1.0610    8.7030 c3        1 MH7     -0.096400
     26 C26         5.7170   -1.4490    7.5990 c3        1 MH7     -0.089900
     27 N27         5.7720   -0.2750    4.4350 nb        1 MH7     -0.846000
     28 H012       -0.4820    0.0620    0.5030 hc        1 MH7      0.043033
     29 H011       -0.1950    0.7210   -1.1600 hc        1 MH7      0.043033
     30 H013       -0.0070    1.7960    0.2870 hc        1 MH7      0.043033
     31 H021        2.2180    1.0680   -0.6420 hc        1 MH7      0.046200
     32 H022        1.7440   -0.6620   -0.4250 hc        1 MH7      0.046200
     33 H031        1.4820   -0.2820    2.0490 hc        1 MH7      0.056700
     34 H032        1.9580    1.4510    1.8320 hc        1 MH7      0.056700
     35 H041        4.1680    0.7260    0.8230 h1        1 MH7      0.068200
     36 H042        3.6880   -1.0210    1.0390 h1        1 MH7      0.068200
     37 H051        3.4890    0.2790    3.5590 hn        1 MH7      0.470800
     38 H081        8.1330   -1.2580    1.5170 h4        1 MH7      0.010100
     39 H133        9.8060   -2.9090    1.9760 hx        1 MH7      0.101700
     40 H131       11.1720   -3.0100    3.1950 hx        1 MH7      0.101700
     41 H132       11.4920   -2.3460    1.5150 hx        1 MH7      0.101700
     42 H141       11.2720    0.5900    3.8680 hx        1 MH7      0.107200
     43 H142       12.2100   -0.9720    3.9740 hx        1 MH7      0.107200
     44 H152       12.9220   -0.7140    1.5620 hc        1 MH7      0.060700
     45 H151       11.9180    0.7860    1.4020 hc        1 MH7      0.060700
     46 H162       14.2420    0.3760    3.4110 hc        1 MH7      0.054200
     47 H161       13.2490    1.8770    3.2310 hc        1 MH7      0.054200
     48 H172       15.3990    2.0650    1.9910 hc        1 MH7      0.049033
     49 H173       15.0020    0.5880    1.0200 hc        1 MH7      0.049033
     50 H171       14.0030    2.0890    0.8360 hc        1 MH7      0.049033
     51 H191        8.3580   -0.8650    6.3090 hn        1 MH7      0.461800
     52 H201        5.8490    0.5920    6.8520 h1        1 MH7      0.091700
     53 H212        7.9720    1.1660    8.1010 hc        1 MH7      0.053450
     54 H211        8.0480   -0.5230    8.7550 hc        1 MH7      0.053450
     55 H221        6.9930    1.0180   10.3860 hc        1 MH7      0.063450
     56 H222        5.7550    1.5250    9.1700 hc        1 MH7      0.063450
     57 H231        6.1420   -1.3090   10.3740 h1        1 MH7      0.037700
     58 H241        4.9830    0.2470   11.6120 ho        1 MH7      0.407000
     59 H251        4.0290   -0.2930    8.3370 hc        1 MH7      0.063450
     60 H252        4.1690   -1.9580    9.0260 hc        1 MH7      0.063450
     61 H261        6.3920   -2.2720    7.9520 hc        1 MH7      0.053450
     62 H262        5.1310   -1.8360    6.7250 hc        1 MH7      0.053450
     63 H121        9.9760   -0.5190    2.0710 hn        1 MH7      0.441800
@<TRIPOS>BOND
     1    1    2 1   
     2    1   28 1   
     3    1   29 1   
     4    1   30 1   
     5    2    3 1   
     6    2   31 1   
     7    2   32 1   
     8    3    4 1   
     9    3   33 1   
    10    3   34 1   
    11    4    5 1   
    12    4   35 1   
    13    4   36 1   
    14    5    6 1   
    15    5   37 1   
    16    6    7 ar  
    17    6   27 ar  
    18    7    8 ar  
    19    8    9 ar  
    20    8   38 1   
    21    9   10 1   
    22    9   18 ar  
    23   10   11 2   
    24   10   12 1   
    25   12   13 1   
    26   12   14 1   
    27   12   63 1   
    28   13   39 1   
    29   13   40 1   
    30   13   41 1   
    31   14   15 1   
    32   14   42 1   
    33   14   43 1   
    34   15   16 1   
    35   15   44 1   
    36   15   45 1   
    37   16   17 1   
    38   16   46 1   
    39   16   47 1   
    40   17   48 1   
    41   17   49 1   
    42   17   50 1   
    43   18   19 1   
    44   18   27 ar  
    45   19   20 1   
    46   19   51 1   
    47   20   21 1   
    48   20   26 1   
    49   20   52 1   
    50   21   22 1   
    51   21   53 1   
    52   21   54 1   
    53   22   23 1   
    54   22   55 1   
    55   22   56 1   
    56   23   24 1   
    57   23   25 1   
    58   23   57 1   
    59   24   58 1   
    60   25   26 1   
    61   25   59 1   
    62   25   60 1   
    63   26   61 1   
    64   26   62 1   
@<TRIPOS>SUBSTRUCTURE
     1 MH7         1 TEMP              0 ****  ****    0 ROOT
