@<TRIPOS>MOLECULE
MH9
   33    29     1     0     0
SMALL
bcc


@<TRIPOS>ATOM
      1 C           0.3640    4.3680   -4.9040 c1        1 MH9      0.341000
      2 O           1.5680    4.7360   -4.8950 o         1 MH9     -0.571000
      3 C1         -0.4060    4.2700   -3.6050 c1        1 MH9     -0.165250
      4 C2         -0.4680    3.0970   -2.9450 c1        1 MH9     -0.165250
      5 C3          0.2340    1.8780   -3.5030 c1        1 MH9     -0.165250
      6 C4          0.4300    0.7970   -2.7220 c1        1 MH9     -0.165250
      7 C5         -0.0510    0.8030   -1.2870 c2        1 MH9     -0.112000
      8 C6          0.3840   -0.4750   -0.6040 c3        1 MH9     -0.154000
      9 C7         -0.1750   -0.5100    0.8010 c3        1 MH9     -0.158000
     10 C8          0.3100   -1.7590    1.5050 c3        1 MH9     -0.157000
     11 C9         -0.3330   -1.8490    2.8710 c3        1 MH9     -0.158000
     12 C10         0.1970   -3.0650    3.5990 c3        1 MH9     -0.159000
     13 C11        -0.4520   -3.1600    4.9620 c3        1 MH9     -0.209000
     14 OXT        -0.2000    4.0850   -5.9930 o         1 MH9     -0.571000
     15 H1         -0.8590    5.0560   -3.2460 ha        1 MH9      0.114250
     16 H2         -0.9650    3.0330   -2.1080 ha        1 MH9      0.114250
     17 H3          0.5440    1.8740   -4.4280 ha        1 MH9      0.114250
     18 H4          0.8820    0.0110   -3.0820 ha        1 MH9      0.114250
     19 H51         0.3330    1.5710   -0.8180 ha        1 MH9      0.073500
     20 H52        -1.0270    0.8660   -1.2710 ha        1 MH9      0.073500
     21 H61         0.0490   -1.2440   -1.1080 hc        1 MH9      0.074500
     22 H62         1.3610   -0.5090   -0.5680 hc        1 MH9      0.074500
     23 H71        -1.1520   -0.5160    0.7640 hc        1 MH9      0.076000
     24 H72         0.1290    0.2790    1.2930 hc        1 MH9      0.076000
     25 H81         1.2820   -1.7210    1.6040 hc        1 MH9      0.076000
     26 H82         0.0660   -2.5460    0.9770 hc        1 MH9      0.076000
     27 H91        -1.3030   -1.9270    2.7710 hc        1 MH9      0.077000
     28 H92        -0.1210   -1.0440    3.3850 hc        1 MH9      0.077000
     29 H101        1.1660   -2.9860    3.7040 hc        1 MH9      0.076000
     30 H102       -0.0100   -3.8700    3.0820 hc        1 MH9      0.076000
     31 H111       -0.3630   -2.3020    5.4270 hc        1 MH9      0.068333
     32 H112       -0.0110   -3.8620    5.4850 hc        1 MH9      0.068333
     33 H113       -1.4010   -3.3790    4.8570 hc        1 MH9      0.068333
@<TRIPOS>BOND
     1    1    2 1   
     2    1   14 1   
     3    3    4 1   
     4    3   15 1   
     5    4   16 1   
     6    5    6 1   
     7    5   17 1   
     8    6   18 1   
     9    7    8 1   
    10    7   19 1   
    11    7   20 1   
    12    8    9 1   
    13    8   21 1   
    14    8   22 1   
    15    9   10 1   
    16    9   23 1   
    17    9   24 1   
    18   10   11 1   
    19   10   25 1   
    20   10   26 1   
    21   11   12 1   
    22   11   27 1   
    23   11   28 1   
    24   12   13 1   
    25   12   29 1   
    26   12   30 1   
    27   13   31 1   
    28   13   32 1   
    29   13   33 1   
@<TRIPOS>SUBSTRUCTURE
     1 MH9         1 TEMP              0 ****  ****    0 ROOT
