@<TRIPOS>MOLECULE
MH9
   33    32     1     0     0
SMALL
bcc


@<TRIPOS>ATOM
      1 C          -0.1770    0.7290    0.5330 c         1 MH9      0.890800
      2 O           0.8570    0.0010    0.4860 o         1 MH9     -0.836300
      3 C1         -1.1960    0.5380    1.6330 ce        1 MH9     -0.159200
      4 C2         -1.0120   -0.0040    2.8450 cf        1 MH9     -0.194000
      5 C3          0.2390   -0.5570    3.3150 cf        1 MH9     -0.074000
      6 C4          0.4450   -1.0560    4.5430 c2        1 MH9     -0.257200
      7 C5         -0.5770   -1.1160    5.6140 c3        1 MH9     -0.029200
      8 C6         -0.0300   -1.7190    6.8920 c3        1 MH9     -0.075400
      9 C7         -1.0890   -1.7710    7.9730 c3        1 MH9     -0.079400
     10 C8         -0.5450   -2.3740    9.2500 c3        1 MH9     -0.078400
     11 C9         -1.6040   -2.4260   10.3310 c3        1 MH9     -0.079400
     12 C10        -1.0610   -3.0290   11.6090 c3        1 MH9     -0.080400
     13 C11        -2.1120   -3.0820   12.6870 c3        1 MH9     -0.091100
     14 OXT        -0.4320    1.6310   -0.3180 o         1 MH9     -0.836300
     15 H1         -2.1920    0.9350    1.3660 ha        1 MH9      0.097000
     16 H2         -1.8530   -0.0460    3.5600 ha        1 MH9      0.078000
     17 H3          1.0560   -0.5530    2.5620 ha        1 MH9      0.180000
     18 H4          1.4350   -1.4600    4.8080 ha        1 MH9      0.102000
     19 H51        -1.4570   -1.7240    5.2650 hc        1 MH9      0.034200
     20 H52        -0.9650   -0.0830    5.8280 hc        1 MH9      0.034200
     21 H61         0.8430   -1.1120    7.2500 hc        1 MH9      0.034700
     22 H62         0.3490   -2.7550    6.6870 hc        1 MH9      0.034700
     23 H71        -1.9630   -2.3770    7.6140 hc        1 MH9      0.036700
     24 H72        -1.4680   -0.7350    8.1770 hc        1 MH9      0.036700
     25 H81        -0.1670   -3.4100    9.0450 hc        1 MH9      0.036700
     26 H82         0.3290   -1.7680    9.6090 hc        1 MH9      0.036700
     27 H91        -1.9820   -1.3890   10.5360 hc        1 MH9      0.037700
     28 H92        -2.4780   -3.0310    9.9720 hc        1 MH9      0.037700
     29 H101       -0.1860   -2.4230   11.9650 hc        1 MH9      0.036700
     30 H102       -0.6820   -4.0640   11.4010 hc        1 MH9      0.036700
     31 H111       -2.4850   -2.0570   12.9250 hc        1 MH9      0.029033
     32 H112       -2.9820   -3.7020   12.3590 hc        1 MH9      0.029033
     33 H113       -1.6910   -3.5300   13.6200 hc        1 MH9      0.029033
@<TRIPOS>BOND
     1    1    2 1   
     2    1    3 1   
     3    1   14 1   
     4    3    4 2   
     5    3   15 1   
     6    4    5 1   
     7    4   16 1   
     8    5    6 2   
     9    5   17 1   
    10    6    7 1   
    11    6   18 1   
    12    7    8 1   
    13    7   19 1   
    14    7   20 1   
    15    8    9 1   
    16    8   21 1   
    17    8   22 1   
    18    9   10 1   
    19    9   23 1   
    20    9   24 1   
    21   10   11 1   
    22   10   25 1   
    23   10   26 1   
    24   11   12 1   
    25   11   27 1   
    26   11   28 1   
    27   12   13 1   
    28   12   29 1   
    29   12   30 1   
    30   13   31 1   
    31   13   32 1   
    32   13   33 1   
@<TRIPOS>SUBSTRUCTURE
     1 MH9         1 TEMP              0 ****  ****    0 ROOT
