@<TRIPOS>MOLECULE
MH9
   33    31     1     0     0
SMALL
bcc


@<TRIPOS>ATOM
      1 C           0.5640    0.7870    0.5390 c         1 MH9      0.911800
      2 O           1.7940    0.5590    0.3810 o         1 MH9     -0.816300
      3 C1         -0.2770   -0.3230    1.1590 ce        1 MH9     -0.150300
      4 C2         -0.5190   -0.4760    2.4300 c1        1 MH9     -0.081900
      5 C3         -0.7540   -0.6250    3.6640 c1        1 MH9     -0.064900
      6 C4         -0.9960   -0.7760    4.9410 c2        1 MH9     -0.238300
      7 C5         -0.4900    0.1450    5.9880 c3        1 MH9     -0.026200
      8 C6          0.0910   -0.5940    7.1790 c3        1 MH9     -0.074400
      9 C7         -0.9810   -1.1610    8.0850 c3        1 MH9     -0.078400
     10 C8         -0.3760   -1.8930    9.2640 c3        1 MH9     -0.079400
     11 C9         -1.4470   -2.4570   10.1720 c3        1 MH9     -0.079400
     12 C10        -0.8430   -3.1910   11.3510 c3        1 MH9     -0.080400
     13 C11        -1.9060   -3.7530   12.2580 c3        1 MH9     -0.091100
     14 OXT        -0.0390    1.8330    0.1770 o         1 MH9     -0.816300
     15 H1         -0.6910   -1.0300    0.4200 ha        1 MH9      0.119000
     16 H2         -2.6800   -3.3520    3.4920 ha        1 MH9      0.000000
     17 H3         -2.2850   -2.8030    3.4460 ha        1 MH9      0.000000
     18 H4         -1.6150   -1.6160    5.2960 ha        1 MH9      0.106000
     19 H51        -1.3330    0.8040    6.3330 hc        1 MH9      0.041700
     20 H52         0.3000    0.8170    5.5580 hc        1 MH9      0.041700
     21 H61         0.7330    0.1130    7.7700 hc        1 MH9      0.035200
     22 H62         0.7540   -1.4220    6.8180 hc        1 MH9      0.035200
     23 H71        -1.6340   -1.8620    7.5020 hc        1 MH9      0.038200
     24 H72        -1.6380   -0.3310    8.4570 hc        1 MH9      0.038200
     25 H81         0.2780   -2.7260    8.8920 hc        1 MH9      0.036200
     26 H82         0.2800   -1.1930    9.8450 hc        1 MH9      0.036200
     27 H91        -2.1010   -1.6250   10.5440 hc        1 MH9      0.038200
     28 H92        -2.1020   -3.1570    9.5900 hc        1 MH9      0.038200
     29 H101       -0.1860   -2.4890   11.9300 hc        1 MH9      0.036700
     30 H102       -0.1880   -4.0210   10.9770 hc        1 MH9      0.036700
     31 H111       -2.5540   -2.9370   12.6600 hc        1 MH9      0.029033
     32 H112       -2.5550   -4.4730   11.7040 hc        1 MH9      0.029033
     33 H113       -1.4390   -4.2900   13.1190 hc        1 MH9      0.029033
@<TRIPOS>BOND
     1    1    2 1   
     2    1    3 1   
     3    1   14 1   
     4    3    4 2   
     5    3   15 1   
     6    4    5 2   
     7    5    6 2   
     8    6    7 1   
     9    6   18 1   
    10    7    8 1   
    11    7   19 1   
    12    7   20 1   
    13    8    9 1   
    14    8   21 1   
    15    8   22 1   
    16    9   10 1   
    17    9   23 1   
    18    9   24 1   
    19   10   11 1   
    20   10   25 1   
    21   10   26 1   
    22   11   12 1   
    23   11   27 1   
    24   11   28 1   
    25   12   13 1   
    26   12   29 1   
    27   12   30 1   
    28   13   31 1   
    29   13   32 1   
    30   13   33 1   
    31   16   17 1   
@<TRIPOS>SUBSTRUCTURE
     1 MH9         1 TEMP              0 ****  ****    0 ROOT
