@<TRIPOS>MOLECULE
MH9
   33    32     1     0     0
SMALL
bcc


@<TRIPOS>ATOM
      1 C          -5.7330    0.3070   -0.0300 c         1 MH9      0.888800
      2 O          -5.8470    0.6800    1.1720 o         1 MH9     -0.835800
      3 C1         -4.3810   -0.1390   -0.5400 ce        1 MH9     -0.161200
      4 C2         -3.2770   -0.1650    0.2190 cf        1 MH9     -0.203000
      5 C3         -1.9830   -0.5900   -0.2650 cf        1 MH9     -0.079000
      6 C4         -0.8760   -0.6200    0.4910 c2        1 MH9     -0.240200
      7 C5          0.4430   -1.0770   -0.0030 c3        1 MH9     -0.030200
      8 C6          1.5460   -0.1040    0.3690 c3        1 MH9     -0.076400
      9 C7          2.8930   -0.5860   -0.1230 c3        1 MH9     -0.079400
     10 C8          3.9950    0.3840    0.2500 c3        1 MH9     -0.079400
     11 C9          5.3430   -0.0970   -0.2430 c3        1 MH9     -0.078400
     12 C10         6.4440    0.8720    0.1300 c3        1 MH9     -0.080400
     13 C11         7.7890    0.3980   -0.3590 c3        1 MH9     -0.091100
     14 OXT        -6.6930    0.2810   -0.8550 o         1 MH9     -0.835800
     15 H1         -4.3670   -0.4480   -1.5980 ha        1 MH9      0.096000
     16 H2         -3.3410    0.1540    1.2740 ha        1 MH9      0.140000
     17 H3         -1.9400   -0.9040   -1.3240 ha        1 MH9      0.100000
     18 H4         -0.9030   -0.3070    1.5470 ha        1 MH9      0.117000
     19 H51         0.6740   -2.0830    0.4450 hc        1 MH9      0.030700
     20 H52         0.4270   -1.2110   -1.1180 hc        1 MH9      0.030700
     21 H61         1.3200    0.9020   -0.0720 hc        1 MH9      0.040700
     22 H62         1.5740    0.0230    1.4830 hc        1 MH9      0.040700
     23 H71         3.1160   -1.5940    0.3170 hc        1 MH9      0.035200
     24 H72         2.8640   -0.7110   -1.2370 hc        1 MH9      0.035200
     25 H81         3.7710    1.3920   -0.1890 hc        1 MH9      0.038700
     26 H82         4.0240    0.5090    1.3640 hc        1 MH9      0.038700
     27 H91         5.5660   -1.1050    0.1960 hc        1 MH9      0.037200
     28 H92         5.3130   -0.2220   -1.3570 hc        1 MH9      0.037200
     29 H101        6.2180    1.8800   -0.3090 hc        1 MH9      0.038200
     30 H102        6.4710    0.9970    1.2440 hc        1 MH9      0.038200
     31 H111        8.0420   -0.5940    0.0870 hc        1 MH9      0.029033
     32 H112        7.7890    0.2920   -1.4700 hc        1 MH9      0.029033
     33 H113        8.5860    1.1270   -0.0740 hc        1 MH9      0.029033
@<TRIPOS>BOND
     1    1    2 1   
     2    1    3 1   
     3    1   14 1   
     4    3    4 2   
     5    3   15 1   
     6    4    5 1   
     7    4   16 1   
     8    5    6 2   
     9    5   17 1   
    10    6    7 1   
    11    6   18 1   
    12    7    8 1   
    13    7   19 1   
    14    7   20 1   
    15    8    9 1   
    16    8   21 1   
    17    8   22 1   
    18    9   10 1   
    19    9   23 1   
    20    9   24 1   
    21   10   11 1   
    22   10   25 1   
    23   10   26 1   
    24   11   12 1   
    25   11   27 1   
    26   11   28 1   
    27   12   13 1   
    28   12   29 1   
    29   12   30 1   
    30   13   31 1   
    31   13   32 1   
    32   13   33 1   
@<TRIPOS>SUBSTRUCTURE
     1 MH9         1 TEMP              0 ****  ****    0 ROOT
