@<TRIPOS>MOLECULE
MHA
   21    20     1     0     0
SMALL
bcc


@<TRIPOS>ATOM
      1 N1          0.1010   -0.0720    0.2310 n3        1 MHA     -0.741600
      2 C1         -0.2450    0.1080   -1.1680 c3        1 MHA      0.077300
      3 C2          0.9560    0.2680   -2.1310 c         1 MHA      0.891600
      4 O1          1.0540   -0.5480   -3.0930 o         1 MHA     -0.866300
      5 O2          1.7660    1.2350   -1.9810 o         1 MHA     -0.866300
      6 C3         -0.9820    0.1870    1.1590 c3        1 MHA      0.077300
      7 C4         -2.1340   -0.8310    1.3290 c         1 MHA      0.891600
      8 O3         -1.8810   -2.0670    1.4310 o         1 MHA     -0.866300
      9 O4         -3.3070   -0.3590    1.4310 o         1 MHA     -0.866300
     10 C5          0.8560   -1.2730    0.5070 c3        1 MHA      0.124800
     11 C6          2.3210   -1.0210    0.8980 c         1 MHA      0.644100
     12 O5          2.9450   -1.8670    1.5940 o         1 MHA     -0.730100
     13 N2          2.9640    0.1130    0.4860 n         1 MHA     -0.652000
     14 HC11       -0.8840   -0.7400   -1.5480 h1        1 MHA      0.022200
     15 HC12       -0.8480    1.0560   -1.2520 h1        1 MHA      0.022200
     16 HC31       -0.5140    0.3010    2.1790 h1        1 MHA      0.022200
     17 HC32       -1.4390    1.1760    0.8770 h1        1 MHA      0.022200
     18 HC51        0.9110   -1.9430   -0.4010 h1        1 MHA      0.081700
     19 HC52        0.3880   -1.8680    1.3450 h1        1 MHA      0.081700
     20 HN21        3.9460    0.1630    0.5890 hn        1 MHA      0.313500
     21 HN22        2.5330    0.7100   -0.1950 hn        1 MHA      0.313500
@<TRIPOS>BOND
     1    1    2 1   
     2    1    6 1   
     3    1   10 1   
     4    2    3 1   
     5    2   14 1   
     6    2   15 1   
     7    3    4 1   
     8    3    5 1   
     9    6    7 1   
    10    6   16 1   
    11    6   17 1   
    12    7    8 1   
    13    7    9 1   
    14   10   11 1   
    15   10   18 1   
    16   10   19 1   
    17   11   12 2   
    18   11   13 1   
    19   13   20 1   
    20   13   21 1   
@<TRIPOS>SUBSTRUCTURE
     1 MHA         1 TEMP              0 ****  ****    0 ROOT
