@<TRIPOS>MOLECULE
MHB
   30    25     1     0     0
SMALL
bcc


@<TRIPOS>ATOM
      1 C1          0.5220   -1.9580   -0.3530 cg        1 MHB     -0.046000
      2 C2          1.8940   -1.9770   -0.5530 cg        1 MHB     -0.045200
      3 C3          2.7540   -1.9660    0.5340 c1        1 MHB     -0.050500
      4 C4          2.2420   -1.9350    1.8220 c1        1 MHB     -0.090500
      5 C5          0.8710   -1.9160    2.0220 c1        1 MHB     -0.090500
      6 C6          0.0110   -1.9280    0.9360 c1        1 MHB     -0.057500
      7 C1'        -0.9420    0.0980   -1.1950 ch        1 MHB     -0.046000
      8 C2'        -1.8340    0.4170   -0.1810 c1        1 MHB     -0.057500
      9 C3'        -1.8390    1.6930    0.3620 c1        1 MHB     -0.090100
     10 C4'        -0.9530    2.6490   -0.1080 c1        1 MHB      0.088600
     11 C5'        -0.0620    2.3310   -1.1200 c1        1 MHB     -0.090500
     12 C6'        -0.0570    1.0550   -1.6640 c1        1 MHB     -0.090500
     13 C           2.4520   -2.0270   -1.9580 c         1 MHB      0.863800
     14 CM3        -2.8610    2.0620    1.4180 c3        1 MHB     -0.065000
     15 N1         -0.3540   -2.1170   -1.4570 ne        1 MHB     -0.035500
     16 N1'        -1.0380   -1.1580   -1.8490 nf        1 MHB     -0.035500
     17 O           3.1890   -1.0960   -2.3760 o         1 MHB     -0.822800
     18 OXT         2.2010   -3.0130   -2.7000 o         1 MHB     -0.822800
     19 O4'        -0.9980    3.9610    0.4020 oh        1 MHB     -0.496600
     20 H3          3.7190   -1.9790    0.3930 ha        1 MHB      0.090500
     21 H4          2.8480   -1.9270    2.5870 ha        1 MHB      0.085250
     22 H5          0.5110   -1.8940    2.9290 ha        1 MHB      0.085250
     23 H6         -0.9550   -1.9140    1.0780 ha        1 MHB      0.067000
     24 H2'        -2.4580   -0.2570    0.1500 ha        1 MHB      0.067000
     25 H5'         0.5620    3.0050   -1.4510 ha        1 MHB      0.085250
     26 H6'         0.5730    0.8300   -2.3750 ha        1 MHB      0.085250
     27 HM31       -3.3990    1.2740    1.6430 hc        1 MHB      0.035367
     28 HM32       -3.4460    2.7690    1.0740 hc        1 MHB      0.035367
     29 HM33       -2.4000    2.3820    2.2220 hc        1 MHB      0.035367
     30 HO4'       -0.7570    4.5350   -0.2340 ho        1 MHB      0.410000
@<TRIPOS>BOND
     1    1    6 3   
     2    1   15 1   
     3    2    3 3   
     4    2   13 1   
     5    3   20 1   
     6    4    5 3   
     7    4   21 1   
     8    5   22 1   
     9    6   23 1   
    10    7    8 3   
    11    7   16 1   
    12    8   24 1   
    13    9   10 3   
    14    9   14 1   
    15   10   19 1   
    16   11   12 3   
    17   11   25 1   
    18   12   26 1   
    19   13   17 1   
    20   13   18 1   
    21   14   27 1   
    22   14   28 1   
    23   14   29 1   
    24   15   16 2   
    25   19   30 1   
@<TRIPOS>SUBSTRUCTURE
     1 MHB         1 TEMP              0 ****  ****    0 ROOT
