@<TRIPOS>MOLECULE
MHB
   30    31     1     0     0
SMALL
bcc


@<TRIPOS>ATOM
      1 C1         -0.1980    0.2050    0.2760 ca        1 MHB      0.121400
      2 C2          1.1720   -0.0250    0.0200 ca        1 MHB     -0.098600
      3 C3          2.0410   -0.1320    1.1110 ca        1 MHB     -0.105000
      4 C4          1.5770   -0.0350    2.4200 ca        1 MHB     -0.159000
      5 C5          0.2200    0.1740    2.6630 ca        1 MHB     -0.152000
      6 C6         -0.6690    0.2900    1.5990 ca        1 MHB     -0.152000
      7 C1'        -2.5920   -0.1670   -2.4250 ca        1 MHB      0.090400
      8 C2'        -3.9960   -0.1420   -2.4140 ca        1 MHB     -0.099000
      9 C3'        -4.7180   -0.0630   -3.6080 ca        1 MHB     -0.118300
     10 C4'        -4.0080   -0.0060   -4.8200 ca        1 MHB      0.098100
     11 C5'        -2.6070   -0.0270   -4.8420 ca        1 MHB     -0.210000
     12 C6'        -1.8960   -0.1010   -3.6510 ca        1 MHB     -0.069000
     13 C           1.7640   -0.1560   -1.3820 c         1 MHB      0.916200
     14 CM3        -6.1970   -0.0440   -3.6050 c3        1 MHB     -0.031800
     15 N1         -1.0730    0.4680   -0.8380 ne        1 MHB     -0.153400
     16 N1'        -1.8610   -0.3960   -1.2020 nf        1 MHB     -0.186400
     17 O           1.0470   -0.6080   -2.3180 o         1 MHB     -0.828300
     18 OXT         2.9740    0.1800   -1.5220 o         1 MHB     -0.828300
     19 O4'        -4.7560    0.0720   -5.9810 oh        1 MHB     -0.514100
     20 H3          3.1120   -0.2830    0.8980 ha        1 MHB      0.154000
     21 H4          2.2780   -0.1240    3.2620 ha        1 MHB      0.108000
     22 H5         -0.1520    0.2450    3.6940 ha        1 MHB      0.106000
     23 H6         -1.7380    0.4510    1.7980 ha        1 MHB      0.116000
     24 H2'        -4.5450   -0.1870   -1.4610 ha        1 MHB      0.132000
     25 H5'        -2.0690    0.0190   -5.8000 ha        1 MHB      0.129000
     26 H6'        -0.7850   -0.1280   -3.6480 ha        1 MHB      0.212000
     27 HM31       -6.5930   -1.0250   -3.9710 hc        1 MHB      0.035700
     28 HM32       -6.5990    0.1410   -2.5790 hc        1 MHB      0.035700
     29 HM33       -6.5750    0.7550   -4.2900 hc        1 MHB      0.035700
     30 HO4'       -4.1340    0.1200   -6.7200 ho        1 MHB      0.410000
@<TRIPOS>BOND
     1    1    2 ar  
     2    1    6 ar  
     3    1   15 1   
     4    2    3 ar  
     5    2   13 1   
     6    3    4 ar  
     7    3   20 1   
     8    4    5 ar  
     9    4   21 1   
    10    5    6 ar  
    11    5   22 1   
    12    6   23 1   
    13    7    8 ar  
    14    7   12 ar  
    15    7   16 1   
    16    8    9 ar  
    17    8   24 1   
    18    9   10 ar  
    19    9   14 1   
    20   10   11 ar  
    21   10   19 1   
    22   11   12 ar  
    23   11   25 1   
    24   12   26 1   
    25   13   17 1   
    26   13   18 1   
    27   14   27 1   
    28   14   28 1   
    29   14   29 1   
    30   15   16 2   
    31   19   30 1   
@<TRIPOS>SUBSTRUCTURE
     1 MHB         1 TEMP              0 ****  ****    0 ROOT
