@<TRIPOS>MOLECULE
MHB
   30    31     1     0     0
SMALL
bcc


@<TRIPOS>ATOM
      1 C1         -0.2000    0.2030    0.2780 ca        1 MHB      0.121400
      2 C2          1.1720   -0.0090    0.0190 ca        1 MHB     -0.098600
      3 C3          2.0420   -0.1170    1.1100 ca        1 MHB     -0.105000
      4 C4          1.5780   -0.0390    2.4200 ca        1 MHB     -0.159000
      5 C5          0.2190    0.1530    2.6650 ca        1 MHB     -0.152000
      6 C6         -0.6710    0.2690    1.6020 ca        1 MHB     -0.152000
      7 C1'        -2.5910   -0.1680   -2.4260 ca        1 MHB      0.090400
      8 C2'        -3.9940   -0.1610   -2.4150 ca        1 MHB     -0.099000
      9 C3'        -4.7180   -0.0770   -3.6070 ca        1 MHB     -0.118300
     10 C4'        -4.0090    0.0010   -4.8200 ca        1 MHB      0.098100
     11 C5'        -2.6070   -0.0030   -4.8420 ca        1 MHB     -0.210000
     12 C6'        -1.8960   -0.0820   -3.6520 ca        1 MHB     -0.069000
     13 C           1.7660   -0.1190   -1.3840 c         1 MHB      0.916200
     14 CM3        -6.1970   -0.0760   -3.6040 c3        1 MHB     -0.031800
     15 N1         -1.0790    0.4670   -0.8330 ne        1 MHB     -0.154400
     16 N1'        -1.8570   -0.4020   -1.2060 nf        1 MHB     -0.185400
     17 O           1.0530   -0.5680   -2.3240 o         1 MHB     -0.828300
     18 OXT         2.9710    0.2310   -1.5200 o         1 MHB     -0.828300
     19 O4'        -4.7580    0.0820   -5.9790 oh        1 MHB     -0.514100
     20 H3          3.1150   -0.2550    0.8940 ha        1 MHB      0.154000
     21 H4          2.2800   -0.1290    3.2600 ha        1 MHB      0.108000
     22 H5         -0.1540    0.2090    3.6960 ha        1 MHB      0.106000
     23 H6         -1.7420    0.4160    1.8030 ha        1 MHB      0.116000
     24 H2'        -4.5430   -0.2230   -1.4620 ha        1 MHB      0.132000
     25 H5'        -2.0710    0.0590   -5.7990 ha        1 MHB      0.129000
     26 H6'        -0.7840   -0.0950   -3.6500 ha        1 MHB      0.212000
     27 HM31       -6.5810   -1.0540   -3.9920 hc        1 MHB      0.035700
     28 HM32       -6.6010    0.0820   -2.5750 hc        1 MHB      0.035700
     29 HM33       -6.5840    0.7330   -4.2730 hc        1 MHB      0.035700
     30 HO4'       -4.1370    0.1440   -6.7180 ho        1 MHB      0.410000
@<TRIPOS>BOND
     1    1    2 ar  
     2    1    6 ar  
     3    1   15 1   
     4    2    3 ar  
     5    2   13 1   
     6    3    4 ar  
     7    3   20 1   
     8    4    5 ar  
     9    4   21 1   
    10    5    6 ar  
    11    5   22 1   
    12    6   23 1   
    13    7    8 ar  
    14    7   12 ar  
    15    7   16 1   
    16    8    9 ar  
    17    8   24 1   
    18    9   10 ar  
    19    9   14 1   
    20   10   11 ar  
    21   10   19 1   
    22   11   12 ar  
    23   11   25 1   
    24   12   26 1   
    25   13   17 1   
    26   13   18 1   
    27   14   27 1   
    28   14   28 1   
    29   14   29 1   
    30   15   16 2   
    31   19   30 1   
@<TRIPOS>SUBSTRUCTURE
     1 MHB         1 TEMP              0 ****  ****    0 ROOT
