@<TRIPOS>MOLECULE
MHB
   30    31     1     0     0
SMALL
bcc


@<TRIPOS>ATOM
      1 C1         -0.1990   -0.1990    0.2810 ca        1 MHB      0.121400
      2 C2          1.1730    0.0010    0.0170 ca        1 MHB     -0.098600
      3 C3          2.0450    0.1310    1.1040 ca        1 MHB     -0.105000
      4 C4          1.5810    0.0860    2.4150 ca        1 MHB     -0.159000
      5 C5          0.2220   -0.0950    2.6660 ca        1 MHB     -0.152000
      6 C6         -0.6700   -0.2320    1.6060 ca        1 MHB     -0.152000
      7 C1'        -2.5910    0.1200   -2.4290 ca        1 MHB      0.090400
      8 C2'        -3.9940    0.1210   -2.4170 ca        1 MHB     -0.099000
      9 C3'        -4.7190    0.0130   -3.6070 ca        1 MHB     -0.118300
     10 C4'        -4.0120   -0.0970   -4.8170 ca        1 MHB      0.098100
     11 C5'        -2.6100   -0.1010   -4.8400 ca        1 MHB     -0.210000
     12 C6'        -1.8970    0.0000   -3.6530 ca        1 MHB     -0.069000
     13 C           1.7660    0.0760   -1.3890 c         1 MHB      0.916200
     14 CM3        -6.1990    0.0030   -3.6000 c3        1 MHB     -0.031800
     15 N1         -1.0800   -0.4850   -0.8230 ne        1 MHB     -0.153400
     16 N1'        -1.8550    0.3790   -1.2150 nf        1 MHB     -0.186400
     17 O           1.0540    0.5060   -2.3390 o         1 MHB     -0.828300
     18 OXT         2.9700   -0.2830   -1.5180 o         1 MHB     -0.828300
     19 O4'        -4.7620   -0.2000   -5.9740 oh        1 MHB     -0.514100
     20 H3          3.1180    0.2590    0.8840 ha        1 MHB      0.154000
     21 H4          2.2840    0.1910    3.2530 ha        1 MHB      0.108000
     22 H5         -0.1510   -0.1260    3.6990 ha        1 MHB      0.106000
     23 H6         -1.7410   -0.3690    1.8120 ha        1 MHB      0.116000
     24 H2'        -4.5420    0.2100   -1.4660 ha        1 MHB      0.132000
     25 H5'        -2.0750   -0.1870   -5.7960 ha        1 MHB      0.129000
     26 H6'        -0.7860    0.0080   -3.6510 ha        1 MHB      0.212000
     27 HM31       -6.5760   -1.0310   -3.8040 hc        1 MHB      0.036033
     28 HM32       -6.6020    0.3420   -2.6150 hc        1 MHB      0.036033
     29 HM33       -6.5920    0.6750   -4.4030 hc        1 MHB      0.036033
     30 HO4'       -4.1410   -0.2460   -6.7150 ho        1 MHB      0.410000
@<TRIPOS>BOND
     1    1    2 ar  
     2    1    6 ar  
     3    1   15 1   
     4    2    3 ar  
     5    2   13 1   
     6    3    4 ar  
     7    3   20 1   
     8    4    5 ar  
     9    4   21 1   
    10    5    6 ar  
    11    5   22 1   
    12    6   23 1   
    13    7    8 ar  
    14    7   12 ar  
    15    7   16 1   
    16    8    9 ar  
    17    8   24 1   
    18    9   10 ar  
    19    9   14 1   
    20   10   11 ar  
    21   10   19 1   
    22   11   12 ar  
    23   11   25 1   
    24   12   26 1   
    25   13   17 1   
    26   13   18 1   
    27   14   27 1   
    28   14   28 1   
    29   14   29 1   
    30   15   16 2   
    31   19   30 1   
@<TRIPOS>SUBSTRUCTURE
     1 MHB         1 TEMP              0 ****  ****    0 ROOT
