@<TRIPOS>MOLECULE
MHB
   30    31     1     0     0
SMALL
bcc


@<TRIPOS>ATOM
      1 C1          0.9570    0.1990   -1.9680 ca        1 MHB      0.121400
      2 C2         -0.0920   -0.0200   -2.8870 ca        1 MHB     -0.098600
      3 C3          0.2280   -0.1250   -4.2450 ca        1 MHB     -0.105000
      4 C4          1.5440   -0.0350   -4.6890 ca        1 MHB     -0.159000
      5 C5          2.5750    0.1650   -3.7720 ca        1 MHB     -0.152000
      6 C6          2.2890    0.2780   -2.4150 ca        1 MHB     -0.152000
      7 C1'         0.3130   -0.1800    1.5830 ca        1 MHB      0.090400
      8 C2'         1.1890   -0.1690    2.6790 ca        1 MHB     -0.099000
      9 C3'         0.6990   -0.0900    3.9850 ca        1 MHB     -0.118300
     10 C4'        -0.6930   -0.0250    4.1780 ca        1 MHB      0.098100
     11 C5'        -1.5770   -0.0350    3.0890 ca        1 MHB     -0.210000
     12 C6'        -1.0810   -0.1050    1.7940 ca        1 MHB     -0.069000
     13 C          -1.5610   -0.1440   -2.4860 c         1 MHB      0.916200
     14 CM3         1.6170   -0.0670    5.1450 c3        1 MHB     -0.031800
     15 N1          0.6250    0.4600   -0.5900 ne        1 MHB     -0.153400
     16 N1'         0.8210   -0.4090    0.2510 nf        1 MHB     -0.186400
     17 O          -1.8560   -0.5980   -1.3450 o         1 MHB     -0.828300
     18 OXT        -2.4170    0.2000   -3.3490 o         1 MHB     -0.828300
     19 O4'        -1.1420    0.0500    5.4830 oh        1 MHB     -0.514100
     20 H3         -0.6040   -0.2690   -4.9550 ha        1 MHB      0.154000
     21 H4          1.7710   -0.1210   -5.7610 ha        1 MHB      0.108000
     22 H5          3.6160    0.2310   -4.1170 ha        1 MHB      0.106000
     23 H6          3.1070    0.4310   -1.6980 ha        1 MHB      0.116000
     24 H2'         2.2770   -0.2230    2.5220 ha        1 MHB      0.132000
     25 H5'        -2.6620    0.0170    3.2600 ha        1 MHB      0.129000
     26 H6'        -1.7660   -0.1230    0.9190 ha        1 MHB      0.212000
     27 HM31        1.6590    0.9640    5.5790 hc        1 MHB      0.036033
     28 HM32        1.2490   -0.7600    5.9430 hc        1 MHB      0.036033
     29 HM33        2.6500   -0.3720    4.8500 hc        1 MHB      0.036033
     30 HO4'       -2.1090    0.0670    5.4530 ho        1 MHB      0.410000
@<TRIPOS>BOND
     1    1    2 ar  
     2    1    6 ar  
     3    1   15 1   
     4    2    3 ar  
     5    2   13 1   
     6    3    4 ar  
     7    3   20 1   
     8    4    5 ar  
     9    4   21 1   
    10    5    6 ar  
    11    5   22 1   
    12    6   23 1   
    13    7    8 ar  
    14    7   12 ar  
    15    7   16 1   
    16    8    9 ar  
    17    8   24 1   
    18    9   10 ar  
    19    9   14 1   
    20   10   11 ar  
    21   10   19 1   
    22   11   12 ar  
    23   11   25 1   
    24   12   26 1   
    25   13   17 1   
    26   13   18 1   
    27   14   27 1   
    28   14   28 1   
    29   14   29 1   
    30   15   16 2   
    31   19   30 1   
@<TRIPOS>SUBSTRUCTURE
     1 MHB         1 TEMP              0 ****  ****    0 ROOT
