@<TRIPOS>MOLECULE
MHC
   34    36     1     0     0
SMALL
bcc


@<TRIPOS>ATOM
      1 S1          0.0050    0.1330    0.1780 sh        1 MHC     -0.393900
      2 C2          1.7740    0.1210    0.0490 c3        1 MHC      0.017700
      3 C3          2.3100    0.0580    1.4560 c3        1 MHC     -0.141400
      4 C4          3.8290    0.0490    1.4450 c         1 MHC      0.655100
      5 O5          4.4580    0.2180    0.3820 o         1 MHC     -0.599100
      6 N6          4.5180   -0.2400    2.6260 n         1 MHC     -0.451800
      7 C7          5.9650   -0.1060    2.6480 c3        1 MHC      0.077000
      8 C8          6.4920    1.1920    3.2820 c3        1 MHC     -0.032200
      9 C9          5.7210    1.5270    4.4850 cc        1 MHC     -0.121400
     10 C10         4.4950    0.9160    4.7750 cd        1 MHC     -0.108300
     11 C11         3.8790   -0.1500    3.9240 c3        1 MHC      0.150200
     12 N12         3.9630    1.4310    5.9590 na        1 MHC     -0.179400
     13 C14         5.9850    2.4720    5.5420 ca        1 MHC     -0.082800
     14 C13         4.8630    2.3790    6.4560 ca        1 MHC     -0.039200
     15 C15         4.8050    3.1740    7.6120 ca        1 MHC     -0.147000
     16 C18         7.0200    3.3670    5.8190 ca        1 MHC     -0.081000
     17 C17         6.9470    4.1440    6.9650 ca        1 MHC     -0.157000
     18 C16         5.8550    4.0480    7.8470 ca        1 MHC     -0.110000
     19 H1         -0.2950    0.2360   -1.1060 hs        1 MHC      0.212800
     20 H21         2.1230   -0.7600   -0.5420 h1        1 MHC      0.079700
     21 H22         2.1440    1.0400   -0.4690 h1        1 MHC      0.079700
     22 H31         1.9580    0.9540    2.0350 hc        1 MHC      0.079700
     23 H32         1.9260   -0.8670    1.9650 hc        1 MHC      0.079700
     24 H71         6.3540   -0.1810    1.5930 h1        1 MHC      0.069200
     25 H72         6.3610   -0.9810    3.2390 h1        1 MHC      0.069200
     26 H81         7.5770    1.0500    3.5320 hc        1 MHC      0.060700
     27 H82         6.4250    2.0330    2.5400 hc        1 MHC      0.060700
     28 H111        2.7720    0.0290    3.8240 h1        1 MHC      0.061200
     29 H112        4.0210   -1.1470    4.4400 h1        1 MHC      0.061200
     30 H12         3.1370    1.1320    6.4020 hn        1 MHC      0.298700
     31 H15         3.9560    3.1050    8.3040 ha        1 MHC      0.132000
     32 H18         7.8750    3.4470    5.1330 ha        1 MHC      0.135000
     33 H17         7.7550    4.8540    7.1960 ha        1 MHC      0.131000
     34 H16         5.8370    4.6830    8.7450 ha        1 MHC      0.130000
@<TRIPOS>BOND
     1    1    2 1   
     2    1   19 1   
     3    2    3 1   
     4    2   20 1   
     5    2   21 1   
     6    3    4 1   
     7    3   22 1   
     8    3   23 1   
     9    4    5 2   
    10    4    6 1   
    11    6    7 1   
    12    6   11 1   
    13    7    8 1   
    14    7   24 1   
    15    7   25 1   
    16    8    9 1   
    17    8   26 1   
    18    8   27 1   
    19    9   10 2   
    20    9   13 1   
    21   10   11 1   
    22   10   12 1   
    23   11   28 1   
    24   11   29 1   
    25   12   14 1   
    26   12   30 1   
    27   13   14 ar  
    28   13   16 ar  
    29   14   15 ar  
    30   15   18 ar  
    31   15   31 1   
    32   16   17 ar  
    33   16   32 1   
    34   17   18 ar  
    35   17   33 1   
    36   18   34 1   
@<TRIPOS>SUBSTRUCTURE
     1 MHC         1 TEMP              0 ****  ****    0 ROOT
