@<TRIPOS>MOLECULE
MHC
   34    36     1     0     0
SMALL
bcc


@<TRIPOS>ATOM
      1 S1          1.7020    0.5410    5.2440 sh        1 MHC     -0.393900
      2 C2          0.1390    0.6040    4.4080 c3        1 MHC      0.017700
      3 C3          0.3300   -0.0860    3.0810 c3        1 MHC     -0.141400
      4 C4         -0.9650   -0.0760    2.2870 c         1 MHC      0.655100
      5 O5         -1.9560    0.5610    2.6940 o         1 MHC     -0.599100
      6 N6         -1.0650   -0.8630    1.1360 n         1 MHC     -0.451800
      7 C7         -2.2490   -0.7410    0.3010 c3        1 MHC      0.077000
      8 C8         -2.0780    0.1330   -0.9520 c3        1 MHC     -0.032200
      9 C9         -0.7750   -0.1190   -1.5820 cc        1 MHC     -0.121400
     10 C10         0.2490   -0.8050   -0.9190 cd        1 MHC     -0.108300
     11 C11         0.1080   -1.3760    0.4570 c3        1 MHC      0.150200
     12 N12         1.3840   -0.8860   -1.7300 na        1 MHC     -0.179400
     13 C14        -0.2700    0.2480   -2.8820 ca        1 MHC     -0.082800
     14 C13         1.0870   -0.2580   -2.9440 ca        1 MHC     -0.039200
     15 C15         1.8760   -0.0730   -4.0910 ca        1 MHC     -0.147000
     16 C18        -0.7960    0.9290   -3.9810 ca        1 MHC     -0.081000
     17 C17        -0.0040    1.1030   -5.1060 ca        1 MHC     -0.157000
     18 C16         1.3120    0.6080   -5.1570 ca        1 MHC     -0.110000
     19 H1          1.3790    1.2120    6.3360 hs        1 MHC      0.212800
     20 H21        -0.6520    0.0890    5.0050 h1        1 MHC      0.079700
     21 H22        -0.1910    1.6600    4.2540 h1        1 MHC      0.079700
     22 H31         1.1210    0.4480    2.4880 hc        1 MHC      0.079700
     23 H32         0.6660   -1.1440    3.2500 hc        1 MHC      0.079700
     24 H71        -2.5220   -1.7860   -0.0240 h1        1 MHC      0.069200
     25 H72        -3.0920   -0.3280    0.9220 h1        1 MHC      0.069200
     26 H81        -2.9150   -0.0980   -1.6630 hc        1 MHC      0.060700
     27 H82        -2.1610    1.2190   -0.6740 hc        1 MHC      0.060700
     28 H111        1.0440   -1.1800    1.0530 h1        1 MHC      0.061200
     29 H112       -0.0150   -2.4970    0.3690 h1        1 MHC      0.061200
     30 H12         2.2180   -1.3600   -1.5140 hn        1 MHC      0.298700
     31 H15         2.9040   -0.4550   -4.1390 ha        1 MHC      0.132000
     32 H18        -1.8240    1.3180   -3.9460 ha        1 MHC      0.135000
     33 H17        -0.4060    1.6370   -5.9790 ha        1 MHC      0.131000
     34 H16         1.9060    0.7690   -6.0700 ha        1 MHC      0.130000
@<TRIPOS>BOND
     1    1    2 1   
     2    1   19 1   
     3    2    3 1   
     4    2   20 1   
     5    2   21 1   
     6    3    4 1   
     7    3   22 1   
     8    3   23 1   
     9    4    5 2   
    10    4    6 1   
    11    6    7 1   
    12    6   11 1   
    13    7    8 1   
    14    7   24 1   
    15    7   25 1   
    16    8    9 1   
    17    8   26 1   
    18    8   27 1   
    19    9   10 2   
    20    9   13 1   
    21   10   11 1   
    22   10   12 1   
    23   11   28 1   
    24   11   29 1   
    25   12   14 1   
    26   12   30 1   
    27   13   14 ar  
    28   13   16 ar  
    29   14   15 ar  
    30   15   18 ar  
    31   15   31 1   
    32   16   17 ar  
    33   16   32 1   
    34   17   18 ar  
    35   17   33 1   
    36   18   34 1   
@<TRIPOS>SUBSTRUCTURE
     1 MHC         1 TEMP              0 ****  ****    0 ROOT
