@<TRIPOS>MOLECULE
MHC
   34    31     1     0     0
SMALL
bcc


@<TRIPOS>ATOM
      1 S1         -4.0230   -2.4030   -3.9890 sh        1 MHC     -0.393900
      2 C2         -2.3970   -1.6960   -3.9750 c3        1 MHC      0.017700
      3 C3         -1.9520   -1.4840   -2.5440 c3        1 MHC     -0.141400
      4 C4         -0.4690   -1.1830   -2.5170 c         1 MHC      0.655100
      5 O5          0.1350   -1.0110   -3.5570 o         1 MHC     -0.599100
      6 N6          0.2060   -1.0540   -1.2750 n         1 MHC     -0.414400
      7 C7          1.5510   -0.7340   -1.2270 c3        1 MHC      0.077000
      8 C8          1.9190    0.3700   -0.4070 c3        1 MHC     -0.032200
      9 C9          1.1070    0.5560    0.8990 ce        1 MHC     -0.163000
     10 C10        -0.0280   -0.3000    1.0980 c1        1 MHC      0.206500
     11 C11        -0.4500   -1.2410   -0.1030 c2        1 MHC      0.288400
     12 N12        -0.5650   -0.0100    2.3180 ne        1 MHC     -0.474400
     13 C14         1.2350    1.3560    2.0160 cg        1 MHC     -0.104300
     14 C13         0.2100    1.0220    2.9060 cg        1 MHC      0.058000
     15 C15         0.0970    1.6960    4.1260 c1        1 MHC     -0.089500
     16 C18         2.1470    2.3650    2.3470 c1        1 MHC     -0.023500
     17 C17         2.0320    3.0360    3.5620 c1        1 MHC     -0.076000
     18 C16         1.0060    2.7010    4.4540 c1        1 MHC     -0.076000
     19 H1         -4.4030   -2.4920   -5.1000 hs        1 MHC      0.212800
     20 H21        -2.4100   -0.8380   -4.4430 h1        1 MHC      0.079700
     21 H22        -1.7740   -2.3030   -4.4230 h1        1 MHC      0.079700
     22 H31        -2.1300   -2.2920   -2.0240 hc        1 MHC      0.079700
     23 H32        -2.4440   -0.7320   -2.1580 hc        1 MHC      0.079700
     24 H71         2.0380   -1.5230   -0.9070 h1        1 MHC      0.069200
     25 H72         1.8480   -0.5420   -2.1420 h1        1 MHC      0.069200
     26 H81         1.8280    1.1870   -0.9400 hc        1 MHC      0.060700
     27 H82         2.8630    0.2660   -0.1660 hc        1 MHC      0.060700
     28 H111       -1.4070   -1.1120   -0.2670 h4        1 MHC     -0.028700
     29 H112       -0.3120   -2.1700    0.1770 h4        1 MHC     -0.028700
     30 H12        -1.2950   -0.4100    2.6910 DU        1 MHC      0.249000
     31 H15        -0.6180    1.4630    4.7480 ha        1 MHC      0.074500
     32 H18         2.8630    2.5990    1.7250 ha        1 MHC      0.077500
     33 H17         2.6680    3.7400    3.7920 ha        1 MHC      0.073000
     34 H16         0.9260    3.1720    5.3050 ha        1 MHC      0.073000
@<TRIPOS>BOND
     1    1    2 1   
     2    1   19 1   
     3    2    3 1   
     4    2   20 1   
     5    2   21 1   
     6    3    4 1   
     7    3   22 1   
     8    3   23 1   
     9    4    5 2   
    10    4    6 1   
    11    6    7 1   
    12    6   11 2   
    13    7    8 1   
    14    7   24 1   
    15    7   25 1   
    16    8    9 1   
    17    8   26 1   
    18    8   27 1   
    19    9   10 2   
    20    9   13 1   
    21   10   12 2   
    22   11   28 1   
    23   11   29 1   
    24   12   14 1   
    25   13   16 3   
    26   14   15 3   
    27   15   31 1   
    28   16   32 1   
    29   17   18 3   
    30   17   33 1   
    31   18   34 1   
@<TRIPOS>SUBSTRUCTURE
     1 MHC         1 TEMP              0 ****  ****    0 ROOT
