@<TRIPOS>MOLECULE
MHC
   34    36     1     0     0
SMALL
bcc


@<TRIPOS>ATOM
      1 S1          0.0060    0.1280    0.1790 sh        1 MHC     -0.393900
      2 C2          1.7740    0.1220    0.0480 c3        1 MHC      0.017700
      3 C3          2.3120    0.0560    1.4550 c3        1 MHC     -0.141400
      4 C4          3.8310    0.0520    1.4430 c         1 MHC      0.655100
      5 O5          4.4580    0.2270    0.3790 o         1 MHC     -0.599100
      6 N6          4.5220   -0.2370    2.6220 n         1 MHC     -0.451800
      7 C7          5.9690   -0.0990    2.6430 c3        1 MHC      0.077000
      8 C8          6.4920    1.2000    3.2800 c3        1 MHC     -0.032200
      9 C9          5.7200    1.5290    4.4850 cc        1 MHC     -0.121400
     10 C10         4.4970    0.9130    4.7740 cd        1 MHC     -0.108300
     11 C11         3.8840   -0.1530    3.9210 c3        1 MHC      0.150200
     12 N12         3.9640    1.4230    5.9600 na        1 MHC     -0.179400
     13 C14         5.9820    2.4730    5.5440 ca        1 MHC     -0.082800
     14 C13         4.8620    2.3740    6.4580 ca        1 MHC     -0.039200
     15 C15         4.8020    3.1650    7.6160 ca        1 MHC     -0.147000
     16 C18         7.0140    3.3700    5.8220 ca        1 MHC     -0.081000
     17 C17         6.9400    4.1450    6.9700 ca        1 MHC     -0.157000
     18 C16         5.8490    4.0420    7.8520 ca        1 MHC     -0.110000
     19 H1         -0.2960    0.2340   -1.1030 hs        1 MHC      0.212800
     20 H21         2.1410    1.0430   -0.4670 h1        1 MHC      0.079700
     21 H22         2.1260   -0.7560   -0.5450 h1        1 MHC      0.079700
     22 H31         1.9320   -0.8710    1.9620 hc        1 MHC      0.079700
     23 H32         1.9580    0.9500    2.0380 hc        1 MHC      0.079700
     24 H71         6.3680   -0.9740    3.2310 h1        1 MHC      0.069200
     25 H72         6.3570   -0.1700    1.5880 h1        1 MHC      0.069200
     26 H81         7.5780    1.0600    3.5280 hc        1 MHC      0.060700
     27 H82         6.4210    2.0430    2.5410 hc        1 MHC      0.060700
     28 H111        2.7770    0.0220    3.8220 h1        1 MHC      0.061200
     29 H112        4.0300   -1.1510    4.4350 h1        1 MHC      0.061200
     30 H12         3.1400    1.1200    6.4030 hn        1 MHC      0.298700
     31 H15         3.9540    3.0920    8.3090 ha        1 MHC      0.132000
     32 H18         7.8690    3.4550    5.1360 ha        1 MHC      0.135000
     33 H17         7.7460    4.8560    7.2020 ha        1 MHC      0.131000
     34 H16         5.8300    4.6750    8.7520 ha        1 MHC      0.130000
@<TRIPOS>BOND
     1    1    2 1   
     2    1   19 1   
     3    2    3 1   
     4    2   20 1   
     5    2   21 1   
     6    3    4 1   
     7    3   22 1   
     8    3   23 1   
     9    4    5 2   
    10    4    6 1   
    11    6    7 1   
    12    6   11 1   
    13    7    8 1   
    14    7   24 1   
    15    7   25 1   
    16    8    9 1   
    17    8   26 1   
    18    8   27 1   
    19    9   10 2   
    20    9   13 1   
    21   10   11 1   
    22   10   12 1   
    23   11   28 1   
    24   11   29 1   
    25   12   14 1   
    26   12   30 1   
    27   13   14 ar  
    28   13   16 ar  
    29   14   15 ar  
    30   15   18 ar  
    31   15   31 1   
    32   16   17 ar  
    33   16   32 1   
    34   17   18 ar  
    35   17   33 1   
    36   18   34 1   
@<TRIPOS>SUBSTRUCTURE
     1 MHC         1 TEMP              0 ****  ****    0 ROOT
