@<TRIPOS>MOLECULE
MHD
   20    21     1     0     0
SMALL
bcc


@<TRIPOS>ATOM
      1 C10        -0.0250   -0.1740    0.0040 c3        1 MHD      0.033600
      2 N3          1.3840    0.0320    0.0290 na        1 MHD     -0.074400
      3 C2          2.1820   -0.0450    1.1860 cc        1 MHD     -0.144100
      4 C4          2.2250    0.0720   -1.0870 ca        1 MHD     -0.022200
      5 C5          1.9350    0.1370   -2.4610 ca        1 MHD     -0.146000
      6 C6          2.9980    0.2030   -3.3470 ca        1 MHD     -0.106000
      7 C7          4.3340    0.2080   -2.9020 ca        1 MHD     -0.160000
      8 C8          4.6400    0.1450   -1.5520 ca        1 MHD     -0.080000
      9 C9          3.5980    0.0730   -0.6280 ca        1 MHD     -0.141800
     10 C1          3.5250   -0.0040    0.8160 cd        1 MHD      0.051900
     11 O1          4.5510   -0.0370    1.7180 oh        1 MHD     -0.476100
     12 H1         -0.4750    0.2050    0.9600 h1        1 MHD      0.048367
     13 H2         -0.2720   -1.2660   -0.1050 h1        1 MHD      0.048367
     14 H3         -0.4700    0.3850   -0.8620 h1        1 MHD      0.048367
     15 H4          1.7370   -0.1050    2.1790 h4        1 MHD      0.178000
     16 H5          0.8970    0.1340   -2.8180 ha        1 MHD      0.133000
     17 H6          2.7980    0.2520   -4.4280 ha        1 MHD      0.130000
     18 H7          5.1430    0.2630   -3.6450 ha        1 MHD      0.131000
     19 H8          5.6840    0.1510   -1.2090 ha        1 MHD      0.127000
     20 H9          5.3670    0.0660    1.2050 ho        1 MHD      0.420000
@<TRIPOS>BOND
     1    1    2 1   
     2    1   12 1   
     3    1   13 1   
     4    1   14 1   
     5    2    3 1   
     6    2    4 1   
     7    3   10 2   
     8    3   15 1   
     9    4    5 ar  
    10    4    9 ar  
    11    5    6 ar  
    12    5   16 1   
    13    6    7 ar  
    14    6   17 1   
    15    7    8 ar  
    16    7   18 1   
    17    8    9 ar  
    18    8   19 1   
    19    9   10 1   
    20   10   11 1   
    21   11   20 1   
@<TRIPOS>SUBSTRUCTURE
     1 MHD         1 TEMP              0 ****  ****    0 ROOT
