@<TRIPOS>MOLECULE
MHD
   20    21     1     0     0
SMALL
bcc


@<TRIPOS>ATOM
      1 C10        -1.4350    2.6160    0.0020 c3        1 MHD      0.033600
      2 N3         -1.0970    1.2360    0.0910 na        1 MHD     -0.074400
      3 C2         -2.0220    0.1800   -0.0090 cc        1 MHD     -0.144100
      4 C4          0.1940    0.7020    0.0170 ca        1 MHD     -0.022200
      5 C5          1.4540    1.3240    0.0540 ca        1 MHD     -0.146000
      6 C6          2.5780    0.5160   -0.0030 ca        1 MHD     -0.106000
      7 C7          2.4800   -0.8850   -0.0930 ca        1 MHD     -0.160000
      8 C8          1.2470   -1.5160   -0.1300 ca        1 MHD     -0.080000
      9 C9          0.0900   -0.7380   -0.0790 ca        1 MHD     -0.141800
     10 C1         -1.3280   -1.0270   -0.0950 cd        1 MHD      0.051900
     11 O1         -1.9470   -2.2420   -0.1790 oh        1 MHD     -0.476100
     12 H1         -1.4540    2.9600   -1.0690 h1        1 MHD      0.048367
     13 H2         -2.4480    2.7830    0.4550 h1        1 MHD      0.048367
     14 H3         -0.6740    3.2240    0.5610 h1        1 MHD      0.048367
     15 H4         -3.0950    0.3630    0.0060 h4        1 MHD      0.178000
     16 H5          1.5420    2.4160    0.1250 ha        1 MHD      0.133000
     17 H6          3.5770    0.9790    0.0220 ha        1 MHD      0.130000
     18 H7          3.4020   -1.4820   -0.1340 ha        1 MHD      0.131000
     19 H8          1.1740   -2.6110   -0.1980 ha        1 MHD      0.127000
     20 H9         -1.2430   -2.9070   -0.1650 ho        1 MHD      0.420000
@<TRIPOS>BOND
     1    1    2 1   
     2    1   12 1   
     3    1   13 1   
     4    1   14 1   
     5    2    3 1   
     6    2    4 1   
     7    3   10 2   
     8    3   15 1   
     9    4    5 ar  
    10    4    9 ar  
    11    5    6 ar  
    12    5   16 1   
    13    6    7 ar  
    14    6   17 1   
    15    7    8 ar  
    16    7   18 1   
    17    8    9 ar  
    18    8   19 1   
    19    9   10 1   
    20   10   11 1   
    21   11   20 1   
@<TRIPOS>SUBSTRUCTURE
     1 MHD         1 TEMP              0 ****  ****    0 ROOT
