@<TRIPOS>MOLECULE
MHD
   20    21     1     0     0
SMALL
bcc


@<TRIPOS>ATOM
      1 C10        -0.0380   -0.1100   -0.0240 c3        1 MHD      0.033600
      2 N3          1.3710    0.0860    0.0110 na        1 MHD     -0.074400
      3 C2          2.1530    0.0590    1.1810 cc        1 MHD     -0.144100
      4 C4          2.2290    0.0630   -1.0940 ca        1 MHD     -0.022200
      5 C5          1.9590    0.0620   -2.4740 ca        1 MHD     -0.146000
      6 C6          3.0350    0.0750   -3.3460 ca        1 MHD     -0.106000
      7 C7          4.3640    0.0910   -2.8830 ca        1 MHD     -0.160000
      8 C8          4.6500    0.0930   -1.5270 ca        1 MHD     -0.080000
      9 C9          3.5950    0.0760   -0.6160 ca        1 MHD     -0.141800
     10 C1          3.5020    0.0700    0.8290 cd        1 MHD      0.051900
     11 O1          4.5140    0.0740    1.7460 oh        1 MHD     -0.476100
     12 H1         -0.4980    0.3210    0.9050 h1        1 MHD      0.048367
     13 H2         -0.2940   -1.2040   -0.0820 h1        1 MHD      0.048367
     14 H3         -0.4660    0.4070   -0.9240 h1        1 MHD      0.048367
     15 H4          1.6940    0.0520    2.1690 h4        1 MHD      0.178000
     16 H5          0.9260    0.0510   -2.8450 ha        1 MHD      0.133000
     17 H6          2.8500    0.0730   -4.4310 ha        1 MHD      0.130000
     18 H7          5.1840    0.1030   -3.6160 ha        1 MHD      0.131000
     19 H8          5.6900    0.1070   -1.1690 ha        1 MHD      0.127000
     20 H9          5.3380    0.1440    1.2410 ho        1 MHD      0.420000
@<TRIPOS>BOND
     1    1    2 1   
     2    1   12 1   
     3    1   13 1   
     4    1   14 1   
     5    2    3 1   
     6    2    4 1   
     7    3   10 2   
     8    3   15 1   
     9    4    5 ar  
    10    4    9 ar  
    11    5    6 ar  
    12    5   16 1   
    13    6    7 ar  
    14    6   17 1   
    15    7    8 ar  
    16    7   18 1   
    17    8    9 ar  
    18    8   19 1   
    19    9   10 1   
    20   10   11 1   
    21   11   20 1   
@<TRIPOS>SUBSTRUCTURE
     1 MHD         1 TEMP              0 ****  ****    0 ROOT
