@<TRIPOS>MOLECULE
MHD
   20    15     1     0     0
SMALL
bcc


@<TRIPOS>ATOM
      1 C10        -2.6810   -0.0370    0.6270 c3        1 MHD     -0.065000
      2 N3         -1.2570   -0.0370    0.6270 n3        1 MHD     -0.166000
      3 C2         -0.6300   -0.0370    1.8420 c1        1 MHD     -0.047000
      4 C4         -0.2860   -0.0370   -0.3580 c1        1 MHD     -0.047000
      5 C5         -0.3690   -0.0370   -1.7610 c1        1 MHD     -0.123000
      6 C6          0.7890   -0.0370   -2.5240 c1        1 MHD     -0.123000
      7 C7          2.0310   -0.0370   -1.9030 c1        1 MHD     -0.123000
      8 C8          2.1140   -0.0370   -0.5180 c1        1 MHD     -0.123000
      9 C9          0.9400   -0.0370    0.2560 c1        1 MHD     -0.067000
     10 C1          0.7330   -0.0370    1.6180 c1        1 MHD     -0.067000
     11 O1          1.6450   -0.0690    2.6890 o         1 MHD     -0.231000
     12 H1         -3.0070   -0.4290    1.4600 h1        1 MHD      0.087667
     13 H2         -3.0070    0.8800    0.5500 h1        1 MHD      0.087667
     14 H3         -3.0070   -0.5620   -0.1280 h1        1 MHD      0.087667
     15 H4         -1.0680   -0.0490    2.7140 DU        1 MHD      0.178000
     16 H5         -1.2420   -0.0370   -2.1980 ha        1 MHD      0.130250
     17 H6          0.7320   -0.0370   -3.4990 ha        1 MHD      0.130250
     18 H7          2.8460   -0.0370   -2.4400 ha        1 MHD      0.130250
     19 H8          2.9860   -0.0370   -0.0810 ha        1 MHD      0.130250
     20 H9          1.7360    0.7470    3.0250 ho        1 MHD      0.219000
@<TRIPOS>BOND
     1    1    2 1   
     2    1   12 1   
     3    1   13 1   
     4    1   14 1   
     5    2    3 1   
     6    2    4 1   
     7    3   10 1   
     8    4    9 1   
     9    5    6 1   
    10    5   16 1   
    11    6   17 1   
    12    7    8 1   
    13    7   18 1   
    14    8   19 1   
    15   11   20 1   
@<TRIPOS>SUBSTRUCTURE
     1 MHD         1 TEMP              0 ****  ****    0 ROOT
