@<TRIPOS>MOLECULE
MHE
   24    23     1     0     0
SMALL
bcc


@<TRIPOS>ATOM
      1 C1         -2.6420   -0.3190    0.0190 c         1 MHE      0.853600
      2 O1         -3.0640   -0.8700    1.0700 o         1 MHE     -0.817300
      3 C2         -1.3930    0.5660    0.1460 c         1 MHE      0.468100
      4 O2         -1.4090    1.7820    0.3710 o         1 MHE     -0.595100
      5 C3         -0.1030   -0.1970   -0.0290 c3        1 MHE     -0.196400
      6 C4          1.1270    0.6720    0.0750 c3        1 MHE     -0.062400
      7 C5          2.4510   -0.0880   -0.0110 c3        1 MHE     -0.057000
      8 C6          2.5220   -0.9010   -1.2940 c3        1 MHE     -0.082433
      9 C7          3.5860    0.9300   -0.0080 c3        1 MHE     -0.082433
     10 C8          2.6170   -1.0110    1.1850 c3        1 MHE     -0.082433
     11 O12        -3.1260   -0.4650   -1.1350 o         1 MHE     -0.817300
     12 H3         -0.0890   -1.0040    0.7510 hc        1 MHE      0.063700
     13 H3A        -0.1500   -0.6970   -1.0340 hc        1 MHE      0.063700
     14 H4          1.0950    1.4390   -0.7450 hc        1 MHE      0.043700
     15 H4A         1.0930    1.2330    1.0470 hc        1 MHE      0.043700
     16 H6          2.3070   -0.2520   -2.1760 hc        1 MHE      0.028478
     17 H6A         3.5390   -1.3460   -1.4150 hc        1 MHE      0.028478
     18 H6B         1.7730   -1.7290   -1.2720 hc        1 MHE      0.028478
     19 H7          3.5430    1.5530    0.9170 hc        1 MHE      0.028478
     20 H7A         4.5750    0.4120   -0.0440 hc        1 MHE      0.028478
     21 H7B         3.5040    1.6030   -0.8950 hc        1 MHE      0.028478
     22 H8          1.8350   -1.8080    1.1770 hc        1 MHE      0.028478
     23 H8A         3.6210   -1.5000    1.1600 hc        1 MHE      0.028478
     24 H8B         2.5250   -0.4330    2.1360 hc        1 MHE      0.028478
@<TRIPOS>BOND
     1    1    2 1   
     2    1    3 1   
     3    1   11 1   
     4    3    4 2   
     5    3    5 1   
     6    5    6 1   
     7    5   12 1   
     8    5   13 1   
     9    6    7 1   
    10    6   14 1   
    11    6   15 1   
    12    7    8 1   
    13    7    9 1   
    14    7   10 1   
    15    8   16 1   
    16    8   17 1   
    17    8   18 1   
    18    9   19 1   
    19    9   20 1   
    20    9   21 1   
    21   10   22 1   
    22   10   23 1   
    23   10   24 1   
@<TRIPOS>SUBSTRUCTURE
     1 MHE         1 TEMP              0 ****  ****    0 ROOT
