@<TRIPOS>MOLECULE
MHF
   56    58     1     0     0
SMALL
bcc


@<TRIPOS>ATOM
      1 N1          0.9910   -0.3330    5.1930 ne        1 MHF     -0.888000
      2 C2          0.9600   -1.6660    4.9160 cf        1 MHF      0.902200
      3 NA2         1.2840   -2.5340    5.9670 nh        1 MHF     -0.890800
      4 N3          0.5970   -2.2810    3.7120 nf        1 MHF     -0.604300
      5 C4         -0.0300   -1.5420    2.7870 c2        1 MHF      0.599300
      6 O4         -0.5160   -1.9380    1.7030 o         1 MHF     -0.685300
      7 C4A        -0.3070    0.0060    3.0690 c3        1 MHF     -0.295300
      8 N5         -1.7080    0.1680    3.4050 nh        1 MHF     -0.050100
      9 C6         -2.7170   -0.4450    2.8270 c2        1 MHF      0.294200
     10 C7          0.6590    2.7360    3.2150 c3        1 MHF      0.107100
     11 N8          1.0490    1.7870    4.2000 n2        1 MHF     -0.640900
     12 C8A         0.6270    0.5520    4.1800 ce        1 MHF      0.665300
     13 C9         -4.0220   -0.1270    3.5420 c3        1 MHF      0.051500
     14 N10        -3.6500    0.7080    4.7200 n3        1 MHF     -0.454200
     15 C11        -2.1910    0.9890    4.5600 c3        1 MHF      0.191500
     16 C12        -3.4740   -1.2950    9.1350 c3        1 MHF     -0.090500
     17 C13        -4.6240   -0.6780    8.3330 c3        1 MHF      0.007700
     18 C14        -4.2480   -0.2520    7.0200 c1        1 MHF     -0.065100
     19 C15        -3.9520    0.1420    5.9260 c1        1 MHF     -0.111200
     20 C16        -2.8170   -3.6880    9.0110 c2        1 MHF     -0.186000
     21 C17        -2.9160   -2.4880    8.4440 c2        1 MHF     -0.200200
     22 O          -2.8060    0.8960    9.8950 o         1 MHF     -0.624100
     23 N          -1.1050   -0.4900    9.2520 n         1 MHF     -0.558900
     24 CA         -0.0780    0.4890    9.5010 c3        1 MHF      0.063700
     25 CB          0.6010    0.3660   10.8770 c3        1 MHF     -0.102400
     26 CG         -0.3850    0.5470   11.9860 cx        1 MHF      0.021100
     27 CD         -0.0030    0.3460   13.3760 c         1 MHF      0.703600
     28 OE1        -0.6900   -0.6800   12.7770 os        1 MHF     -0.433900
     29 OE2         0.4490    0.5020   14.4830 o         1 MHF     -0.496500
     30 CT          1.0220    0.3580    8.4470 c         1 MHF      0.634100
     31 O1          1.1450    1.4520    7.6680 oh        1 MHF     -0.589100
     32 O2          1.7760   -0.6040    8.2790 o         1 MHF     -0.557000
     33 HN1        -0.1160    0.5410    2.0920 h1        1 MHF      0.115700
     34 HN21        1.7760    1.2850    6.9390 ho        1 MHF      0.487000
     35 HN22        1.5410   -3.4580    5.7030 hn        1 MHF      0.430800
     36 H6         -2.6060   -1.1250    1.9570 h4        1 MHF      0.126800
     37 H71        -0.4400    2.7390    2.9740 h1        1 MHF      0.032367
     38 H72         1.2210    2.5800    2.2530 h1        1 MHF      0.032367
     39 H8          0.9290    3.7490    3.6190 h1        1 MHF      0.032367
     40 H91        -4.6870    0.4990    2.8830 h1        1 MHF      0.118200
     41 H92        -4.5610   -1.0750    3.8140 h1        1 MHF      0.118200
     42 H111       -1.5760    0.7590    5.4800 h2        1 MHF      0.134200
     43 H112       -2.0850    2.0790    4.2830 h2        1 MHF      0.134200
     44 H13        -5.0160    0.2120    8.9070 hc        1 MHF      0.088200
     45 H14        -5.4520   -1.4370    8.2530 hc        1 MHF      0.088200
     46 H16        -3.1300   -3.8920   10.0450 ha        1 MHF      0.123000
     47 H17        -2.4090   -4.5540    8.4710 ha        1 MHF      0.123000
     48 HN         -2.5940   -2.3160    7.4030 ha        1 MHF      0.136000
     49 HA         -0.8130   -1.4090    9.0080 hn        1 MHF      0.338500
     50 HB1        -0.5420    1.5210    9.4170 h1        1 MHF      0.114700
     51 HB2         1.1150   -0.6290   10.9640 hc        1 MHF      0.086700
     52 HG1         1.3830    1.1690   10.9480 hc        1 MHF      0.086700
     53 HG2        -1.2950    1.1350   11.7320 h1        1 MHF      0.140700
     54 HA23        1.8000   -2.1400    6.7250 hn        1 MHF      0.430800
     55 H2         -3.8950   -1.5960   10.1400 hc        1 MHF      0.092700
     56 C          -2.4400   -0.2120    9.4490 c         1 MHF      0.671100
@<TRIPOS>BOND
     1    1    2 2   
     2    1   12 1   
     3    2    3 1   
     4    2    4 1   
     5    3   35 1   
     6    3   54 1   
     7    4    5 2   
     8    5    6 1   
     9    5    7 1   
    10    7    8 1   
    11    7   12 1   
    12    7   33 1   
    13    8    9 2   
    14    8   15 1   
    15    9   13 1   
    16    9   36 1   
    17   10   11 1   
    18   10   37 1   
    19   10   38 1   
    20   10   39 1   
    21   11   12 2   
    22   13   14 1   
    23   13   40 1   
    24   13   41 1   
    25   14   15 1   
    26   14   19 1   
    27   15   42 1   
    28   15   43 1   
    29   16   17 1   
    30   16   21 1   
    31   16   55 1   
    32   16   56 1   
    33   17   18 1   
    34   17   44 1   
    35   17   45 1   
    36   18   19 3   
    37   20   21 2   
    38   20   46 1   
    39   20   47 1   
    40   21   48 1   
    41   22   56 2   
    42   23   24 1   
    43   23   49 1   
    44   23   56 1   
    45   24   25 1   
    46   24   30 1   
    47   24   50 1   
    48   25   26 1   
    49   25   51 1   
    50   25   52 1   
    51   26   27 1   
    52   26   28 1   
    53   26   53 1   
    54   27   28 1   
    55   27   29 2   
    56   30   31 1   
    57   30   32 2   
    58   31   34 1   
@<TRIPOS>SUBSTRUCTURE
     1 MHF         1 TEMP              0 ****  ****    0 ROOT
