@<TRIPOS>MOLECULE
MHF
   55    54     1     0     0
SMALL
bcc


@<TRIPOS>ATOM
      1 N1          1.3810   -0.0950    1.7100 na        1 MHF     -0.814200
      2 C2          2.2840   -1.0220    1.1620 cc        1 MHF      0.819100
      3 NA2         2.4570   -0.9620   -0.2600 nv        1 MHF     -0.884800
      4 N3          2.9570   -1.9280    1.8600 nd        1 MHF     -0.746100
      5 C4          2.6950   -2.0720    3.2410 cd        1 MHF      0.755700
      6 O4          3.3420   -2.9230    3.8880 o         1 MHF     -0.635300
      7 C4A         1.6740   -1.2100    3.8510 cc        1 MHF      0.010100
      8 N5          1.3920   -1.3770    5.1600 n1        1 MHF     -0.742500
      9 C6         -1.6710   -0.1560    5.0990 c3        1 MHF     -0.133400
     10 C7         -0.5700    0.8190    4.6780 c3        1 MHF      0.156800
     11 N8         -0.0070    0.6290    3.3840 n2        1 MHF     -0.776900
     12 C8A         0.9500   -0.2030    3.0660 cc        1 MHF      0.765500
     13 C9         -2.9350   -0.0500    4.2530 c3        1 MHF      0.174800
     14 N10        -3.6800    1.2000    4.3210 n7        1 MHF     -0.596800
     15 C11         1.1850   -1.5770    6.2870 c1        1 MHF      0.398300
     16 C12        -4.4680    1.6660    8.9790 ce        1 MHF     -0.170500
     17 C13        -5.3380    2.0910    7.8350 c3        1 MHF      0.078900
     18 C14        -4.7390    1.7780    6.5740 c1        1 MHF     -0.194100
     19 C15        -4.1960    1.5120    5.5370 c1        1 MHF     -0.024200
     20 C16        -4.8760   -0.5050   10.3550 c2        1 MHF     -0.238100
     21 C17        -4.6710    0.5750    9.6670 c1        1 MHF      0.004200
     22 O          -3.5710    3.8180    9.5320 o         1 MHF     -0.650100
     23 N          -2.0810    2.0960    9.3540 nt        1 MHF     -0.650000
     24 CA         -0.9120   -1.8850   12.9220 ce        1 MHF     -0.316200
     25 CB         -0.7040   -1.9870   11.6030 c2        1 MHF     -0.041200
     26 CG         -1.0710   -0.9340   10.6350 c3        1 MHF     -0.178200
     27 CD         -0.3830   -1.1100    9.2870 c         1 MHF      0.906600
     28 OE1        -0.6310   -0.2850    8.3560 o         1 MHF     -0.848300
     29 OE2         0.4270   -2.0720    9.0990 o         1 MHF     -0.848300
     30 CT         -0.5660   -2.9210   13.8960 c         1 MHF      0.638300
     31 O1          0.4140   -3.8400   13.6270 oh        1 MHF     -0.598100
     32 O2         -1.0670   -3.0770   15.0150 o         1 MHF     -0.525000
     33 HN1         0.8310    0.4720    1.1010 hn        1 MHF      0.446800
     34 HN21        2.6160   -0.0340   -0.5920 hn        1 MHF      0.394800
     35 HN22        3.1610   -1.5960   -0.5830 hn        1 MHF      0.394800
     36 H6         -1.9020    0.0400    6.1830 hc        1 MHF      0.069200
     37 H71        -1.3080   -1.2130    5.0260 hc        1 MHF      0.069200
     38 H72         0.1990    0.8500    5.5050 h1        1 MHF      0.037700
     39 H8         -1.0130    1.8600    4.6390 h1        1 MHF      0.037700
     40 H91        -2.6740   -0.1930    3.1670 h1        1 MHF      0.057700
     41 H92        -3.6360   -0.8770    4.5610 h1        1 MHF      0.057700
     42 H111       -3.1340    1.9690    3.9640 hn        1 MHF      0.390800
     43 H112        0.9290   -1.7130    7.3610 ha        1 MHF      0.332500
     44 H13        -5.5020    3.2050    7.9100 hc        1 MHF      0.069200
     45 H14        -6.3430    1.5880    7.9140 hc        1 MHF      0.069200
     46 H16        -5.5060   -0.5200   11.2560 ha        1 MHF      0.135500
     47 H17        -4.4240   -1.4700   10.0740 ha        1 MHF      0.135500
     48 HN         -1.8780    1.1720    9.0260 hn        1 MHF      0.330500
     49 HA          0.8050   -3.6640   12.7590 ho        1 MHF      0.432000
     50 HB1        -1.3940   -1.0000   13.3690 ha        1 MHF      0.152000
     51 HB2        -0.2340   -2.8810   11.1440 ha        1 MHF      0.155000
     52 HG1        -2.1830   -0.9500   10.4630 hc        1 MHF      0.070200
     53 HG2        -0.8140    0.0830   11.0340 hc        1 MHF      0.070200
     54 H2         -1.3200    2.7220    9.4540 hn        1 MHF      0.330500
     55 C          -3.3450    2.6080    9.2990 c         1 MHF      0.666300
@<TRIPOS>BOND
     1    1    2 1   
     2    1   12 1   
     3    1   33 1   
     4    2    3 1   
     5    2    4 2   
     6    3   34 1   
     7    3   35 1   
     8    4    5 1   
     9    5    6 1   
    10    5    7 2   
    11    7    8 1   
    12    7   12 1   
    13    8   15 3   
    14    9   10 1   
    15    9   13 1   
    16    9   36 1   
    17    9   37 1   
    18   10   11 1   
    19   10   38 1   
    20   10   39 1   
    21   11   12 2   
    22   13   14 1   
    23   13   40 1   
    24   13   41 1   
    25   14   19 1   
    26   14   42 1   
    27   15   43 1   
    28   16   17 1   
    29   16   21 2   
    30   16   55 1   
    31   17   18 1   
    32   17   44 1   
    33   17   45 1   
    34   18   19 3   
    35   20   21 2   
    36   20   46 1   
    37   20   47 1   
    38   22   55 2   
    39   23   48 1   
    40   23   54 1   
    41   23   55 1   
    42   24   25 2   
    43   24   30 1   
    44   24   50 1   
    45   25   26 1   
    46   25   51 1   
    47   26   27 1   
    48   26   52 1   
    49   26   53 1   
    50   27   28 1   
    51   27   29 1   
    52   30   31 1   
    53   30   32 2   
    54   31   49 1   
@<TRIPOS>SUBSTRUCTURE
     1 MHF         1 TEMP              0 ****  ****    0 ROOT
