@<TRIPOS>MOLECULE
MHF
   54    51     1     0     0
SMALL
bcc


@<TRIPOS>ATOM
      1 N1          2.6460   -2.4870    0.8660 n2        1 MHF     -0.263000
      2 C2          3.2440   -1.3600    1.4320 c1        1 MHF      0.276000
      3 NA2         4.4960   -0.8750    0.9130 n2        1 MHF     -0.299000
      4 N3          2.6560   -0.7320    2.5550 n2        1 MHF     -0.352000
      5 C4          1.4890   -1.2300    3.0950 c1        1 MHF      0.331000
      6 O4          1.0580   -0.7660    4.1310 o         1 MHF     -0.388000
      7 C4A         0.8990   -2.3310    2.5460 c1        1 MHF     -0.272000
      8 N5         -0.1770   -3.1180    3.3180 n3        1 MHF     -0.134000
      9 C6         -0.5460   -4.2000    2.8300 c3        1 MHF     -0.103000
     10 C7          0.5120   -5.0300    2.0840 c3        1 MHF     -0.054000
     11 N8          1.1790   -4.4180    1.1540 n3        1 MHF     -0.280000
     12 C8A         1.5070   -2.9790    1.3870 c1        1 MHF      0.146000
     13 C9         -1.7220   -3.7920    1.7870 c3        1 MHF     -0.110000
     14 N10        -2.0520   -2.3790    2.0870 n3        1 MHF     -0.199000
     15 C11        -1.4530   -2.1250    3.2320 c3        1 MHF     -0.030000
     16 C12        -0.9580    0.2970   -1.0280 c1        1 MHF     -0.164000
     17 C13        -0.9190    0.7210    0.2970 c1        1 MHF     -0.127000
     18 C14        -1.1910   -0.1820    1.3290 c1        1 MHF     -0.127000
     19 C15        -1.5000   -1.5060    1.0320 c1        1 MHF      0.011000
     20 C16        -1.5390   -1.9270   -0.2950 c1        1 MHF     -0.191000
     21 C17        -1.2670   -1.0220   -1.3260 c1        1 MHF     -0.077000
     22 C          -0.7600    1.3070   -2.1600 c2        1 MHF      0.327000
     23 O          -0.7940    0.9380   -3.3140 o         1 MHF     -0.364000
     24 N          -0.6330    2.6930   -1.8620 n         1 MHF     -0.293000
     25 CA          0.1030    3.5490   -2.7390 c3        1 MHF     -0.048000
     26 CB         -0.8720    4.3470   -3.6160 c3        1 MHF     -0.124000
     27 CG         -0.3620    5.8160   -3.7560 c3        1 MHF     -0.214000
     28 CD         -1.5540    6.7740   -3.7480 c2        1 MHF      0.324000
     29 OE1        -1.4270    7.9440   -4.2060 o         1 MHF     -0.603000
     30 OE2        -2.6320    6.4280   -3.2030 o         1 MHF     -0.603000
     31 CT          0.9330    4.4920   -1.9320 c2        1 MHF      0.295000
     32 O1          2.1630    4.6100   -2.1700 o         1 MHF     -0.609000
     33 O2          0.4110    5.1410   -0.9930 o         1 MHF     -0.609000
     34 HN1         3.0330   -2.8960    0.1430 hn        1 MHF      0.315000
     35 HN21        4.9540   -1.3660    0.2900 hn        1 MHF      0.231500
     36 HN22        4.8590   -0.0910    1.2410 hn        1 MHF      0.231500
     37 H6         -0.9340   -4.7530    3.5460 h1        1 MHF      0.103000
     38 H71         1.1610   -5.3480    2.7510 h1        1 MHF      0.092000
     39 H72         0.0470   -5.7890    1.6620 h1        1 MHF      0.092000
     40 H8          0.7410   -4.5060    0.3550 hn        1 MHF      0.206000
     41 H91        -1.4030   -3.8760    0.8740 h1        1 MHF      0.092500
     42 H92        -2.5110   -4.3620    1.9260 h1        1 MHF      0.092500
     43 H111       -2.0680   -2.3000    3.9800 h2        1 MHF      0.119500
     44 H112       -1.1550   -1.1970    3.2540 h2        1 MHF      0.119500
     45 H13        -0.7010    1.6550    0.5070 ha        1 MHF      0.174500
     46 H14        -1.2040    0.1250    2.2520 ha        1 MHF      0.174500
     47 H16        -1.7540   -2.8490   -0.5040 ha        1 MHF      0.121000
     48 H17        -1.3320   -1.3090   -2.2570 ha        1 MHF      0.144000
     49 HN         -1.0380    3.0380   -1.1270 hn        1 MHF      0.194000
     50 HA          0.6880    3.0060   -3.3110 h1        1 MHF      0.113000
     51 HB1        -1.7560    4.3480   -3.2020 hc        1 MHF      0.091000
     52 HB2        -0.9270    3.9330   -4.5060 hc        1 MHF      0.091000
     53 HG1         0.2340    6.0290   -3.0040 hc        1 MHF      0.064500
     54 HG2         0.1290    5.9130   -4.5980 hc        1 MHF      0.064500
@<TRIPOS>BOND
     1    1    2 1   
     2    1   34 1   
     3    2    4 1   
     4    3   35 1   
     5    3   36 1   
     6    4    5 1   
     7    5    6 1   
     8    7    8 1   
     9    7   12 1   
    10    8    9 1   
    11    8   15 1   
    12    9   10 1   
    13    9   13 1   
    14    9   37 1   
    15   10   11 1   
    16   10   38 1   
    17   10   39 1   
    18   11   12 1   
    19   11   40 1   
    20   13   14 1   
    21   13   41 1   
    22   13   42 1   
    23   14   15 1   
    24   14   19 1   
    25   15   43 1   
    26   15   44 1   
    27   16   21 1   
    28   16   22 1   
    29   17   18 1   
    30   17   45 1   
    31   18   46 1   
    32   19   20 1   
    33   20   47 1   
    34   21   48 1   
    35   22   23 1   
    36   22   24 1   
    37   24   25 1   
    38   24   49 1   
    39   25   26 1   
    40   25   31 1   
    41   25   50 1   
    42   26   27 1   
    43   26   51 1   
    44   26   52 1   
    45   27   28 1   
    46   27   53 1   
    47   27   54 1   
    48   28   29 1   
    49   28   30 1   
    50   31   32 1   
    51   31   33 1   
@<TRIPOS>SUBSTRUCTURE
     1 MHF         1 TEMP              0 ****  ****    0 ROOT
