@<TRIPOS>MOLECULE
MHF
   54    57     1     0     0
SMALL
bcc


@<TRIPOS>ATOM
      1 N1         -1.0200    1.1890    6.8030 na        1 MHF     -0.697000
      2 C2          0.2960    1.3040    7.2880 cc        1 MHF      0.804100
      3 NA2         0.4320    1.7710    8.6360 nh        1 MHF     -0.878800
      4 N3          1.3810    1.0010    6.5800 nd        1 MHF     -0.741100
      5 C4          1.2540    0.4390    5.2960 c         1 MHF      0.713700
      6 O4          2.2790    0.1050    4.6800 o         1 MHF     -0.545100
      7 C4A        -0.1250    0.2690    4.7290 cc        1 MHF     -0.030200
      8 N5         -0.3040   -0.0660    3.3830 nh        1 MHF     -0.588400
      9 C6         -1.6520   -0.5050    2.9790 c3        1 MHF      0.108500
     10 C7         -2.6320   -0.7340    4.1440 c3        1 MHF      0.148800
     11 N8         -2.5680    0.2760    5.1830 nh        1 MHF     -0.689000
     12 C8A        -1.2130    0.5740    5.5470 cd        1 MHF      0.152000
     13 C9         -1.4580   -1.8080    2.1470 c3        1 MHF      0.143800
     14 N10        -0.0290   -1.9230    1.8280 nh        1 MHF     -0.591000
     15 C11         0.6710   -0.9860    2.7370 c3        1 MHF      0.402000
     16 C12         0.7670   -1.4400   -2.3130 ca        1 MHF     -0.127600
     17 C13         1.4400   -2.4040   -1.5640 ca        1 MHF     -0.095000
     18 C14         1.1970   -2.5370   -0.1980 ca        1 MHF     -0.148500
     19 C15         0.2630   -1.6940    0.4350 ca        1 MHF      0.036600
     20 C16        -0.3890   -0.7050   -0.3290 ca        1 MHF     -0.148500
     21 C17        -0.1490   -0.5820   -1.6940 ca        1 MHF     -0.095000
     22 O           0.7850   -2.3740   -4.5050 o         1 MHF     -0.653100
     23 N           1.3550   -0.1360   -4.2940 n         1 MHF     -0.484900
     24 CA          1.0150    0.3320   -5.6260 c3        1 MHF     -0.037300
     25 CB         -0.2880    1.1540   -5.6370 c3        1 MHF     -0.076400
     26 CG         -1.5290    0.3440   -5.3300 c3        1 MHF     -0.190400
     27 CD         -2.5100    1.0760   -4.4100 c         1 MHF      0.908600
     28 OE1        -3.6260    1.4530   -4.8770 o         1 MHF     -0.875300
     29 OE2        -2.2010    1.2520   -3.1880 o         1 MHF     -0.875300
     30 CT          2.1560    1.2320   -6.2140 c         1 MHF      0.918600
     31 O1          2.4260    1.0730   -7.4380 o         1 MHF     -0.850300
     32 O2          2.7340    2.0670   -5.4630 o         1 MHF     -0.850300
     33 HN1        -1.7880    1.2140    7.4340 hn        1 MHF      0.448800
     34 HN21        1.3930    1.8750    8.8990 hn        1 MHF      0.396800
     35 HN22       -0.0860    2.6090    8.8030 hn        1 MHF      0.396800
     36 H6         -2.0570    0.3090    2.3100 h1        1 MHF      0.088700
     37 H71        -2.4150   -1.7270    4.6310 h1        1 MHF      0.065700
     38 H72        -3.6780   -0.7620    3.7340 h1        1 MHF      0.065700
     39 H8         -3.0370    1.1190    4.8960 hn        1 MHF      0.376800
     40 H91        -1.7320   -2.7070    2.7620 h1        1 MHF      0.064700
     41 H92        -2.1060   -1.7890    1.2320 h1        1 MHF      0.064700
     42 H111        1.2060   -1.6160    3.5060 h2        1 MHF      0.080200
     43 H112        1.4240   -0.3420    2.1990 h2        1 MHF      0.080200
     44 H13         2.1550   -3.0750   -2.0630 ha        1 MHF      0.188000
     45 H14         1.7290   -3.3080    0.3770 ha        1 MHF      0.126500
     46 H16        -1.1070   -0.0160    0.1430 ha        1 MHF      0.126500
     47 H17        -0.7150    0.1740   -2.2950 ha        1 MHF      0.188000
     48 HN          1.4840    0.6070   -3.6400 hn        1 MHF      0.309500
     49 HA          0.8950   -0.5670   -6.2940 h1        1 MHF      0.066700
     50 HB1        -0.1950    1.9980   -4.9020 hc        1 MHF      0.047200
     51 HB2        -0.3740    1.6110   -6.6570 hc        1 MHF      0.047200
     52 HG1        -2.0550    0.0850   -6.2840 hc        1 MHF      0.023700
     53 HG2        -1.2570   -0.6220   -4.8300 hc        1 MHF      0.023700
     54 C           0.9500   -1.3490   -3.8030 c         1 MHF      0.658700
@<TRIPOS>BOND
     1    1    2 1   
     2    1   12 1   
     3    1   33 1   
     4    2    3 1   
     5    2    4 2   
     6    3   34 1   
     7    3   35 1   
     8    4    5 1   
     9    5    6 2   
    10    5    7 1   
    11    7    8 1   
    12    7   12 2   
    13    8    9 1   
    14    8   15 1   
    15    9   10 1   
    16    9   13 1   
    17    9   36 1   
    18   10   11 1   
    19   10   37 1   
    20   10   38 1   
    21   11   12 1   
    22   11   39 1   
    23   13   14 1   
    24   13   40 1   
    25   13   41 1   
    26   14   15 1   
    27   14   19 1   
    28   15   42 1   
    29   15   43 1   
    30   16   17 ar  
    31   16   21 ar  
    32   16   54 1   
    33   17   18 ar  
    34   17   44 1   
    35   18   19 ar  
    36   18   45 1   
    37   19   20 ar  
    38   20   21 ar  
    39   20   46 1   
    40   21   47 1   
    41   22   54 2   
    42   23   24 1   
    43   23   48 1   
    44   23   54 1   
    45   24   25 1   
    46   24   30 1   
    47   24   49 1   
    48   25   26 1   
    49   25   50 1   
    50   25   51 1   
    51   26   27 1   
    52   26   52 1   
    53   26   53 1   
    54   27   28 1   
    55   27   29 1   
    56   30   31 1   
    57   30   32 1   
@<TRIPOS>SUBSTRUCTURE
     1 MHF         1 TEMP              0 ****  ****    0 ROOT
