@<TRIPOS>MOLECULE
MHH
   27    26     1     0     0
SMALL
bcc


@<TRIPOS>ATOM
      1 C1         -0.0580    0.0650   -0.0580 c3        1 MHH     -0.326600
      2 C2          1.4410    0.0410   -0.0110 c3        1 MHH     -0.070400
      3 C3          1.9870    0.0200    1.3990 c3        1 MHH     -0.068400
      4 C7         -2.7560    0.1450   -2.7850 c3        1 MHH      0.164700
      5 P          -0.4710    0.0870   -1.7020 p5        1 MHH      1.336600
      6 O1         -2.1350    0.1220   -1.5420 os        1 MHH     -0.587200
      7 O2         -0.1520   -1.2100   -2.3450 o         1 MHH     -0.865500
      8 C4          3.5010   -0.0040    1.4060 c3        1 MHH     -0.080400
      9 C5          4.0490   -0.0250    2.8170 c3        1 MHH     -0.080400
     10 C6          5.5560   -0.0470    2.8290 c3        1 MHH     -0.090100
     11 O3         -0.0970    1.3800   -2.3230 o         1 MHH     -0.865500
     12 H1         -0.4570    0.9630    0.4690 hc        1 MHH      0.062700
     13 H1A        -0.4850   -0.8300    0.4520 hc        1 MHH      0.062700
     14 H2          1.8230    0.9450   -0.5600 hc        1 MHH      0.055700
     15 H2A         1.7940   -0.8650   -0.5760 hc        1 MHH      0.055700
     16 H3          1.6220    0.9220    1.9550 hc        1 MHH      0.028700
     17 H3A         1.5940   -0.8820    1.9390 hc        1 MHH      0.028700
     18 H7         -3.8640    0.1680   -2.6280 h1        1 MHH      0.006700
     19 H7A        -2.4290    1.0580   -3.3490 h1        1 MHH      0.006700
     20 H7B        -2.4680   -0.7720   -3.3650 h1        1 MHH      0.006700
     21 H4          3.8640   -0.9060    0.8480 hc        1 MHH      0.038700
     22 H4A         3.8920    0.8980    0.8650 hc        1 MHH      0.038700
     23 H5          3.6820    0.8780    3.3730 hc        1 MHH      0.032700
     24 H5A         3.6550   -0.9260    3.3570 hc        1 MHH      0.032700
     25 H6          5.9660    0.8560    2.3160 hc        1 MHH      0.025033
     26 H6A         5.9390   -0.0630    3.8770 hc        1 MHH      0.025033
     27 H6B         5.9390   -0.9530    2.2990 hc        1 MHH      0.025033
@<TRIPOS>BOND
     1    1    2 1   
     2    1    5 1   
     3    1   12 1   
     4    1   13 1   
     5    2    3 1   
     6    2   14 1   
     7    2   15 1   
     8    3    8 1   
     9    3   16 1   
    10    3   17 1   
    11    4    6 1   
    12    4   18 1   
    13    4   19 1   
    14    4   20 1   
    15    5    6 1   
    16    5    7 1   
    17    5   11 1   
    18    8    9 1   
    19    8   21 1   
    20    8   22 1   
    21    9   10 1   
    22    9   23 1   
    23    9   24 1   
    24   10   25 1   
    25   10   26 1   
    26   10   27 1   
@<TRIPOS>SUBSTRUCTURE
     1 MHH         1 TEMP              0 ****  ****    0 ROOT
