@<TRIPOS>MOLECULE
MHH
   27    26     1     0     0
SMALL
bcc


@<TRIPOS>ATOM
      1 C1          0.4040   -0.8060    0.1740 c3        1 MHH     -0.326600
      2 C2         -0.7960    0.0620   -0.0660 c3        1 MHH     -0.070400
      3 C3         -2.1040   -0.6610    0.1620 c3        1 MHH     -0.068400
      4 C7          4.2150   -0.3970    0.0060 c3        1 MHH      0.164700
      5 P           1.7540    0.1720   -0.1290 p5        1 MHH      1.336600
      6 O1          2.9530   -0.9510    0.1840 os        1 MHH     -0.587200
      7 O2          1.8940    1.2170    0.9130 o         1 MHH     -0.865500
      8 C4         -3.2900    0.2460   -0.0890 c3        1 MHH     -0.080400
      9 C5         -4.6000   -0.4770    0.1380 c3        1 MHH     -0.080400
     10 C6         -5.7830    0.4220   -0.1110 c3        1 MHH     -0.090100
     11 O3          1.8630    0.4900   -1.5730 o         1 MHH     -0.865500
     12 H1          0.4110   -1.1900    1.2200 hc        1 MHH      0.062700
     13 H1A         0.3910   -1.6940   -0.5000 hc        1 MHH      0.062700
     14 H2         -0.7240    0.9540    0.6160 hc        1 MHH      0.055700
     15 H2A        -0.7450    0.4460   -1.1210 hc        1 MHH      0.055700
     16 H3         -2.1620   -1.5520   -0.5160 hc        1 MHH      0.028700
     17 H3A        -2.1410   -1.0450    1.2150 hc        1 MHH      0.028700
     18 H7          4.3440    0.4720    0.7040 h1        1 MHH      0.006700
     19 H7A         4.9810   -1.1820    0.2260 h1        1 MHH      0.006700
     20 H7B         4.3220   -0.0410   -1.0530 h1        1 MHH      0.006700
     21 H4         -3.2300    1.1370    0.5890 hc        1 MHH      0.038700
     22 H4A        -3.2510    0.6300   -1.1430 hc        1 MHH      0.038700
     23 H5         -4.6560   -1.3700   -0.5400 hc        1 MHH      0.032700
     24 H5A        -4.6350   -0.8620    1.1920 hc        1 MHH      0.032700
     25 H6         -5.7570    1.3050    0.5730 hc        1 MHH      0.025033
     26 H6A        -5.7770    0.7960   -1.1630 hc        1 MHH      0.025033
     27 H6B        -6.7380   -0.1300    0.0620 hc        1 MHH      0.025033
@<TRIPOS>BOND
     1    1    2 1   
     2    1    5 1   
     3    1   12 1   
     4    1   13 1   
     5    2    3 1   
     6    2   14 1   
     7    2   15 1   
     8    3    8 1   
     9    3   16 1   
    10    3   17 1   
    11    4    6 1   
    12    4   18 1   
    13    4   19 1   
    14    4   20 1   
    15    5    6 1   
    16    5    7 1   
    17    5   11 1   
    18    8    9 1   
    19    8   21 1   
    20    8   22 1   
    21    9   10 1   
    22    9   23 1   
    23    9   24 1   
    24   10   25 1   
    25   10   26 1   
    26   10   27 1   
@<TRIPOS>SUBSTRUCTURE
     1 MHH         1 TEMP              0 ****  ****    0 ROOT
