@<TRIPOS>MOLECULE
MHH
   27    26     1     0     0
SMALL
bcc


@<TRIPOS>ATOM
      1 C1         -0.0580    0.0690   -0.0580 c3        1 MHH     -0.326600
      2 C2          1.4410    0.0430   -0.0110 c3        1 MHH     -0.070400
      3 C3          1.9880    0.0240    1.3980 c3        1 MHH     -0.068400
      4 C7         -2.7580    0.1360   -2.7830 c3        1 MHH      0.164700
      5 P          -0.4730    0.0880   -1.7010 p5        1 MHH      1.336600
      6 O1         -2.1370    0.1160   -1.5400 os        1 MHH     -0.587200
      7 O2         -0.1480   -1.2080   -2.3420 o         1 MHH     -0.865500
      8 C4          3.5010   -0.0030    1.4050 c3        1 MHH     -0.080400
      9 C5          4.0500   -0.0220    2.8160 c3        1 MHH     -0.080400
     10 C6          5.5570   -0.0480    2.8270 c3        1 MHH     -0.090100
     11 O3         -0.1030    1.3820   -2.3240 o         1 MHH     -0.865500
     12 H1         -0.4550    0.9690    0.4680 hc        1 MHH      0.062700
     13 H1A        -0.4860   -0.8230    0.4550 hc        1 MHH      0.062700
     14 H2          1.8240    0.9460   -0.5610 hc        1 MHH      0.055700
     15 H2A         1.7930   -0.8640   -0.5740 hc        1 MHH      0.055700
     16 H3          1.6250    0.9280    1.9530 hc        1 MHH      0.028700
     17 H3A         1.5940   -0.8760    1.9400 hc        1 MHH      0.028700
     18 H7         -3.8660    0.1540   -2.6260 h1        1 MHH      0.006700
     19 H7A        -2.4350    1.0500   -3.3480 h1        1 MHH      0.006700
     20 H7B        -2.4670   -0.7800   -3.3610 h1        1 MHH      0.006700
     21 H4          3.8630   -0.9070    0.8490 hc        1 MHH      0.038700
     22 H4A         3.8940    0.8970    0.8620 hc        1 MHH      0.038700
     23 H5          3.6860    0.8820    3.3710 hc        1 MHH      0.032700
     24 H5A         3.6550   -0.9220    3.3570 hc        1 MHH      0.032700
     25 H6          5.9690    0.8530    2.3120 hc        1 MHH      0.025033
     26 H6A         5.9410   -0.0620    3.8750 hc        1 MHH      0.025033
     27 H6B         5.9390   -0.9560    2.2990 hc        1 MHH      0.025033
@<TRIPOS>BOND
     1    1    2 1   
     2    1    5 1   
     3    1   12 1   
     4    1   13 1   
     5    2    3 1   
     6    2   14 1   
     7    2   15 1   
     8    3    8 1   
     9    3   16 1   
    10    3   17 1   
    11    4    6 1   
    12    4   18 1   
    13    4   19 1   
    14    4   20 1   
    15    5    6 1   
    16    5    7 1   
    17    5   11 1   
    18    8    9 1   
    19    8   21 1   
    20    8   22 1   
    21    9   10 1   
    22    9   23 1   
    23    9   24 1   
    24   10   25 1   
    25   10   26 1   
    26   10   27 1   
@<TRIPOS>SUBSTRUCTURE
     1 MHH         1 TEMP              0 ****  ****    0 ROOT
