@<TRIPOS>MOLECULE
MHI
   54    45     1     0     0
SMALL
bcc


@<TRIPOS>ATOM
      1 C1         -1.6570    3.3970    0.7390 c3        1 MHI     -0.288000
      2 N1          1.6180    0.6280   -1.2100 n3        1 MHI     -0.147000
      3 O1          2.5300    0.0760    1.3570 o         1 MHI     -0.412000
      4 C2          1.0320    1.1270   -0.1730 c2        1 MHI      0.053000
      5 N2          0.8780    1.4000    2.2680 n         1 MHI     -0.389000
      6 C3          1.5310    0.8290    1.2540 c2        1 MHI      0.289000
      7 N3         -0.5780    3.7200    5.8220 n         1 MHI     -0.432000
      8 C4          2.3650    0.2360    5.4890 c3        1 MHI     -0.285000
      9 N4          0.8850    1.0180   -3.8910 n3        1 MHI     -0.425000
     10 O4         -1.1380    2.4960    3.9770 o         1 MHI     -0.451000
     11 C5          4.5080   -1.4140    0.5390 c1        1 MHI      0.434333
     12 C6          1.2500    0.9360    4.9110 c1        1 MHI     -0.053000
     13 C7          0.1050    1.3430    5.6990 c3        1 MHI     -0.256000
     14 C8         -0.5840    2.5710    5.1030 c2        1 MHI      0.325000
     15 C9         -2.5030    6.8120    6.7110 c3        1 MHI     -0.279500
     16 C10        -1.7020    3.6890    9.0720 c1        1 MHI      0.434333
     17 C11        -2.2050    6.0260    5.5390 c1        1 MHI     -0.101000
     18 C12        -2.8090    6.3000    4.2600 c3        1 MHI     -0.279500
     19 C13        -4.3450    3.1760    3.4860 c1        1 MHI     -0.234000
     20 C15        -9.9960    4.4110    3.2390 c1        1 MHI      0.434333
     21 C14        -5.4980    3.4780    3.3790 c1        1 MHI     -0.234000
     22 H11C       -1.8890    2.4740    0.1630 hc        1 MHI      0.073000
     23 H12C       -0.6100    3.7170    0.5440 hc        1 MHI      0.073000
     24 H13C       -2.3510    4.2060    0.4220 hc        1 MHI      0.073000
     25 H2         -1.7950    3.2030    1.8280 hc        1 MHI      0.073000
     26 H11N        1.3060    0.8060   -2.1950 hn        1 MHI      0.306500
     27 H12N        0.1420    1.7900   -0.2970 h4        1 MHI      0.195000
     28 HA          0.0640    1.9560    2.1190 hn        1 MHI      0.290500
     29 H4          2.5540   -0.7030    4.8970 hc        1 MHI      0.134000
     30 H3         -0.1460    3.7330    6.7120 hn        1 MHI      0.257500
     31 H9         -1.5530    7.3270    7.0250 hc        1 MHI      0.119333
     32 H61C        3.2790    0.8820    5.3460 hc        1 MHI      0.134000
     33 H62C        2.2770   -0.0240    6.5740 hc        1 MHI      0.134000
     34 H14        -6.5240    3.7440    3.2850 ha        1 MHI      0.234500
     35 H71C       -0.6370    0.4860    5.6150 hc        1 MHI      0.151500
     36 H72C        0.3180    1.4760    6.7970 hc        1 MHI      0.151500
     37 H111       -3.3020    7.5880    6.5900 hc        1 MHI      0.119333
     38 H112       -2.7950    6.1240    7.5530 hc        1 MHI      0.119333
     39 H121       -2.0060    6.3490    3.4770 hc        1 MHI      0.119333
     40 H122       -3.4360    7.2250    4.1990 hc        1 MHI      0.119333
     41 H131       -3.4570    5.4090    4.0030 hc        1 MHI      0.119333
     42 H132       -3.3210    2.8990    3.5830 ha        1 MHI      0.234500
     43 O2          4.0620   -1.1260   -0.5320 o         1 MHI     -0.215833
     44 O3          4.9670   -1.7150    1.5890 o         1 MHI     -0.215833
     45 O5         -0.8590    2.9210    8.7250 o         1 MHI     -0.215833
     46 O6         -2.5380    4.4660    9.3970 o         1 MHI     -0.215833
     47 O7         -8.8100    4.3050    3.2030 o         1 MHI     -0.215833
     48 O8        -11.1780    4.5160    3.2740 o         1 MHI     -0.215833
     49 H41N       -0.0320    0.6660   -4.0780 hn        1 MHI      0.167667
     50 H13         2.4260    0.0270   -1.0910 hn        1 MHI      0.306500
     51 H22         1.1390    1.1990    3.2890 hn        1 MHI      0.290500
     52 H32        -1.1250    4.5430    5.5380 hn        1 MHI      0.257500
     53 H42         1.5470    0.5090   -4.4440 hn        1 MHI      0.167667
     54 H42N        0.9230    1.9840   -4.1510 hn        1 MHI      0.167667
@<TRIPOS>BOND
     1    1   22 1   
     2    1   23 1   
     3    1   24 1   
     4    1   25 1   
     5    2    4 1   
     6    2   26 1   
     7    2   50 1   
     8    3    6 1   
     9    4    6 1   
    10    4   27 1   
    11    5    6 1   
    12    5   28 1   
    13    5   51 1   
    14    7   14 1   
    15    7   30 1   
    16    7   52 1   
    17    8   12 1   
    18    8   29 1   
    19    8   32 1   
    20    8   33 1   
    21    9   49 1   
    22    9   53 1   
    23    9   54 1   
    24   10   14 1   
    25   11   43 1   
    26   11   44 1   
    27   12   13 1   
    28   13   14 1   
    29   13   35 1   
    30   13   36 1   
    31   15   17 1   
    32   15   31 1   
    33   15   37 1   
    34   15   38 1   
    35   16   45 1   
    36   16   46 1   
    37   17   18 1   
    38   18   39 1   
    39   18   40 1   
    40   18   41 1   
    41   19   21 1   
    42   19   42 1   
    43   20   47 1   
    44   20   48 1   
    45   21   34 1   
@<TRIPOS>SUBSTRUCTURE
     1 MHI         1 TEMP              0 ****  ****    0 ROOT
