@<TRIPOS>MOLECULE
MHI
   50    49     1     0     0
SMALL
bcc


@<TRIPOS>ATOM
      1 C1         -3.0980    3.7560    0.3240 c3        1 MHI     -0.089100
      2 N1         -5.1170    3.7470    1.7610 n3        1 MHI     -0.888800
      3 O1         -4.4440    1.0750    1.8980 o         1 MHI     -0.669100
      4 C2         -4.4600    3.1340    0.6170 c3        1 MHI      0.075500
      5 N2         -3.8800    0.9110   -0.3450 n         1 MHI     -0.489900
      6 C3         -4.2790    1.5950    0.7670 c         1 MHI      0.607100
      7 N3          0.8130   -1.5770    0.6180 n         1 MHI     -0.516900
      8 C4         -3.9570   -0.5370   -0.4660 c3        1 MHI     -0.050300
      9 N4          4.1670    2.7100   -1.0770 n3        1 MHI     -0.905800
     10 O4          0.0430   -1.6410   -1.5600 o         1 MHI     -0.648100
     11 C5         -5.0710   -0.9560   -1.4920 c         1 MHI      0.905600
     12 C6         -2.6230   -1.1520   -0.9130 c3        1 MHI     -0.060400
     13 C7         -1.5650   -1.0880    0.1670 c3        1 MHI     -0.153400
     14 C8         -0.1830   -1.4930   -0.3380 c         1 MHI      0.641100
     15 C9          2.0860   -2.2340    0.3760 c3        1 MHI     -0.042300
     16 C10         2.2280   -3.5540    1.2150 c         1 MHI      0.899600
     17 C11         3.2920   -1.3550    0.7410 c3        1 MHI     -0.065400
     18 C12         3.5350   -0.1990   -0.2070 c3        1 MHI     -0.078400
     19 C13         4.7370    0.6190    0.2270 c3        1 MHI     -0.093400
     20 C15         6.5050    2.3100   -0.2810 c         1 MHI      0.909600
     21 C14         5.1620    1.6910   -0.7870 c3        1 MHI      0.038500
     22 H11C       -2.3630    3.4940    1.1230 hc        1 MHI      0.042367
     23 H12C       -2.7110    3.3720   -0.6510 hc        1 MHI      0.042367
     24 H13C       -3.1770    4.8680    0.2600 hc        1 MHI      0.042367
     25 H2         -5.1400    3.3150   -0.2690 h1        1 MHI      0.065700
     26 H11N       -5.9200    3.1930    2.0020 hn        1 MHI      0.343300
     27 H12N       -4.4950    3.7210    2.5490 hn        1 MHI      0.343300
     28 HA         -3.9910    1.3730   -1.2260 hn        1 MHI      0.313500
     29 H4         -4.2360   -0.9670    0.5390 h1        1 MHI      0.072700
     30 H3          0.5050   -1.6930    1.5630 hn        1 MHI      0.302500
     31 H9          2.1530   -2.5040   -0.7160 h1        1 MHI      0.072700
     32 H61C       -2.8290   -2.2230   -1.1790 hc        1 MHI      0.062700
     33 H62C       -2.2470   -0.6470   -1.8410 hc        1 MHI      0.062700
     34 H42N        4.3710    3.5280   -0.5280 hn        1 MHI      0.330800
     35 H14         5.3770    1.1710   -1.7660 h1        1 MHI      0.043700
     36 H71C       -1.4890   -0.0430    0.5690 hc        1 MHI      0.053700
     37 H72C       -1.8630   -1.7560    1.0170 hc        1 MHI      0.053700
     38 H111        3.1740   -0.9640    1.7850 hc        1 MHI      0.038700
     39 H112        4.1900   -2.0310    0.7360 hc        1 MHI      0.038700
     40 H121        3.7010   -0.5920   -1.2440 hc        1 MHI      0.032700
     41 H122        2.6190    0.4470   -0.2450 hc        1 MHI      0.032700
     42 H131        4.5240    1.1050    1.2140 hc        1 MHI      0.036700
     43 H132        5.6160   -0.0640    0.3740 hc        1 MHI      0.036700
     44 O2         -5.4370   -0.1180   -2.3670 o         1 MHI     -0.845300
     45 O3         -5.5580   -2.1110   -1.3680 o         1 MHI     -0.845300
     46 O5          1.6000   -3.6530    2.3100 o         1 MHI     -0.853800
     47 O6          2.9820   -4.4550    0.7530 o         1 MHI     -0.853800
     48 O7          6.4630    3.3230    0.4800 o         1 MHI     -0.862300
     49 O8          7.5850    1.7710   -0.6590 o         1 MHI     -0.862300
     50 H41N        3.2560    2.3840   -0.8090 hn        1 MHI      0.330800
@<TRIPOS>BOND
     1    1    4 1   
     2    1   22 1   
     3    1   23 1   
     4    1   24 1   
     5    2    4 1   
     6    2   26 1   
     7    2   27 1   
     8    3    6 2   
     9    4    6 1   
    10    4   25 1   
    11    5    6 1   
    12    5    8 1   
    13    5   28 1   
    14    7   14 1   
    15    7   15 1   
    16    7   30 1   
    17    8   11 1   
    18    8   12 1   
    19    8   29 1   
    20    9   21 1   
    21    9   34 1   
    22    9   50 1   
    23   10   14 2   
    24   11   44 1   
    25   11   45 1   
    26   12   13 1   
    27   12   32 1   
    28   12   33 1   
    29   13   14 1   
    30   13   36 1   
    31   13   37 1   
    32   15   16 1   
    33   15   17 1   
    34   15   31 1   
    35   16   46 1   
    36   16   47 1   
    37   17   18 1   
    38   17   38 1   
    39   17   39 1   
    40   18   19 1   
    41   18   40 1   
    42   18   41 1   
    43   19   21 1   
    44   19   42 1   
    45   19   43 1   
    46   20   21 1   
    47   20   48 1   
    48   20   49 1   
    49   21   35 1   
@<TRIPOS>SUBSTRUCTURE
     1 MHI         1 TEMP              0 ****  ****    0 ROOT
