@<TRIPOS>MOLECULE
MHI
   54    47     1     0     0
SMALL
bcc


@<TRIPOS>ATOM
      1 C1         -0.0910   -2.1750    0.7470 c3        1 MHI     -0.134800
      2 N1          1.4600    0.6270    1.1030 nh        1 MHI     -0.261100
      3 O1          4.0220    1.7650    0.7350 o         1 MHI     -0.561100
      4 C2          1.9200    1.5710    1.8590 ce        1 MHI      0.381200
      5 N2          3.3730    3.5470    2.0370 n         1 MHI     -0.626000
      6 C3          3.2020    2.3160    1.4940 c         1 MHI      0.524800
      7 N3         -1.7370    1.0320    4.1240 n         1 MHI     -0.647000
      8 C4         -3.1300   -0.8760    6.8280 c1        1 MHI     -0.087500
      9 N4         -3.3740    6.0900    1.2530 nh        1 MHI     -0.824600
     10 O4          0.1340   -0.0500    3.4510 o         1 MHI     -0.739100
     11 C5         -0.4880    3.9310    2.2580 c         1 MHI      0.777800
     12 C6         -2.1280   -0.8890    6.1730 c1        1 MHI     -0.205100
     13 C7         -0.9160   -0.9490    5.4190 c3        1 MHI     -0.060300
     14 C8         -0.8210    0.0370    4.2700 c         1 MHI      0.691100
     15 C9          1.6630    6.3790    3.2840 c3        1 MHI     -0.117100
     16 C10        -6.7390   -1.3290    9.5560 c1        1 MHI      0.894000
     17 C11         0.4220    5.5870    3.6170 c3        1 MHI      0.142100
     18 C12        -0.8630    6.1630    2.9880 c3        1 MHI     -0.038200
     19 C13        -1.3930    5.0510    2.1470 ce        1 MHI     -0.420400
     20 C15        -6.1380    8.9740    0.3840 c1        1 MHI      0.894000
     21 C14        -2.5230    5.0570    1.3740 c2        1 MHI      0.234000
     22 H11C        0.9850   -2.2190    0.4670 hc        1 MHI      0.034950
     23 H12C       -0.5320   -3.1910    0.6470 hc        1 MHI      0.034950
     24 H13C       -0.6300   -1.4770    0.0690 hc        1 MHI      0.034950
     25 H2         -0.1960   -1.8340    1.8030 hc        1 MHI      0.034950
     26 H11N        1.3640    1.8390    2.7970 h4        1 MHI      0.118800
     27 H12N        0.6120    0.1250    1.3680 hn        1 MHI      0.347700
     28 HA          2.6710    3.9760    2.5980 hn        1 MHI      0.349500
     29 H4         -4.0190   -0.8710    7.4150 ha        1 MHI      0.190500
     30 H3         -2.5130    1.1020    4.7350 hn        1 MHI      0.327500
     31 H9          1.8320    6.4090    2.1800 hc        1 MHI      0.055700
     32 H61C       -1.4750    0.2490    1.3730 ha        1 MHI      0.001500
     33 H62C       -1.6000    0.8340    1.0520 ha        1 MHI      0.001500
     34 H14        -2.7800    4.1430    0.7920 h4        1 MHI      0.161000
     35 H71C       -0.0310   -0.7570    6.0930 hc        1 MHI      0.102700
     36 H72C       -0.7850   -1.9820    4.9820 hc        1 MHI      0.102700
     37 H111        1.5460    7.4240    3.6600 hc        1 MHI      0.055700
     38 H112        2.5580    5.9230    3.7720 hc        1 MHI      0.055700
     39 H121       -0.6350    7.0700    2.3740 hc        1 MHI      0.064200
     40 H122       -1.5870    6.4570    3.7910 hc        1 MHI      0.064200
     41 H131       -1.3470    6.1990    6.0350 ha        1 MHI      0.001500
     42 H132       -1.8490    6.4930    6.3810 ha        1 MHI      0.001500
     43 O2         -0.4510    2.7800    1.7970 o         1 MHI     -0.707500
     44 O3          0.5830    4.2360    3.0850 os        1 MHI     -0.475900
     45 O5         -5.9020   -1.0190    8.7660 o         1 MHI     -0.446500
     46 O6         -7.5730   -1.6370   10.3420 o         1 MHI     -0.446500
     47 O7         -5.3370    8.1250    0.6370 o         1 MHI     -0.446500
     48 O8         -6.9330    9.8160    0.1340 o         1 MHI     -0.446500
     49 H41N       -3.2170    6.9490    1.7250 hn        1 MHI      0.452300
     50 H13         1.9300    0.3410    0.2590 hn        1 MHI      0.347700
     51 H22         4.2040    4.0510    1.8280 hn        1 MHI      0.349500
     52 H32        -1.6730    1.6500    3.3470 hn        1 MHI      0.327500
     53 H42         0.3090    5.4550    4.7270 h1        1 MHI      0.081700
     54 H42N       -4.1680    6.0350    0.6590 hn        1 MHI      0.452300
@<TRIPOS>BOND
     1    1   22 1   
     2    1   23 1   
     3    1   24 1   
     4    1   25 1   
     5    2    4 2   
     6    2   27 1   
     7    2   50 1   
     8    3    6 2   
     9    4    6 1   
    10    4   26 1   
    11    5    6 1   
    12    5   28 1   
    13    5   51 1   
    14    7   14 1   
    15    7   30 1   
    16    7   52 1   
    17    8   12 3   
    18    8   29 1   
    19    9   21 1   
    20    9   49 1   
    21    9   54 1   
    22   10   14 2   
    23   11   19 1   
    24   11   43 2   
    25   11   44 1   
    26   12   13 1   
    27   13   14 1   
    28   13   35 1   
    29   13   36 1   
    30   15   17 1   
    31   15   31 1   
    32   15   37 1   
    33   15   38 1   
    34   16   45 2   
    35   16   46 2   
    36   17   18 1   
    37   17   44 1   
    38   17   53 1   
    39   18   19 1   
    40   18   39 1   
    41   18   40 1   
    42   19   21 2   
    43   20   47 2   
    44   20   48 2   
    45   21   34 1   
    46   32   33 1   
    47   41   42 1   
@<TRIPOS>SUBSTRUCTURE
     1 MHI         1 TEMP              0 ****  ****    0 ROOT
