@<TRIPOS>MOLECULE
MHL
   25    24     1     0     0
SMALL
bcc


@<TRIPOS>ATOM
      1 N          -1.6250   -0.2060    1.1650 n3        1 MHL     -0.795200
      2 CA         -0.3340   -0.7840    0.8060 c3        1 MHL      0.051500
      3 CB         -0.2720   -1.1780   -0.6760 c3        1 MHL     -0.079400
      4 CG         -0.1120   -0.0630   -1.7200 c3        1 MHL      0.173800
      5 CD1        -0.7850   -0.5000   -3.0250 c3        1 MHL     -0.098600
      6 CD2        -0.6770    1.2820   -1.2880 c3        1 MHL     -0.098600
      7 C           0.9310    0.0510    1.1920 c         1 MHL      0.919600
      8 O           2.0280   -0.3770    0.7200 o         1 MHL     -0.837300
      9 OXT         0.8510    1.0480    1.9560 o         1 MHL     -0.837300
     10 CN         -1.8130    0.0040    2.5740 c3        1 MHL      0.145100
     11 OD3         1.2670    0.0980   -2.0560 oh        1 MHL     -0.650800
     12 H          -2.3490   -0.8130    0.8180 hn        1 MHL      0.311800
     13 HA         -0.1920   -1.7580    1.3810 h1        1 MHL     -0.004300
     14 HB2         0.6220   -1.8520   -0.7800 hc        1 MHL      0.033700
     15 HB3        -1.1850   -1.7800   -0.9360 hc        1 MHL      0.033700
     16 HD11       -0.5620    0.2390   -3.8290 hc        1 MHL      0.033367
     17 HD12       -0.3970   -1.4960   -3.3410 hc        1 MHL      0.033367
     18 HD13       -1.8880   -0.5630   -2.8790 hc        1 MHL      0.033367
     19 HD21       -1.7790    1.2100   -1.1370 hc        1 MHL      0.033367
     20 HD22       -0.1980    1.6110   -0.3320 hc        1 MHL      0.033367
     21 HD23       -0.4660    2.0440   -2.0770 hc        1 MHL      0.033367
     22 HN1        -2.8170    0.4810    2.7320 h1        1 MHL      0.024700
     23 HN2        -1.7810   -0.9430    3.1840 h1        1 MHL      0.024700
     24 HN3        -1.0070    0.6960    2.9460 h1        1 MHL      0.024700
     25 HD3         1.7560    0.1730   -1.2180 ho        1 MHL      0.455000
@<TRIPOS>BOND
     1    1    2 1   
     2    1   10 1   
     3    1   12 1   
     4    2    3 1   
     5    2    7 1   
     6    2   13 1   
     7    3    4 1   
     8    3   14 1   
     9    3   15 1   
    10    4    5 1   
    11    4    6 1   
    12    4   11 1   
    13    5   16 1   
    14    5   17 1   
    15    5   18 1   
    16    6   19 1   
    17    6   20 1   
    18    6   21 1   
    19    7    8 1   
    20    7    9 1   
    21   10   22 1   
    22   10   23 1   
    23   10   24 1   
    24   11   25 1   
@<TRIPOS>SUBSTRUCTURE
     1 MHL         1 TEMP              0 ****  ****    0 ROOT
