@<TRIPOS>MOLECULE
MHN
   27    26     1     0     0
SMALL
bcc


@<TRIPOS>ATOM
      1 O1          0.2420    0.2590   -4.5590 oh        1 MHN     -0.601800
      2 C8         -0.4850   -0.2360   -3.4440 c3        1 MHN      0.131400
      3 C7          0.2200    0.2640   -2.1950 c3        1 MHN     -0.084400
      4 C6         -0.4930   -0.2210   -0.9520 c3        1 MHN     -0.079400
      5 C5          0.2000    0.2730    0.3000 c3        1 MHN     -0.078400
      6 C4         -0.5120   -0.2140    1.5450 c3        1 MHN     -0.075400
      7 C2          0.1450    0.2900    2.8220 c3        1 MHN     -0.067700
      8 C1         -0.8110    0.1510    3.9890 c3        1 MHN     -0.090100
      9 C3          1.4330   -0.4520    3.1120 c3        1 MHN     -0.090100
     10 HO1        -0.2110   -0.0630   -5.3460 ho        1 MHN      0.398000
     11 H81        -0.5010   -1.3590   -3.4660 h1        1 MHN      0.019700
     12 H82        -1.5420    0.1410   -3.4800 h1        1 MHN      0.019700
     13 H71         0.2520    1.3850   -2.2130 hc        1 MHN      0.055700
     14 H72         1.2810   -0.0970   -2.2000 hc        1 MHN      0.055700
     15 H61        -0.5240   -1.3420   -0.9470 hc        1 MHN      0.038700
     16 H62        -1.5560    0.1400   -0.9610 hc        1 MHN      0.038700
     17 H51         0.2280    1.3950    0.2960 hc        1 MHN      0.042200
     18 H52         1.2630   -0.0850    0.3050 hc        1 MHN      0.042200
     19 H41        -0.5320   -1.3350    1.5540 hc        1 MHN      0.039700
     20 H42        -1.5780    0.1370    1.5170 hc        1 MHN      0.039700
     21 H2          0.3870    1.3840    2.6900 hc        1 MHN      0.046700
     22 H11        -0.3280    0.5090    4.9300 hc        1 MHN      0.033033
     23 H12        -1.7340    0.7540    3.8130 hc        1 MHN      0.033033
     24 H13        -1.1070   -0.9170    4.1270 hc        1 MHN      0.033033
     25 H31         1.2360   -1.5420    3.2470 hc        1 MHN      0.033033
     26 H32         2.1580   -0.3250    2.2720 hc        1 MHN      0.033033
     27 H33         1.9020   -0.0590    4.0460 hc        1 MHN      0.033033
@<TRIPOS>BOND
     1    1    2 1   
     2    1   10 1   
     3    2    3 1   
     4    2   11 1   
     5    2   12 1   
     6    3    4 1   
     7    3   13 1   
     8    3   14 1   
     9    4    5 1   
    10    4   15 1   
    11    4   16 1   
    12    5    6 1   
    13    5   17 1   
    14    5   18 1   
    15    6    7 1   
    16    6   19 1   
    17    6   20 1   
    18    7    8 1   
    19    7    9 1   
    20    7   21 1   
    21    8   22 1   
    22    8   23 1   
    23    8   24 1   
    24    9   25 1   
    25    9   26 1   
    26    9   27 1   
@<TRIPOS>SUBSTRUCTURE
     1 MHN         1 TEMP              0 ****  ****    0 ROOT
