@<TRIPOS>MOLECULE
MHN
   27    26     1     0     0
SMALL
bcc


@<TRIPOS>ATOM
      1 O1          0.0110   -0.2180    0.0190 oh        1 MHN     -0.601800
      2 C8          1.4210   -0.0570   -0.0290 c3        1 MHN      0.131400
      3 C7          1.9250   -0.1070    1.4030 c3        1 MHN     -0.084400
      4 C6          3.4270    0.0590    1.4440 c3        1 MHN     -0.079400
      5 C5          3.9420    0.0100    2.8670 c3        1 MHN     -0.078400
      6 C4          5.4460    0.1770    2.9100 c3        1 MHN     -0.075400
      7 C2          5.9960    0.1040    4.3270 c3        1 MHN     -0.067700
      8 C1          7.4890   -0.1530    4.2920 c3        1 MHN     -0.090100
      9 C3          5.7040    1.3720    5.1010 c3        1 MHN     -0.090100
     10 HO1        -0.3000   -0.1860   -0.8930 ho        1 MHN      0.398000
     11 H81         1.8790   -0.8820   -0.6390 h1        1 MHN      0.019700
     12 H82         1.6770    0.9280   -0.5050 h1        1 MHN      0.019700
     13 H71         1.4280    0.7040    1.9970 hc        1 MHN      0.055700
     14 H72         1.6280   -1.0850    1.8650 hc        1 MHN      0.055700
     15 H61         3.7130    1.0370    0.9750 hc        1 MHN      0.038700
     16 H62         3.9130   -0.7530    0.8400 hc        1 MHN      0.038700
     17 H51         3.6580   -0.9700    3.3350 hc        1 MHN      0.042200
     18 H52         3.4510    0.8190    3.4700 hc        1 MHN      0.042200
     19 H41         5.7290    1.1610    2.4500 hc        1 MHN      0.039700
     20 H42         5.9210   -0.6280    2.2890 hc        1 MHN      0.039700
     21 H2          5.5010   -0.7590    4.8570 hc        1 MHN      0.046700
     22 H11         7.7080   -1.1230    3.7850 hc        1 MHN      0.033033
     23 H12         8.0140    0.6620    3.7380 hc        1 MHN      0.033033
     24 H13         7.8990   -0.1960    5.3300 hc        1 MHN      0.033033
     25 H31         6.1080    1.2920    6.1390 hc        1 MHN      0.033033
     26 H32         4.6040    1.5500    5.1620 hc        1 MHN      0.033033
     27 H33         6.1780    2.2530    4.6050 hc        1 MHN      0.033033
@<TRIPOS>BOND
     1    1    2 1   
     2    1   10 1   
     3    2    3 1   
     4    2   11 1   
     5    2   12 1   
     6    3    4 1   
     7    3   13 1   
     8    3   14 1   
     9    4    5 1   
    10    4   15 1   
    11    4   16 1   
    12    5    6 1   
    13    5   17 1   
    14    5   18 1   
    15    6    7 1   
    16    6   19 1   
    17    6   20 1   
    18    7    8 1   
    19    7    9 1   
    20    7   21 1   
    21    8   22 1   
    22    8   23 1   
    23    8   24 1   
    24    9   25 1   
    25    9   26 1   
    26    9   27 1   
@<TRIPOS>SUBSTRUCTURE
     1 MHN         1 TEMP              0 ****  ****    0 ROOT
