@<TRIPOS>MOLECULE
MHN
   27    26     1     0     0
SMALL
bcc


@<TRIPOS>ATOM
      1 O1          0.0110   -0.2060    0.0180 oh        1 MHN     -0.601800
      2 C8          1.4210   -0.0570   -0.0300 c3        1 MHN      0.131400
      3 C7          1.9230   -0.0980    1.4030 c3        1 MHN     -0.084400
      4 C6          3.4270    0.0560    1.4440 c3        1 MHN     -0.079400
      5 C5          3.9400    0.0140    2.8680 c3        1 MHN     -0.078400
      6 C4          5.4450    0.1720    2.9100 c3        1 MHN     -0.075400
      7 C2          5.9950    0.1020    4.3280 c3        1 MHN     -0.067700
      8 C1          7.4860   -0.1630    4.2960 c3        1 MHN     -0.090100
      9 C3          5.7090    1.3770    5.0950 c3        1 MHN     -0.090100
     10 HO1        -0.3000   -0.1780   -0.8940 ho        1 MHN      0.398000
     11 H81         1.8730   -0.8910   -0.6320 h1        1 MHN      0.019700
     12 H82         1.6860    0.9220   -0.5140 h1        1 MHN      0.019700
     13 H71         1.4320    0.7210    1.9900 hc        1 MHN      0.055700
     14 H72         1.6190   -1.0700    1.8730 hc        1 MHN      0.055700
     15 H61         3.7210    1.0280    0.9680 hc        1 MHN      0.038700
     16 H62         3.9080   -0.7640    0.8470 hc        1 MHN      0.038700
     17 H51         3.6490   -0.9600    3.3430 hc        1 MHN      0.042200
     18 H52         3.4550    0.8310    3.4650 hc        1 MHN      0.042200
     19 H41         5.7360    1.1500    2.4450 hc        1 MHN      0.039700
     20 H42         5.9160   -0.6410    2.2950 hc        1 MHN      0.039700
     21 H2          5.4940   -0.7540    4.8630 hc        1 MHN      0.046700
     22 H11         7.7000   -1.1370    3.7940 hc        1 MHN      0.033033
     23 H12         8.0160    0.6460    3.7380 hc        1 MHN      0.033033
     24 H13         7.8950   -0.2020    5.3340 hc        1 MHN      0.033033
     25 H31         6.1120    1.3000    6.1340 hc        1 MHN      0.033033
     26 H32         4.6100    1.5610    5.1560 hc        1 MHN      0.033033
     27 H33         6.1880    2.2520    4.5950 hc        1 MHN      0.033033
@<TRIPOS>BOND
     1    1    2 1   
     2    1   10 1   
     3    2    3 1   
     4    2   11 1   
     5    2   12 1   
     6    3    4 1   
     7    3   13 1   
     8    3   14 1   
     9    4    5 1   
    10    4   15 1   
    11    4   16 1   
    12    5    6 1   
    13    5   17 1   
    14    5   18 1   
    15    6    7 1   
    16    6   19 1   
    17    6   20 1   
    18    7    8 1   
    19    7    9 1   
    20    7   21 1   
    21    8   22 1   
    22    8   23 1   
    23    8   24 1   
    24    9   25 1   
    25    9   26 1   
    26    9   27 1   
@<TRIPOS>SUBSTRUCTURE
     1 MHN         1 TEMP              0 ****  ****    0 ROOT
