@<TRIPOS>MOLECULE
MHO
   20    19     1     0     0
SMALL
bcc


@<TRIPOS>ATOM
      1 N           1.4250    1.9400    0.6240 n3        1 MHO     -0.889800
      2 CA          1.3830    0.5070    0.3620 c3        1 MHO      0.020500
      3 CB         -0.0060    0.0050   -0.0320 c3        1 MHO     -0.046400
      4 CG         -1.0160    0.1330    1.0820 c3        1 MHO     -0.076100
      5 SD         -2.4960   -0.6830    0.6300 s4        1 MHO      0.224600
      6 CE         -3.2730    0.5640   -0.3120 c3        1 MHO     -0.111800
      7 C           2.3970    0.0180   -0.7290 c         1 MHO      0.887600
      8 O           3.2210    0.8590   -1.1890 o         1 MHO     -0.840800
      9 OXT         2.3400   -1.1940   -1.0740 o         1 MHO     -0.840800
     10 OD1        -3.3140   -0.7740    1.8900 o         1 MHO     -0.539200
     11 H           2.3950    2.1960    0.7070 hn        1 MHO      0.331300
     12 H2          1.0780    2.4210   -0.1880 hn        1 MHO      0.331300
     13 HA          1.6820   -0.0040    1.3230 h1        1 MHO      0.043700
     14 HB2        -0.3660    0.5650   -0.9360 hc        1 MHO      0.048200
     15 HB3         0.1140   -1.0740   -0.3250 hc        1 MHO      0.048200
     16 HG2        -0.6160   -0.3510    2.0100 h1        1 MHO      0.091700
     17 HG3        -1.1620    1.2110    1.3400 h1        1 MHO      0.091700
     18 HE1        -2.5800    0.9530   -1.0920 h1        1 MHO      0.075700
     19 HE2        -4.1660    0.1280   -0.8170 h1        1 MHO      0.075700
     20 HE3        -3.6210    1.4260    0.3010 h1        1 MHO      0.075700
@<TRIPOS>BOND
     1    1    2 1   
     2    1   11 1   
     3    1   12 1   
     4    2    3 1   
     5    2    7 1   
     6    2   13 1   
     7    3    4 1   
     8    3   14 1   
     9    3   15 1   
    10    4    5 1   
    11    4   16 1   
    12    4   17 1   
    13    5    6 1   
    14    5   10 2   
    15    6   18 1   
    16    6   19 1   
    17    6   20 1   
    18    7    8 1   
    19    7    9 1   
@<TRIPOS>SUBSTRUCTURE
     1 MHO         1 TEMP              0 ****  ****    0 ROOT
