@<TRIPOS>MOLECULE
MHR
   35    37     1     0     0
SMALL
bcc


@<TRIPOS>ATOM
      1 C2          0.1090    0.0280   -0.0410 ca        1 MHR     -0.366300
      2 C3          1.5110    0.2070    0.0510 ca        1 MHR      0.448200
      3 C1         -0.6570    0.0110    1.1270 ca        1 MHR      0.222100
      4 C11        -1.7120    0.1400    4.3250 ca        1 MHR      0.571100
      5 C12        -3.8970    0.9170    4.5610 ca        1 MHR      0.857900
      6 N7         -4.2620   -0.1100    5.4280 nb        1 MHR     -0.752000
      7 C13        -3.2950   -0.9850    5.7390 ca        1 MHR      0.459200
      8 C14        -1.9900   -0.9130    5.2290 ca        1 MHR     -0.414600
      9 N5         -2.6420    1.0580    3.9770 nb        1 MHR     -0.724000
     10 C9         -0.3750    0.2390    3.7540 cc        1 MHR     -0.184000
     11 C8          0.7980    0.4150    4.4940 cd        1 MHR     -0.092100
     12 N2          1.9000    0.4770    3.6420 na        1 MHR     -0.279100
     13 C4          1.4470    0.3490    2.3210 ca        1 MHR      0.439800
     14 N1          2.2060    0.3620    1.1800 nb        1 MHR     -0.694000
     15 C10        -0.0000    0.1880    2.3620 ca        1 MHR     -0.194100
     16 O1         -2.0140   -0.1830    1.1710 os        1 MHR     -0.307900
     17 C15        -2.6620   -0.3580   -0.1000 c3        1 MHR      0.126400
     18 C16        -4.1350   -0.5570    0.2120 c3        1 MHR     -0.085400
     19 C17        -4.9150   -0.7710   -1.0580 c3        1 MHR     -0.094100
     20 H2         -0.3440   -0.0950   -1.0310 ha        1 MHR      0.146000
     21 H3          2.1160    0.2220   -0.8760 h4        1 MHR      0.021100
     22 HN6        -4.6750    2.4880    3.5090 hn        1 MHR      0.422800
     23 HN6A       -5.7890    1.6870    4.4880 hn        1 MHR      0.422800
     24 H13        -3.5920   -1.7920    6.4350 h4        1 MHR      0.023100
     25 H14        -1.2240   -1.6470    5.4980 ha        1 MHR      0.154000
     26 H8          0.9240    0.5070    5.5750 h4        1 MHR      0.175000
     27 HN2         2.8370    0.6300    3.9100 hn        1 MHR      0.312700
     28 H15        -2.5010    0.5560   -0.7290 h1        1 MHR      0.042700
     29 H15A       -2.2330   -1.2560   -0.6170 h1        1 MHR      0.042700
     30 H16        -4.2520   -1.4390    0.8950 hc        1 MHR      0.057200
     31 H16A       -4.5210    0.3410    0.7600 hc        1 MHR      0.057200
     32 H17        -4.8180    0.1100   -1.7370 hc        1 MHR      0.037700
     33 H17A       -5.9970   -0.9160   -0.8210 hc        1 MHR      0.037700
     34 H17B       -4.5500   -1.6760   -1.6010 hc        1 MHR      0.037700
     35 N6         -4.8400    1.9210    4.3080 nh        1 MHR     -0.924500
@<TRIPOS>BOND
     1    1    2 ar  
     2    1    3 ar  
     3    1   20 1   
     4    2   14 ar  
     5    2   21 1   
     6    3   15 ar  
     7    3   16 1   
     8    4    8 ar  
     9    4    9 ar  
    10    4   10 1   
    11    5    6 ar  
    12    5    9 ar  
    13    5   35 1   
    14    6    7 ar  
    15    7    8 ar  
    16    7   24 1   
    17    8   25 1   
    18   10   11 2   
    19   10   15 1   
    20   11   12 1   
    21   11   26 1   
    22   12   13 1   
    23   12   27 1   
    24   13   14 ar  
    25   13   15 ar  
    26   16   17 1   
    27   17   18 1   
    28   17   28 1   
    29   17   29 1   
    30   18   19 1   
    31   18   30 1   
    32   18   31 1   
    33   19   32 1   
    34   19   33 1   
    35   19   34 1   
    36   22   35 1   
    37   23   35 1   
@<TRIPOS>SUBSTRUCTURE
     1 MHR         1 TEMP              0 ****  ****    0 ROOT
