@<TRIPOS>MOLECULE
MHR
   35    37     1     0     0
SMALL
bcc


@<TRIPOS>ATOM
      1 C2         -2.3780   -1.9760   -0.0230 ca        1 MHR     -0.366300
      2 C3         -3.6830   -1.4490   -0.1920 ca        1 MHR      0.447200
      3 C1         -1.2860   -1.1070   -0.0050 ca        1 MHR      0.222100
      4 C11         0.7170    1.6010   -0.1210 ca        1 MHR      0.571100
      5 C12         2.8620    1.1490   -0.9130 ca        1 MHR      0.857900
      6 N7          3.4860    1.8470    0.1180 nb        1 MHR     -0.752000
      7 C13         2.6690    2.4360    1.0040 ca        1 MHR      0.459200
      8 C14         1.2690    2.3610    0.9390 ca        1 MHR     -0.414600
      9 N5          1.4870    0.9900   -1.0490 nb        1 MHR     -0.724000
     10 C9         -0.7320    1.4780   -0.2140 cc        1 MHR     -0.184000
     11 C8         -1.6150    2.5490   -0.3780 cd        1 MHR     -0.092100
     12 N2         -2.9280    2.0860   -0.4370 na        1 MHR     -0.279100
     13 C4         -2.9120    0.6880   -0.3210 ca        1 MHR      0.439800
     14 N1         -3.9900   -0.1580   -0.3350 nb        1 MHR     -0.694000
     15 C10        -1.5230    0.2740   -0.1700 ca        1 MHR     -0.194100
     16 O1          0.0190   -1.4920    0.1800 os        1 MHR     -0.307900
     17 C15         0.2360   -2.9020    0.3430 c3        1 MHR      0.126400
     18 C16         1.7340   -3.0690    0.5350 c3        1 MHR     -0.085400
     19 C17         2.0790   -4.5210    0.7370 c3        1 MHR     -0.094100
     20 H2         -2.2570   -3.0590    0.0900 ha        1 MHR      0.146000
     21 H3         -4.5470   -2.1390   -0.2080 h4        1 MHR      0.021100
     22 HN6         4.6330    0.4960   -1.6990 hn        1 MHR      0.422800
     23 HN6A        3.2640   -0.0760   -2.5000 hn        1 MHR      0.422800
     24 H13         3.1720    2.9940    1.8150 h4        1 MHR      0.023100
     25 H14         0.6300    2.8470    1.6810 ha        1 MHR      0.154000
     26 H8         -1.3970    3.6160   -0.4620 h4        1 MHR      0.175000
     27 HN2        -3.7350    2.6350   -0.5820 hn        1 MHR      0.312700
     28 H15        -0.3290   -3.2660    1.2410 h1        1 MHR      0.042700
     29 H15A       -0.1180   -3.4430   -0.5730 h1        1 MHR      0.042700
     30 H16         2.2680   -2.6630   -0.3630 hc        1 MHR      0.057200
     31 H16A        2.0630   -2.4630    1.4190 hc        1 MHR      0.057200
     32 H17         1.5660   -4.9280    1.6420 hc        1 MHR      0.037367
     33 H17A        1.7690   -5.1290   -0.1470 hc        1 MHR      0.037367
     34 H17B        3.1810   -4.6360    0.8760 hc        1 MHR      0.037367
     35 N6          3.6740    0.6250   -1.9270 nh        1 MHR     -0.924500
@<TRIPOS>BOND
     1    1    2 ar  
     2    1    3 ar  
     3    1   20 1   
     4    2   14 ar  
     5    2   21 1   
     6    3   15 ar  
     7    3   16 1   
     8    4    8 ar  
     9    4    9 ar  
    10    4   10 1   
    11    5    6 ar  
    12    5    9 ar  
    13    5   35 1   
    14    6    7 ar  
    15    7    8 ar  
    16    7   24 1   
    17    8   25 1   
    18   10   11 2   
    19   10   15 1   
    20   11   12 1   
    21   11   26 1   
    22   12   13 1   
    23   12   27 1   
    24   13   14 ar  
    25   13   15 ar  
    26   16   17 1   
    27   17   18 1   
    28   17   28 1   
    29   17   29 1   
    30   18   19 1   
    31   18   30 1   
    32   18   31 1   
    33   19   32 1   
    34   19   33 1   
    35   19   34 1   
    36   22   35 1   
    37   23   35 1   
@<TRIPOS>SUBSTRUCTURE
     1 MHR         1 TEMP              0 ****  ****    0 ROOT
