@<TRIPOS>MOLECULE
MHS
   22    22     1     0     0
SMALL
bcc


@<TRIPOS>ATOM
      1 N          -1.7480    0.8230   -1.4450 n3        1 MHS     -0.881800
      2 CA         -0.4200    0.4130   -1.0080 c3        1 MHS      0.020500
      3 C           0.5890    0.1550   -2.1760 c         1 MHS      0.884600
      4 O           0.1880    0.3080   -3.3620 o         1 MHS     -0.841300
      5 CB         -0.4490   -0.8260   -0.0970 c3        1 MHS     -0.000100
      6 CG         -0.2890   -0.4970    1.3350 cc        1 MHS     -0.153900
      7 ND1         0.8930   -0.0350    1.9300 na        1 MHS     -0.180900
      8 CD2        -1.2280   -0.6040    2.3890 cd        1 MHS      0.249200
      9 CE1         0.6230    0.1190    3.2970 cc        1 MHS      0.341400
     10 NE2        -0.6520   -0.2200    3.5960 nd        1 MHS     -0.691000
     11 CM          2.1320    0.2420    1.2810 c3        1 MHS     -0.017400
     12 OXT         1.7700   -0.1740   -1.8600 o         1 MHS     -0.841300
     13 H          -2.1730    0.0550   -1.9340 hn        1 MHS      0.331800
     14 H2         -1.6250    1.5540   -2.1260 hn        1 MHS      0.331800
     15 HA          0.0030    1.2830   -0.4250 h1        1 MHS      0.048700
     16 HB2         0.3900   -1.5090   -0.4140 hc        1 MHS      0.060200
     17 HB3        -1.4100   -1.3950   -0.2110 hc        1 MHS      0.060200
     18 HD2        -2.2660   -0.9190    2.3210 h4        1 MHS      0.028100
     19 HE1         1.3750    0.4740    4.0040 h5        1 MHS      0.040100
     20 HM1         2.9320   -0.4330    1.6850 h1        1 MHS      0.070700
     21 HM2         2.0320    0.0790    0.1620 h1        1 MHS      0.070700
     22 HM3         2.4300    1.3080    1.4720 h1        1 MHS      0.070700
@<TRIPOS>BOND
     1    1    2 1   
     2    1   13 1   
     3    1   14 1   
     4    2    3 1   
     5    2    5 1   
     6    2   15 1   
     7    3    4 1   
     8    3   12 1   
     9    5    6 1   
    10    5   16 1   
    11    5   17 1   
    12    6    7 1   
    13    6    8 2   
    14    7    9 1   
    15    7   11 1   
    16    8   10 1   
    17    8   18 1   
    18    9   10 2   
    19    9   19 1   
    20   11   20 1   
    21   11   21 1   
    22   11   22 1   
@<TRIPOS>SUBSTRUCTURE
     1 MHS         1 TEMP              0 ****  ****    0 ROOT
