@<TRIPOS>MOLECULE
MHT
   25    26     1     0     0
SMALL
bcc


@<TRIPOS>ATOM
      1 N1         -0.1170    0.0970   -0.1080 n3        1 MHT     -0.658600
      2 C2          1.3520    0.1470   -0.1100 c3        1 MHT      0.138800
      3 C3          1.9540    0.0580    1.3080 c3        1 MHT     -0.025600
      4 S3          3.0130    1.4310    1.7010 ss        1 MHT     -0.292200
      5 C4          0.8060    0.0320    2.3210 c3        1 MHT     -0.050700
      6 C5         -0.0720    1.2660    2.1060 c3        1 MHT     -0.107900
      7 C6         -0.6170    1.2450    0.6660 c3        1 MHT      0.132800
      8 C7         -0.5390   -1.1370    0.5740 c3        1 MHT      0.132800
      9 C8         -0.0370   -1.2120    2.0280 c3        1 MHT     -0.107900
     10 CM          4.5190    0.9820    0.9260 c3        1 MHT     -0.043000
     11 H2          1.7280   -0.7090   -0.7350 h1        1 MHT      0.063200
     12 H2A         1.6710    1.1070   -0.6010 h1        1 MHT      0.063200
     13 H3          2.5500   -0.8850    1.3990 h1        1 MHT      0.068700
     14 H4          1.2040    0.0060    3.3660 hc        1 MHT      0.072700
     15 H5         -0.9150    1.2620    2.8400 hc        1 MHT      0.051200
     16 H5A         0.5320    2.1930    2.2770 hc        1 MHT      0.051200
     17 H6         -0.3180    2.1840    0.1270 h1        1 MHT      0.055700
     18 H6A        -1.7390    1.1950    0.6780 h1        1 MHT      0.055700
     19 H7         -0.1490   -2.0120   -0.0130 h1        1 MHT      0.055700
     20 H7A        -1.6610   -1.1800    0.5510 h1        1 MHT      0.055700
     21 H8          0.5750   -2.1350    2.1800 hc        1 MHT      0.051200
     22 H8A        -0.9020   -1.2540    2.7350 hc        1 MHT      0.051200
     23 HM          4.9200    0.0210    1.3180 h1        1 MHT      0.062033
     24 HMA         4.4080    0.8960   -0.1780 h1        1 MHT      0.062033
     25 HMB         5.2400    1.8000    1.1570 h1        1 MHT      0.062033
@<TRIPOS>BOND
     1    1    2 1   
     2    1    7 1   
     3    1    8 1   
     4    2    3 1   
     5    2   11 1   
     6    2   12 1   
     7    3    4 1   
     8    3    5 1   
     9    3   13 1   
    10    4   10 1   
    11    5    6 1   
    12    5    9 1   
    13    5   14 1   
    14    6    7 1   
    15    6   15 1   
    16    6   16 1   
    17    7   17 1   
    18    7   18 1   
    19    8    9 1   
    20    8   19 1   
    21    8   20 1   
    22    9   21 1   
    23    9   22 1   
    24   10   23 1   
    25   10   24 1   
    26   10   25 1   
@<TRIPOS>SUBSTRUCTURE
     1 MHT         1 TEMP              0 ****  ****    0 ROOT
