@<TRIPOS>MOLECULE
MHT
   25    26     1     0     0
SMALL
bcc


@<TRIPOS>ATOM
      1 N1         -0.1280    0.0830   -0.0950 n3        1 MHT     -0.658600
      2 C2          1.3410    0.1470   -0.1110 c3        1 MHT      0.138800
      3 C3          1.9580    0.0660    1.3000 c3        1 MHT     -0.025600
      4 S3          3.0070    1.4490    1.6820 ss        1 MHT     -0.292200
      5 C4          0.8210    0.0300    2.3250 c3        1 MHT     -0.050700
      6 C5         -0.0720    1.2560    2.1180 c3        1 MHT     -0.107900
      7 C6         -0.6310    1.2270    0.6830 c3        1 MHT      0.132800
      8 C7         -0.5310   -1.1540    0.5930 c3        1 MHT      0.132800
      9 C8         -0.0130   -1.2220    2.0420 c3        1 MHT     -0.107900
     10 CM          4.5070    1.0180    0.8860 c3        1 MHT     -0.043000
     11 H2          1.7180   -0.7050   -0.7390 h1        1 MHT      0.063200
     12 H2A         1.6460    1.1100   -0.6060 h1        1 MHT      0.063200
     13 H3          2.5640   -0.8710    1.3860 h1        1 MHT      0.068700
     14 H4          1.2290    0.0090    3.3670 hc        1 MHT      0.072700
     15 H5          0.5250    2.1890    2.2810 hc        1 MHT      0.051200
     16 H5A        -0.9080    1.2440    2.8600 hc        1 MHT      0.051200
     17 H6         -1.7520    1.1670    0.7060 h1        1 MHT      0.055700
     18 H6A        -0.3460    2.1680    0.1400 h1        1 MHT      0.055700
     19 H7         -0.1380   -2.0260    0.0030 h1        1 MHT      0.055700
     20 H7A        -1.6530   -1.2080    0.5820 h1        1 MHT      0.055700
     21 H8          0.6090   -2.1400    2.1890 hc        1 MHT      0.051200
     22 H8A        -0.8710   -1.2710    2.7580 hc        1 MHT      0.051200
     23 HM          4.3820    0.9320   -0.2170 h1        1 MHT      0.062033
     24 HMA         4.9240    0.0610    1.2710 h1        1 MHT      0.062033
     25 HMB         5.2230    1.8420    1.1080 h1        1 MHT      0.062033
@<TRIPOS>BOND
     1    1    2 1   
     2    1    7 1   
     3    1    8 1   
     4    2    3 1   
     5    2   11 1   
     6    2   12 1   
     7    3    4 1   
     8    3    5 1   
     9    3   13 1   
    10    4   10 1   
    11    5    6 1   
    12    5    9 1   
    13    5   14 1   
    14    6    7 1   
    15    6   15 1   
    16    6   16 1   
    17    7   17 1   
    18    7   18 1   
    19    8    9 1   
    20    8   19 1   
    21    8   20 1   
    22    9   21 1   
    23    9   22 1   
    24   10   23 1   
    25   10   24 1   
    26   10   25 1   
@<TRIPOS>SUBSTRUCTURE
     1 MHT         1 TEMP              0 ****  ****    0 ROOT
