@<TRIPOS>MOLECULE
MHT
   25    26     1     0     0
SMALL
bcc


@<TRIPOS>ATOM
      1 N1         -0.1420    0.0420   -0.0780 n3        1 MHT     -0.658600
      2 C2          1.3250    0.1280   -0.1150 c3        1 MHT      0.138800
      3 C3          1.9610    0.0830    1.2900 c3        1 MHT     -0.025600
      4 S3          2.9930    1.4890    1.6320 ss        1 MHT     -0.292200
      5 C4          0.8380    0.0490    2.3300 c3        1 MHT     -0.050700
      6 C5         -0.0760    1.2570    2.1110 c3        1 MHT     -0.107900
      7 C6         -0.6530    1.1920    0.6850 c3        1 MHT      0.132800
      8 C7         -0.5170   -1.1880    0.6380 c3        1 MHT      0.132800
      9 C8          0.0200   -1.2210    2.0820 c3        1 MHT     -0.107900
     10 CM          4.4930    1.0610    0.8340 c3        1 MHT     -0.043000
     11 H2          1.7080   -0.7300   -0.7310 h1        1 MHT      0.063200
     12 H2A         1.6090    1.0860   -0.6310 h1        1 MHT      0.063200
     13 H3          2.5830   -0.8430    1.3860 h1        1 MHT      0.068700
     14 H4          1.2600    0.0540    3.3660 hc        1 MHT      0.072700
     15 H5         -0.9020    1.2460    2.8650 hc        1 MHT      0.051200
     16 H5A         0.5080    2.2020    2.2500 hc        1 MHT      0.051200
     17 H6         -0.3900    2.1280    0.1210 h1        1 MHT      0.055700
     18 H6A        -1.7730    1.1150    0.7240 h1        1 MHT      0.055700
     19 H7         -0.1180   -2.0640    0.0590 h1        1 MHT      0.055700
     20 H7A        -1.6380   -1.2600    0.6420 h1        1 MHT      0.055700
     21 H8          0.6580   -2.1260    2.2370 hc        1 MHT      0.051200
     22 H8A        -0.8280   -1.2700    2.8090 hc        1 MHT      0.051200
     23 HM          4.9270    0.1190    1.2380 h1        1 MHT      0.062033
     24 HMA         4.3620    0.9490   -0.2650 h1        1 MHT      0.062033
     25 HMB         5.1990    1.9010    1.0320 h1        1 MHT      0.062033
@<TRIPOS>BOND
     1    1    2 1   
     2    1    7 1   
     3    1    8 1   
     4    2    3 1   
     5    2   11 1   
     6    2   12 1   
     7    3    4 1   
     8    3    5 1   
     9    3   13 1   
    10    4   10 1   
    11    5    6 1   
    12    5    9 1   
    13    5   14 1   
    14    6    7 1   
    15    6   15 1   
    16    6   16 1   
    17    7   17 1   
    18    7   18 1   
    19    8    9 1   
    20    8   19 1   
    21    8   20 1   
    22    9   21 1   
    23    9   22 1   
    24   10   23 1   
    25   10   24 1   
    26   10   25 1   
@<TRIPOS>SUBSTRUCTURE
     1 MHT         1 TEMP              0 ****  ****    0 ROOT
