@<TRIPOS>MOLECULE
MHT
   25    26     1     0     0
SMALL
bcc


@<TRIPOS>ATOM
      1 N1          1.5030   -1.0140   -0.7690 n3        1 MHT     -0.658600
      2 C2          0.1150   -1.3120   -0.3870 c3        1 MHT      0.138800
      3 C3         -0.5040   -0.2230    0.5150 c3        1 MHT     -0.025600
      4 C4          0.5130    0.9110    0.6720 c3        1 MHT     -0.050700
      5 C5          0.9080    1.4190   -0.7160 c3        1 MHT     -0.107900
      6 C6          1.5130    0.2530   -1.5190 c3        1 MHT      0.132800
      7 C7          2.2920   -0.8270    0.4600 c3        1 MHT      0.132800
      8 C8          1.7600    0.3210    1.3380 c3        1 MHT     -0.107900
      9 S3         -2.0030    0.4630   -0.1500 ss        1 MHT     -0.292200
     10 CM         -3.2010   -0.7320    0.3060 c3        1 MHT     -0.043000
     11 H21        -0.4940   -1.4190   -1.3270 h1        1 MHT      0.063200
     12 H22         0.1060   -2.2980    0.1500 h1        1 MHT      0.063200
     13 H3         -0.7300   -0.6600    1.5200 h1        1 MHT      0.068700
     14 H4          0.0870    1.7400    1.2910 hc        1 MHT      0.072700
     15 H51         0.0040    1.8220   -1.2410 hc        1 MHT      0.051200
     16 H52         1.6510    2.2490   -0.6180 hc        1 MHT      0.051200
     17 H61         2.5770    0.4850   -1.7960 h1        1 MHT      0.055700
     18 H62         0.9340    0.0980   -2.4700 h1        1 MHT      0.055700
     19 H71         2.2750   -1.7920    1.0350 h1        1 MHT      0.055700
     20 H72         3.3550   -0.6230    0.1610 h1        1 MHT      0.055700
     21 H81         2.5380    1.1160    1.4490 hc        1 MHT      0.051200
     22 H82         1.5070   -0.0570    2.3590 hc        1 MHT      0.051200
     23 H1M        -3.2580   -0.8650    1.4090 h1        1 MHT      0.062033
     24 H2M        -4.1790   -0.3460   -0.0650 h1        1 MHT      0.062033
     25 H3M        -3.0000   -1.7210   -0.1610 h1        1 MHT      0.062033
@<TRIPOS>BOND
     1    1    2 1   
     2    1    6 1   
     3    1    7 1   
     4    2    3 1   
     5    2   11 1   
     6    2   12 1   
     7    3    4 1   
     8    3    9 1   
     9    3   13 1   
    10    4    5 1   
    11    4    8 1   
    12    4   14 1   
    13    5    6 1   
    14    5   15 1   
    15    5   16 1   
    16    6   17 1   
    17    6   18 1   
    18    7    8 1   
    19    7   19 1   
    20    7   20 1   
    21    8   21 1   
    22    8   22 1   
    23    9   10 1   
    24   10   23 1   
    25   10   24 1   
    26   10   25 1   
@<TRIPOS>SUBSTRUCTURE
     1 MHT         1 TEMP              0 ****  ****    0 ROOT
