@<TRIPOS>MOLECULE
MHT
   25    26     1     0     0
SMALL
bcc


@<TRIPOS>ATOM
      1 N1         -1.2830    0.3170   -1.3870 n3        1 MHT     -0.658600
      2 C2          0.1630    0.3170   -1.3870 c3        1 MHT      0.138800
      3 C3          0.7670    0.3170   -0.0580 c3        1 MHT     -0.025600
      4 C4         -0.2040    0.3200    1.0430 c3        1 MHT     -0.050700
      5 C5         -1.3150    1.2220    0.8960 c3        1 MHT     -0.107900
      6 C6         -1.9100    1.2310   -0.4350 c3        1 MHT      0.132800
      7 C7         -1.6300   -1.1160   -0.7690 c3        1 MHT      0.132800
      8 C8         -0.8590   -1.0820    0.9500 c3        1 MHT     -0.107900
      9 S3          1.8440   -1.2190    0.1040 ss        1 MHT     -0.292200
     10 CM          3.5610   -0.7380    0.1640 c3        1 MHT     -0.043000
     11 H21         0.4720    1.1090   -1.8660 h1        1 MHT      0.063200
     12 H22         0.4720   -0.4750   -1.8660 h1        1 MHT      0.063200
     13 H3          1.3350    1.1070    0.0260 h1        1 MHT      0.068700
     14 H4          0.2390    0.4410    1.9050 hc        1 MHT      0.072700
     15 H51        -1.0090    2.1250    1.1040 hc        1 MHT      0.051200
     16 H52        -2.0040    0.9720    1.5410 hc        1 MHT      0.051200
     17 H61        -2.8530    0.9910   -0.3520 h1        1 MHT      0.055700
     18 H62        -1.8520    2.1370   -0.7930 h1        1 MHT      0.055700
     19 H71        -2.5970   -1.2350   -0.7070 h1        1 MHT      0.055700
     20 H72        -1.2310   -1.8250   -1.3080 h1        1 MHT      0.055700
     21 H81        -0.1840   -1.7820    1.0350 hc        1 MHT      0.051200
     22 H82        -1.5470   -1.1840    1.6350 hc        1 MHT      0.051200
     23 H1M         4.1170   -1.5320    0.2750 h1        1 MHT      0.062033
     24 H2M         3.8010   -0.2860   -0.6670 h1        1 MHT      0.062033
     25 H3M         3.7030   -0.1320    0.9160 h1        1 MHT      0.062033
@<TRIPOS>BOND
     1    1    2 1   
     2    1    6 1   
     3    1    7 1   
     4    2    3 1   
     5    2   11 1   
     6    2   12 1   
     7    3    4 1   
     8    3    9 1   
     9    3   13 1   
    10    4    5 1   
    11    4    8 1   
    12    4   14 1   
    13    5    6 1   
    14    5   15 1   
    15    5   16 1   
    16    6   17 1   
    17    6   18 1   
    18    7    8 1   
    19    7   19 1   
    20    7   20 1   
    21    8   21 1   
    22    8   22 1   
    23    9   10 1   
    24   10   23 1   
    25   10   24 1   
    26   10   25 1   
@<TRIPOS>SUBSTRUCTURE
     1 MHT         1 TEMP              0 ****  ****    0 ROOT
