@<TRIPOS>MOLECULE
MHU
   33    33     1     0     0
SMALL
bcc


@<TRIPOS>ATOM
      1 N           2.2220    1.5200   -0.0390 n3        1 MHU     -0.810200
      2 CA          2.3120    0.0900    0.2540 c3        1 MHU      0.032500
      3 C           3.7530   -0.5120    0.1080 c         1 MHU      0.891600
      4 O           4.6320    0.1710   -0.4890 o         1 MHU     -0.839300
      5 CB          1.3910   -0.7370   -0.6550 c3        1 MHU     -0.027100
      6 CG         -0.0530   -0.5450   -0.3580 ca        1 MHU     -0.048300
      7 CD1        -0.7550    0.5510   -0.8720 ca        1 MHU     -0.115000
      8 CE1        -2.1120    0.7180   -0.6160 ca        1 MHU     -0.161000
      9 CZ         -2.8130   -0.2100    0.1800 ca        1 MHU      0.076600
     10 CE2        -2.1010   -1.3090    0.7060 ca        1 MHU     -0.161000
     11 CD2        -0.7460   -1.4660    0.4360 ca        1 MHU     -0.115000
     12 NZ         -4.1950   -0.0560    0.5190 nh        1 MHU     -0.632000
     13 CZ1        -4.7280    1.2750    0.3590 c3        1 MHU      0.172100
     14 CZ2        -5.0530   -1.0810   -0.0310 c3        1 MHU      0.172100
     15 CM          2.6310    2.3450    1.0710 c3        1 MHU      0.158100
     16 OXT         3.9440   -1.6570    0.6020 o         1 MHU     -0.839300
     17 H           2.8380    1.7010   -0.8190 hn        1 MHU      0.360800
     18 HA          1.9900   -0.0840    1.3210 h1        1 MHU      0.045700
     19 HM1         2.5920    3.4200    0.7520 h1        1 MHU      0.014033
     20 HM2         1.9140    2.2000    1.9230 h1        1 MHU      0.014033
     21 HM3         3.6680    2.1220    1.4440 h1        1 MHU      0.014033
     22 HB1         1.5900   -0.4800   -1.7300 hc        1 MHU      0.056200
     23 HB2         1.6750   -1.8140   -0.5030 hc        1 MHU      0.056200
     24 HD1        -0.2150    1.2980   -1.4740 ha        1 MHU      0.140500
     25 HD2        -0.2040   -2.3250    0.8620 ha        1 MHU      0.140500
     26 HE1        -2.6270    1.5930   -1.0400 ha        1 MHU      0.119000
     27 HE2        -2.6140   -2.0460    1.3420 ha        1 MHU      0.119000
     28 H11        -4.8910    1.5690   -0.7150 h1        1 MHU      0.027200
     29 H12        -5.7180    1.3210    0.8870 h1        1 MHU      0.027200
     30 H13        -4.0290    2.0130    0.8310 h1        1 MHU      0.027200
     31 H21        -4.5870   -2.0870    0.1370 h1        1 MHU      0.027200
     32 H22        -6.0390   -1.0420    0.5040 h1        1 MHU      0.027200
     33 H23        -5.2440   -0.9550   -1.1320 h1        1 MHU      0.027200
@<TRIPOS>BOND
     1    1    2 1   
     2    1   15 1   
     3    1   17 1   
     4    2    3 1   
     5    2    5 1   
     6    2   18 1   
     7    3    4 1   
     8    3   16 1   
     9    5    6 1   
    10    5   22 1   
    11    5   23 1   
    12    6    7 ar  
    13    6   11 ar  
    14    7    8 ar  
    15    7   24 1   
    16    8    9 ar  
    17    8   26 1   
    18    9   10 ar  
    19    9   12 1   
    20   10   11 ar  
    21   10   27 1   
    22   11   25 1   
    23   12   13 1   
    24   12   14 1   
    25   13   28 1   
    26   13   29 1   
    27   13   30 1   
    28   14   31 1   
    29   14   32 1   
    30   14   33 1   
    31   15   19 1   
    32   15   20 1   
    33   15   21 1   
@<TRIPOS>SUBSTRUCTURE
     1 MHU         1 TEMP              0 ****  ****    0 ROOT
