@<TRIPOS>MOLECULE
MHV
   18    18     1     0     0
SMALL
bcc


@<TRIPOS>ATOM
      1 N          -0.0660    1.4300    0.0650 n3        1 MHV     -0.811200
      2 CA         -0.5210    0.1030   -0.3300 c3        1 MHV      0.043500
      3 C          -2.0370   -0.1040    0.0140 c         1 MHV      0.929600
      4 O          -2.8340    0.7710   -0.4230 o         1 MHV     -0.832800
      5 CB          0.3420   -0.9900    0.3010 c3        1 MHV     -0.155400
      6 CG          1.8030   -0.7430    0.0860 c         1 MHV      0.574100
      7 OD1         2.6110   -1.6510   -0.1620 o         1 MHV     -0.592100
      8 CD2         2.2770    0.6810    0.2190 c3        1 MHV     -0.181400
      9 CE          1.2880    1.6880   -0.3720 c3        1 MHV      0.177800
     10 OXT        -2.3600   -1.1370    0.6570 o         1 MHV     -0.832800
     11 H          -0.7090    2.1180   -0.2810 hn        1 MHV      0.385800
     12 HA         -0.4490   -0.0220   -1.4560 h1        1 MHV      0.001700
     13 HE1         1.4010    1.6650   -1.4980 h1        1 MHV      0.008200
     14 HE2         1.5770    2.7210   -0.0310 h1        1 MHV      0.008200
     15 HB1         0.1370   -1.0290    1.4050 hc        1 MHV      0.084700
     16 HB2         0.0350   -1.9790   -0.1250 hc        1 MHV      0.084700
     17 HD1         2.4100    0.8850    1.3150 hc        1 MHV      0.053700
     18 HD2         3.2730    0.8060   -0.2790 hc        1 MHV      0.053700
@<TRIPOS>BOND
     1    1    2 1   
     2    1    9 1   
     3    1   11 1   
     4    2    3 1   
     5    2    5 1   
     6    2   12 1   
     7    3    4 1   
     8    3   10 1   
     9    5    6 1   
    10    5   15 1   
    11    5   16 1   
    12    6    7 2   
    13    6    8 1   
    14    8    9 1   
    15    8   17 1   
    16    8   18 1   
    17    9   13 1   
    18    9   14 1   
@<TRIPOS>SUBSTRUCTURE
     1 MHV         1 TEMP              0 ****  ****    0 ROOT
