@<TRIPOS>MOLECULE
MHW
   14    14     1     0     0
SMALL
bcc


@<TRIPOS>ATOM
      1 N           0.4910    1.4570   -0.1270 nb        1 MHW     -0.620000
      2 CA         -0.1190    0.2600   -0.0920 ca        1 MHW      0.304800
      3 C          -1.6580    0.1710   -0.1220 c         1 MHW      0.820100
      4 O          -2.1400   -0.7810   -0.8090 o         1 MHW     -0.811800
      5 CB          0.6370   -0.9550   -0.0260 ca        1 MHW      0.047800
      6 OG1         0.0770   -2.2020   -0.0160 oh        1 MHW     -0.542100
      7 CG2         2.0370   -0.8990    0.0460 ca        1 MHW     -0.176000
      8 CD          2.6510    0.3540    0.0250 ca        1 MHW     -0.244300
      9 CE          1.8410    1.4920   -0.0720 ca        1 MHW      0.324200
     10 OXT        -2.3340    0.9850    0.5480 o         1 MHW     -0.811800
     11 HE          2.2870    2.5000   -0.1050 h4        1 MHW     -0.006900
     12 HG1        -0.8770   -2.1190   -0.2270 ho        1 MHW      0.478000
     13 HG2         2.6230   -1.8240    0.1110 ha        1 MHW      0.125000
     14 HD          3.7420    0.4440    0.0790 ha        1 MHW      0.112000
@<TRIPOS>BOND
     1    1    2 ar  
     2    1    9 ar  
     3    2    3 1   
     4    2    5 ar  
     5    3    4 1   
     6    3   10 1   
     7    5    6 1   
     8    5    7 ar  
     9    6   12 1   
    10    7    8 ar  
    11    7   13 1   
    12    8    9 ar  
    13    8   14 1   
    14    9   11 1   
@<TRIPOS>SUBSTRUCTURE
     1 MHW         1 TEMP              0 ****  ****    0 ROOT
