@<TRIPOS>MOLECULE
MHZ
   49    51     1     0     0
SMALL
bcc


@<TRIPOS>ATOM
      1 N           3.7330    0.7910   -6.6100 n3        1 MHZ     -0.674600
      2 NA          2.8690   -0.0840   -5.9700 n3        1 MHZ     -0.608000
      3 CB          1.7180    0.5580   -5.3140 c3        1 MHZ      0.139800
      4 CC          1.0100   -0.3920   -4.3510 c3        1 MHZ     -0.084400
      5 CG         -0.2370    0.3030   -3.8040 c3        1 MHZ      0.169800
      6 ND         -0.9150   -0.4690   -2.7680 n3        1 MHZ     -0.737600
      7 CE         -1.6490   -1.6010   -3.2840 c3        1 MHZ      0.148100
      8 C5'        -1.6910    0.3960   -1.8920 c3        1 MHZ      0.154800
      9 C4'        -2.5980   -0.3240   -0.8850 c3        1 MHZ      0.092100
     10 O4'        -1.8710   -1.2910   -0.1140 os        1 MHZ     -0.394600
     11 C1'        -1.6040   -0.8030    1.2010 c3        1 MHZ      0.225800
     12 N9         -0.2070   -0.4640    1.3500 na        1 MHZ     -0.294000
     13 C4          0.3800   -0.0040    2.5390 ca        1 MHZ      0.445800
     14 N3         -0.1780    0.3100    3.7480 nb        1 MHZ     -0.760000
     15 C2          0.7440    0.7210    4.6500 ca        1 MHZ      0.687900
     16 N1          2.0900    0.8640    4.5260 nb        1 MHZ     -0.796000
     17 C6          2.6550    0.5590    3.3080 ca        1 MHZ      0.762200
     18 N6          3.9990    0.7110    3.0970 nh        1 MHZ     -0.957500
     19 C5          1.8040    0.0980    2.2480 ca        1 MHZ     -0.226200
     20 N7          2.0520   -0.2990    0.9250 nc        1 MHZ     -0.555100
     21 C8          0.8530   -0.6290    0.4240 cd        1 MHZ      0.430700
     22 C2'        -2.5700    0.4020    1.4620 c3        1 MHZ      0.081100
     23 O2'        -3.5750   -0.0040    2.3650 oh        1 MHZ     -0.594800
     24 C3'        -3.2280    0.6940    0.0950 c3        1 MHZ      0.128100
     25 O3'        -4.6300    0.5990    0.1040 oh        1 MHZ     -0.575800
     26 HN1         4.2390    0.2300   -7.2870 hn        1 MHZ      0.344800
     27 HN2         3.1840    1.4530   -7.1450 hn        1 MHZ      0.344800
     28 HNA1        3.4200   -0.5360   -5.2440 hn        1 MHZ      0.360800
     29 HB1         1.0000    0.8600   -6.1280 h1        1 MHZ      0.037700
     30 HB2         1.9990    1.4950   -4.7490 h1        1 MHZ      0.037700
     31 HCC1        1.6950   -0.6690   -3.5070 hc        1 MHZ      0.057200
     32 HCC2        0.7290   -1.3380   -4.8830 hc        1 MHZ      0.057200
     33 HG1        -0.9300    0.5300   -4.6670 h1        1 MHZ      0.033200
     34 HG2         0.0810    1.2910   -3.3620 h1        1 MHZ      0.033200
     35 HE1        -1.9030   -2.2790   -2.4270 h1        1 MHZ      0.037700
     36 HE2        -2.5980   -1.3110   -3.8130 h1        1 MHZ      0.037700
     37 HE3        -1.0010   -2.1660   -4.0040 h1        1 MHZ      0.037700
     38 H5'1       -0.9460    1.0180   -1.3170 h1        1 MHZ      0.042200
     39 H5'2       -2.3590    1.0970   -2.4760 h1        1 MHZ      0.042200
     40 H4'        -3.3970   -0.9160   -1.4110 h1        1 MHZ      0.091700
     41 H1'        -1.8420   -1.6640    1.8970 h2        1 MHZ      0.103700
     42 H2          0.3440    0.9830    5.6540 h5        1 MHZ      0.050100
     43 HN61        4.6010    0.9660    3.8390 hn        1 MHZ      0.448800
     44 HN62        4.3820    0.4100    2.2350 hn        1 MHZ      0.448800
     45 H8          0.6490   -0.9920   -0.5960 h5        1 MHZ      0.104800
     46 H2'        -2.0320    1.3080    1.8460 h1        1 MHZ      0.084700
     47 HO2'       -3.1900    0.0450    3.2510 ho        1 MHZ      0.434000
     48 H3'        -3.0190    1.7520   -0.2250 h1        1 MHZ      0.093700
     49 HO3'       -4.8790   -0.1860    0.6120 ho        1 MHZ      0.426000
@<TRIPOS>BOND
     1    1    2 1   
     2    1   26 1   
     3    1   27 1   
     4    2    3 1   
     5    2   28 1   
     6    3    4 1   
     7    3   29 1   
     8    3   30 1   
     9    4    5 1   
    10    4   31 1   
    11    4   32 1   
    12    5    6 1   
    13    5   33 1   
    14    5   34 1   
    15    6    7 1   
    16    6    8 1   
    17    7   35 1   
    18    7   36 1   
    19    7   37 1   
    20    8    9 1   
    21    8   38 1   
    22    8   39 1   
    23    9   10 1   
    24    9   24 1   
    25    9   40 1   
    26   10   11 1   
    27   11   12 1   
    28   11   22 1   
    29   11   41 1   
    30   12   13 1   
    31   12   21 1   
    32   13   14 ar  
    33   13   19 ar  
    34   14   15 ar  
    35   15   16 ar  
    36   15   42 1   
    37   16   17 ar  
    38   17   18 1   
    39   17   19 ar  
    40   18   43 1   
    41   18   44 1   
    42   19   20 1   
    43   20   21 2   
    44   21   45 1   
    45   22   23 1   
    46   22   24 1   
    47   22   46 1   
    48   23   47 1   
    49   24   25 1   
    50   24   48 1   
    51   25   49 1   
@<TRIPOS>SUBSTRUCTURE
     1 MHZ         1 TEMP              0 ****  ****    0 ROOT
