@<TRIPOS>MOLECULE
MHZ
   52    54     1     0     0
SMALL
bcc


@<TRIPOS>ATOM
      1 N           0.0000    0.0000    0.0000 nz        1 MHZ     -0.102400
      2 NA          1.4540    0.0000    0.0000 ny        1 MHZ     -0.173800
      3 CB          1.8780    0.0000    1.4060 c3        1 MHZ      0.017800
      4 CC          3.4050   -0.0010    1.4800 c3        1 MHZ     -0.054400
      5 CG          3.8470    0.0000    2.9430 c3        1 MHZ     -0.015200
      6 ND          5.3140    0.0000    3.0140 nx        1 MHZ      0.042600
      7 CE          5.7620   -1.2870    2.4680 c3        1 MHZ     -0.022900
      8 C5'         5.6690    0.0000    4.4380 c3        1 MHZ     -0.035200
      9 C4'         7.1910    0.0010    4.5860 c3        1 MHZ      0.136100
     10 O4'         7.7400    1.1910    3.9950 os        1 MHZ     -0.445600
     11 C1'         8.8870    1.5630    4.7860 c3        1 MHZ      0.168800
     12 N9          9.2070    2.9790    4.5960 na        1 MHZ      0.211000
     13 C4         10.4470    3.5560    4.7100 ca        1 MHZ      0.241800
     14 N3         11.6670    3.1080    4.9830 nb        1 MHZ     -0.526000
     15 C2         12.6930    3.9320    5.0140 ca        1 MHZ      0.684900
     16 N1         12.5710    5.2250    4.7730 nb        1 MHZ     -0.580000
     17 C6         11.3900    5.7620    4.4850 ca        1 MHZ      0.508200
     18 N6         11.2730    7.1180    4.2340 nv        1 MHZ     -0.251500
     19 C5         10.2650    4.9220    4.4410 ca        1 MHZ     -0.174200
     20 N7          8.9470    5.1080    4.1900 nc        1 MHZ     -0.443100
     21 C8          8.3240    3.9690    4.2810 cd        1 MHZ      0.280700
     22 C2'         8.4280    1.2930    6.2400 c3        1 MHZ      0.138100
     23 O2'         9.5490    1.0530    7.0930 oh        1 MHZ     -0.519800
     24 C3'         7.5740    0.0080    6.0780 c3        1 MHZ      0.146100
     25 O3'         8.3430   -1.1490    6.4100 oh        1 MHZ     -0.527800
     26 HN1        -0.3340    0.8170    0.4720 hn        1 MHZ      0.275800
     27 HN2        -0.3340    0.0010   -0.9440 hn        1 MHZ      0.275800
     28 HNA1        1.7960    0.8200   -0.4610 hn        1 MHZ      0.287300
     29 HB1         1.4920   -0.8840    1.9000 hx        1 MHZ      0.084200
     30 HB2         1.4930    0.8850    1.8990 hx        1 MHZ      0.084200
     31 HCC1        3.7910    0.8830    0.9860 hc        1 MHZ      0.056200
     32 HCC2        3.7900   -0.8860    0.9870 hc        1 MHZ      0.056200
     33 HG1         3.4610    0.8850    3.4360 hx        1 MHZ      0.090200
     34 HG2         3.4620   -0.8840    3.4360 hx        1 MHZ      0.090200
     35 HE1         4.9040   -1.9290    2.3050 hx        1 MHZ      0.087367
     36 HE2         6.4380   -1.7610    3.1700 hx        1 MHZ      0.087367
     37 HE3         6.2740   -1.1230    1.5280 hx        1 MHZ      0.087367
     38 H5'1        5.2610   -0.8850    4.9120 hx        1 MHZ      0.090700
     39 H5'2        5.2600    0.8840    4.9130 hx        1 MHZ      0.090700
     40 H4'         7.6120   -0.8740    4.1050 h1        1 MHZ      0.070700
     41 H1'         9.7370    0.9390    4.5350 h2        1 MHZ      0.097700
     42 H2         13.6890    3.5780    5.2520 h5        1 MHZ      0.038100
     43 HN61       11.7370    7.5230    3.4450 hn        1 MHZ      0.292800
     44 HN62       10.7380    7.6960    4.8510 hn        1 MHZ      0.292800
     45 H8          7.2610    3.8280    4.1260 h5        1 MHZ      0.026800
     46 H2'         7.8220    2.1110    6.6090 h1        1 MHZ      0.027700
     47 HO2'        9.3890    1.4390    7.9390 ho        1 MHZ      0.417000
     48 H3'         6.6850    0.0690    6.6940 h1        1 MHZ      0.022700
     49 HO3'        7.9160   -1.6210    7.1070 ho        1 MHZ      0.419000
     50 HN3        -0.3340   -0.8170    0.4710 hn        1 MHZ      0.275800
     51 HA2         1.7960   -0.8200   -0.4610 hn        1 MHZ      0.287300
     52 HD1         5.7150    0.7770    2.5260 hn        1 MHZ      0.281800
@<TRIPOS>BOND
     1    1    2 1   
     2    1   26 1   
     3    1   27 1   
     4    1   50 1   
     5    2    3 1   
     6    2   28 1   
     7    2   51 1   
     8    3    4 1   
     9    3   29 1   
    10    3   30 1   
    11    4    5 1   
    12    4   31 1   
    13    4   32 1   
    14    5    6 1   
    15    5   33 1   
    16    5   34 1   
    17    6    7 1   
    18    6    8 1   
    19    6   52 1   
    20    7   35 1   
    21    7   36 1   
    22    7   37 1   
    23    8    9 1   
    24    8   38 1   
    25    8   39 1   
    26    9   10 1   
    27    9   24 1   
    28    9   40 1   
    29   10   11 1   
    30   11   12 1   
    31   11   22 1   
    32   11   41 1   
    33   12   13 1   
    34   12   21 1   
    35   13   14 ar  
    36   13   19 ar  
    37   14   15 ar  
    38   15   16 ar  
    39   15   42 1   
    40   16   17 ar  
    41   17   18 1   
    42   17   19 ar  
    43   18   43 1   
    44   18   44 1   
    45   19   20 1   
    46   20   21 2   
    47   21   45 1   
    48   22   23 1   
    49   22   24 1   
    50   22   46 1   
    51   23   47 1   
    52   24   25 1   
    53   24   48 1   
    54   25   49 1   
@<TRIPOS>SUBSTRUCTURE
     1 MHZ         1 TEMP              0 ****  ****    0 ROOT
