@<TRIPOS>MOLECULE
MHZ
   53    55     1     0     0
SMALL
bcc


@<TRIPOS>ATOM
      1 N          -0.1260   -0.9690   -0.3210 n4        1 MHZ     -0.667400
      2 NA          1.2570   -0.6140   -0.2290 n4        1 MHZ     -0.610800
      3 CB          1.7970   -0.4350    1.2090 c3        1 MHZ      0.118800
      4 CC          3.2890   -0.0850    1.1920 c3        1 MHZ     -0.139400
      5 CG          3.7680    0.0120    2.6520 c3        1 MHZ      0.108800
      6 ND          5.2230    0.3270    2.8350 n4        1 MHZ     -0.678400
      7 CE          6.0910   -0.7930    2.3810 c3        1 MHZ      0.068100
      8 C5'         5.4560    0.6820    4.2930 c3        1 MHZ      0.117800
      9 C4'         6.8890    0.5230    4.7870 c3        1 MHZ      0.069100
     10 O4'         7.7470    1.4910    4.1870 os        1 MHZ     -0.449600
     11 C1'         8.8740    1.7240    5.0990 c3        1 MHZ      0.234800
     12 N9          9.2860    3.0970    5.0500 na        1 MHZ     -0.287000
     13 C4         10.5230    3.5430    4.5340 ca        1 MHZ      0.464800
     14 N3         11.4940    2.9010    3.8400 nb        1 MHZ     -0.636000
     15 C2         12.5650    3.6820    3.5390 ca        1 MHZ      0.702900
     16 N1         12.7690    4.9970    3.8520 nb        1 MHZ     -0.652000
     17 C6         11.7940    5.6300    4.5460 ca        1 MHZ      0.559200
     18 N6         11.9930    7.0380    4.9370 n4        1 MHZ     -0.822300
     19 C5         10.6070    4.9650    4.9190 ca        1 MHZ     -0.144200
     20 N7          9.4490    5.3390    5.6190 nc        1 MHZ     -0.533100
     21 C8          8.7030    4.2280    5.6860 cd        1 MHZ      0.481700
     22 C2'         8.4210    1.2180    6.5190 c3        1 MHZ      0.086100
     23 O2'         9.1960    0.0790    6.8110 oh        1 MHZ     -0.587800
     24 C3'         6.9600    0.7510    6.3240 c3        1 MHZ      0.130100
     25 O3'         6.5890   -0.4120    6.9990 oh        1 MHZ     -0.572800
     26 HN1        -0.3070   -1.8830    0.1690 hn        1 MHZ      0.552800
     27 HN2        -0.4160   -1.0710   -1.3320 hn        1 MHZ      0.552800
     28 HNA1        1.8250   -1.3600   -0.7060 hn        1 MHZ      0.532800
     29 HB1         1.6280   -1.4080    1.7620 hx        1 MHZ      0.151700
     30 HB2         1.2020    0.3970    1.6960 hx        1 MHZ      0.151700
     31 HCC1        3.8730   -0.8790    0.6500 hc        1 MHZ      0.110700
     32 HCC2        3.4620    0.8970    0.6700 hc        1 MHZ      0.110700
     33 HG1         3.5740   -0.9710    3.1780 hx        1 MHZ      0.125200
     34 HG2         3.1800    0.8250    3.1770 hx        1 MHZ      0.125200
     35 HE1         5.9570   -1.6830    3.0540 hx        1 MHZ      0.121367
     36 HE2         7.1690   -0.4560    2.4170 hx        1 MHZ      0.121367
     37 HE3         5.8400   -1.0680    1.3240 hx        1 MHZ      0.121367
     38 H5'1        4.8240   -0.0030    4.9350 hx        1 MHZ      0.124700
     39 H5'2        5.1210    1.7520    4.4210 hx        1 MHZ      0.124700
     40 H4'         7.2930   -0.5070    4.5680 h1        1 MHZ      0.093700
     41 H1'         9.7190    1.0710    4.7110 h2        1 MHZ      0.149700
     42 H2         13.3950    3.1930    2.9690 h5        1 MHZ      0.122100
     43 HN61       11.0990    7.5420    4.8610 hn        1 MHZ      0.491133
     44 HN62       12.3200    7.0690    5.9150 hn        1 MHZ      0.491133
     45 H8          7.7230    4.1690    6.1820 h5        1 MHZ      0.096800
     46 H2'         8.4950    2.0050    7.3110 h1        1 MHZ      0.104700
     47 HO2'        9.7490    0.2640    7.5860 ho        1 MHZ      0.464000
     48 H3'         6.2380    1.5490    6.6510 h1        1 MHZ      0.095700
     49 HO3'        7.3820   -0.9370    7.2120 ho        1 MHZ      0.462000
     50 HN3        -0.7290   -0.2310    0.1240 hn        1 MHZ      0.552800
     51 HA2         1.4060    0.2860   -0.7520 hn        1 MHZ      0.532800
     52 HD1         5.4680    1.1580    2.2760 hn        1 MHZ      0.463800
     53 H63        12.7000    7.4930    4.3360 hn        1 MHZ      0.491133
@<TRIPOS>BOND
     1    1    2 1   
     2    1   26 1   
     3    1   27 1   
     4    1   50 1   
     5    2    3 1   
     6    2   28 1   
     7    2   51 1   
     8    3    4 1   
     9    3   29 1   
    10    3   30 1   
    11    4    5 1   
    12    4   31 1   
    13    4   32 1   
    14    5    6 1   
    15    5   33 1   
    16    5   34 1   
    17    6    7 1   
    18    6    8 1   
    19    6   52 1   
    20    7   35 1   
    21    7   36 1   
    22    7   37 1   
    23    8    9 1   
    24    8   38 1   
    25    8   39 1   
    26    9   10 1   
    27    9   24 1   
    28    9   40 1   
    29   10   11 1   
    30   11   12 1   
    31   11   22 1   
    32   11   41 1   
    33   12   13 1   
    34   12   21 1   
    35   13   14 ar  
    36   13   19 ar  
    37   14   15 ar  
    38   15   16 ar  
    39   15   42 1   
    40   16   17 ar  
    41   17   18 1   
    42   17   19 ar  
    43   18   43 1   
    44   18   44 1   
    45   18   53 1   
    46   19   20 1   
    47   20   21 2   
    48   21   45 1   
    49   22   23 1   
    50   22   24 1   
    51   22   46 1   
    52   23   47 1   
    53   24   25 1   
    54   24   48 1   
    55   25   49 1   
@<TRIPOS>SUBSTRUCTURE
     1 MHZ         1 TEMP              0 ****  ****    0 ROOT
