@<TRIPOS>MOLECULE
MI0
   40    40     1     0     0
SMALL
bcc


@<TRIPOS>ATOM
      1 F1          2.5860   -0.4260    1.7990 f         1 MI0     -0.226800
      2 F2          1.8720   -1.7290    0.2470 f         1 MI0     -0.226800
      3 N1         -0.4980   -0.5650    1.8820 n3        1 MI0     -0.907800
      4 N2          4.6380   -0.0860   -0.0490 n         1 MI0     -0.550900
      5 O1          1.1760    1.7170    1.0650 oh        1 MI0     -0.581800
      6 O2          3.0580    0.3820   -1.6550 o         1 MI0     -0.587100
      7 C1         -0.3780   -0.1180    0.5100 c3        1 MI0      0.134500
      8 C2         -1.4720    0.8400    0.0150 c3        1 MI0     -0.112400
      9 C3         -2.8850    0.3200    0.2160 c3        1 MI0     -0.063700
     10 C4         -3.1280   -0.9680   -0.5580 c3        1 MI0     -0.074900
     11 C5         -3.8810    1.3900   -0.2160 c3        1 MI0     -0.074900
     12 C6         -4.5580   -1.4450   -0.4040 c3        1 MI0     -0.076400
     13 C7         -5.3090    0.9120   -0.0560 c3        1 MI0     -0.076400
     14 C8         -5.5470   -0.3750   -0.8180 c3        1 MI0     -0.077400
     15 C9          0.9850    0.5770    0.2630 c3        1 MI0      0.119100
     16 C10         2.1900   -0.4100    0.4760 c3        1 MI0      0.318600
     17 C11         3.3530    0.0140   -0.5040 c         1 MI0      0.624100
     18 C12         5.7710    0.2930   -0.8350 c3        1 MI0      0.077300
     19 H1         -0.7460    0.1970    2.4830 hn        1 MI0      0.354300
     20 H2          1.2170    1.4340    1.9900 ho        1 MI0      0.417000
     21 H3         -0.3890   -1.0390   -0.1490 h1        1 MI0      0.078700
     22 H4         -1.3590    1.8230    0.5470 hc        1 MI0      0.056200
     23 H5         -1.3020    1.0300   -1.0780 hc        1 MI0      0.056200
     24 H6         -3.0560    0.1140    1.3100 hc        1 MI0      0.040700
     25 H7         -2.9020   -0.7970   -1.6430 hc        1 MI0      0.041950
     26 H8         -2.4320   -1.7660   -0.1890 hc        1 MI0      0.041950
     27 H9         -3.7230    2.3150    0.3960 hc        1 MI0      0.041950
     28 H10        -3.6930    1.6590   -1.2890 hc        1 MI0      0.041950
     29 H11        -4.7130   -2.3620   -1.0290 hc        1 MI0      0.039700
     30 H12        -4.7430   -1.7300    0.6650 hc        1 MI0      0.039700
     31 H13        -5.5290    0.7490    1.0320 hc        1 MI0      0.039700
     32 H14        -6.0110    1.7040   -0.4260 hc        1 MI0      0.039700
     33 H15        -5.4490   -0.1820   -1.9180 hc        1 MI0      0.040200
     34 H16        -6.5910   -0.7360   -0.6300 hc        1 MI0      0.040200
     35 H17         1.0180    0.9580   -0.7990 h1        1 MI0      0.124700
     36 H18         6.5100   -0.5530   -0.8590 h1        1 MI0      0.049700
     37 H19         5.4520    0.5330   -1.8840 h1        1 MI0      0.049700
     38 H20         6.2690    1.1960   -0.3890 h1        1 MI0      0.049700
     39 H21         4.7950   -0.3560    0.8940 hn        1 MI0      0.326500
     40 H22        -1.1960   -1.2780    1.9550 hn        1 MI0      0.354300
@<TRIPOS>BOND
     1    1   16 1   
     2    2   16 1   
     3    3    7 1   
     4    3   19 1   
     5    3   40 1   
     6    4   17 1   
     7    4   18 1   
     8    4   39 1   
     9    5   15 1   
    10    5   20 1   
    11    6   17 2   
    12    7    8 1   
    13    7   15 1   
    14    7   21 1   
    15    8    9 1   
    16    8   22 1   
    17    8   23 1   
    18    9   10 1   
    19    9   11 1   
    20    9   24 1   
    21   10   12 1   
    22   10   25 1   
    23   10   26 1   
    24   11   13 1   
    25   11   27 1   
    26   11   28 1   
    27   12   14 1   
    28   12   29 1   
    29   12   30 1   
    30   13   14 1   
    31   13   31 1   
    32   13   32 1   
    33   14   33 1   
    34   14   34 1   
    35   15   16 1   
    36   15   35 1   
    37   16   17 1   
    38   18   36 1   
    39   18   37 1   
    40   18   38 1   
@<TRIPOS>SUBSTRUCTURE
     1 MI0         1 TEMP              0 ****  ****    0 ROOT
