@<TRIPOS>MOLECULE
MI1
   43    43     1     0     0
SMALL
bcc


@<TRIPOS>ATOM
      1 C1         -0.4690    0.8580    0.7430 c3        1 MI1      0.141000
      2 C2          0.8400    0.4440    1.2940 c2        1 MI1     -0.721000
      3 C4          1.9560    0.3780    5.4140 c1        1 MI1     -0.234500
      4 C5          1.4810    0.8730    4.4340 c1        1 MI1     -0.234500
      5 C6         -0.6370    2.3770    0.9350 c3        1 MI1     -0.158000
      6 N3          1.0320   -0.8490    1.8080 n4        1 MI1      0.114000
      7 O21         0.9880   -2.9220    0.6650 o         1 MI1     -0.241000
      8 C20         1.5920   -1.8650    0.8370 c2        1 MI1      0.173000
      9 C22         2.8320   -1.4720    0.0720 c3        1 MI1     -0.100000
     10 C23         3.9530   -1.2350    0.9480 c1        1 MI1     -0.158000
     11 N24         4.8730   -1.0450    1.6340 n1        1 MI1     -0.006000
     12 C7          0.2710    3.2460    0.1090 c3        1 MI1     -0.208000
     13 N8         -0.6900    0.3810   -0.6360 nh        1 MI1     -0.269000
     14 C9          0.3720    0.5740   -1.5820 c3        1 MI1     -0.079000
     15 C10        -1.9860    0.2120   -1.1250 c2        1 MI1      0.215000
     16 C15        -2.2290   -0.2780   -2.4530 c2        1 MI1     -0.224000
     17 C16        -1.4440   -0.6780   -3.5930 c2        1 MI1     -0.163000
     18 C11        -2.3260   -1.0830   -4.5900 c2        1 MI1     -0.109000
     19 N12        -3.6470   -0.9660   -4.1440 na        1 MI1     -0.196000
     20 C14        -3.6220   -0.4810   -2.8340 c2        1 MI1      0.073000
     21 N17        -4.6890   -0.2330   -2.0090 n2        1 MI1     -0.220000
     22 C18        -4.3100    0.2150   -0.7950 c2        1 MI1      0.016000
     23 N19        -3.0640    0.4570   -0.3070 n2        1 MI1     -0.276000
     24 H1         -1.2930    0.3780    1.3640 h1        1 MI1      0.095000
     25 H2          1.7330    1.0530    1.1610 hx        1 MI1      0.149000
     26 H2A         0.1390   -1.2270    2.1480 hn        1 MI1      0.229000
     27 H4          2.3790   -0.0550    6.2860 ha        1 MI1      0.234000
     28 H4A         1.7000   -0.7980    2.5860 hn        1 MI1      0.229000
     29 H5         -0.4520    2.5820    2.0240 hc        1 MI1      0.089500
     30 H5A         1.0570    1.3250    3.5630 ha        1 MI1      0.234000
     31 H6         -1.7040    2.6490    0.7170 hc        1 MI1      0.089500
     32 H22         3.0850   -2.2980   -0.6530 hc        1 MI1      0.162000
     33 H22A        2.6010   -0.5370   -0.5210 hc        1 MI1      0.162000
     34 H7          0.1190    4.3190    0.3830 hc        1 MI1      0.068667
     35 H7A         1.3440    2.9920    0.2830 hc        1 MI1      0.068667
     36 H7B         0.0530    3.1360   -0.9820 hc        1 MI1      0.068667
     37 H9          0.0340    1.1610   -2.4790 h1        1 MI1      0.074667
     38 H9A         0.7520   -0.4270   -1.9290 h1        1 MI1      0.074667
     39 H9B         1.2220    1.1270   -1.0990 h1        1 MI1      0.074667
     40 H16        -0.3620   -0.6820   -3.6760 ha        1 MI1      0.152000
     41 H11        -2.1170   -1.4520   -5.5960 h4        1 MI1      0.167000
     42 H18        -5.1350    0.4310   -0.0830 h5        1 MI1      0.182000
     43 HN12       -4.4600   -1.1910   -4.6540 hn        1 MI1      0.260000
@<TRIPOS>BOND
     1    1    2 1   
     2    1    5 1   
     3    1   13 1   
     4    1   24 1   
     5    2    6 1   
     6    2   25 1   
     7    3    4 1   
     8    3   27 1   
     9    4   30 1   
    10    5   12 1   
    11    5   29 1   
    12    5   31 1   
    13    6    8 1   
    14    6   26 1   
    15    6   28 1   
    16    7    8 1   
    17    8    9 1   
    18    9   10 1   
    19    9   32 1   
    20    9   33 1   
    21   10   11 1   
    22   12   34 1   
    23   12   35 1   
    24   12   36 1   
    25   13   14 1   
    26   13   15 1   
    27   14   37 1   
    28   14   38 1   
    29   14   39 1   
    30   15   16 1   
    31   15   23 1   
    32   16   17 1   
    33   16   20 1   
    34   17   18 1   
    35   17   40 1   
    36   18   19 1   
    37   18   41 1   
    38   19   20 1   
    39   19   43 1   
    40   20   21 1   
    41   21   22 1   
    42   22   23 1   
    43   22   42 1   
@<TRIPOS>SUBSTRUCTURE
     1 MI1         1 TEMP              0 ****  ****    0 ROOT
