@<TRIPOS>MOLECULE
MI1
   44    46     1     0     0
SMALL
bcc


@<TRIPOS>ATOM
      1 C1          0.1790   -0.0530   -0.0790 c3        1 MI1      0.093500
      2 C2          1.7340    0.0560   -0.0350 c3        1 MI1      0.063000
      3 C4          1.6330    1.2840    2.0490 c3        1 MI1      0.069000
      4 C5          0.1030    1.2770    2.0210 c3        1 MI1     -0.107400
      5 C6         -0.4570    1.1720    0.6060 c3        1 MI1     -0.076700
      6 N3          2.2260    0.1880    1.3140 n         1 MI1     -0.450800
      7 O21         2.6560   -2.0630    1.3540 o         1 MI1     -0.559100
      8 C20         2.6740   -0.9830    1.9660 c         1 MI1      0.654100
      9 C22         3.2410   -0.8450    3.3680 c3        1 MI1     -0.072300
     10 C23         3.9610   -2.0340    3.7600 c1        1 MI1      0.193700
     11 N24         4.5430   -2.9850    4.0860 n1        1 MI1     -0.299800
     12 C7         -0.2610    2.4630   -0.1600 c3        1 MI1     -0.120100
     13 N8         -0.3120   -0.2420   -1.4970 n4        1 MI1     -0.660100
     14 C9          0.3010   -1.4360   -2.1410 c3        1 MI1      0.093100
     15 C10        -1.7960   -0.3500   -1.5580 ca        1 MI1      0.540200
     16 C15        -2.5100    0.5510   -2.3700 ca        1 MI1     -0.302400
     17 C16        -2.2370    1.6670   -3.2290 cc        1 MI1     -0.211200
     18 C11        -3.4630    2.0990   -3.7400 cd        1 MI1     -0.027100
     19 N12        -4.5080    1.3160   -3.2480 na        1 MI1     -0.260100
     20 C14        -3.9710    0.3460   -2.4000 ca        1 MI1      0.465800
     21 N17        -4.6010   -0.6370   -1.6980 nb        1 MI1     -0.633000
     22 C18        -3.7690   -1.4150   -0.9700 ca        1 MI1      0.664900
     23 N19        -2.4070   -1.3340   -0.8580 nb        1 MI1     -0.691000
     24 H1         -0.1290   -0.9830    0.4920 hx        1 MI1      0.130700
     25 H2          2.1990   -0.8600   -0.5000 h1        1 MI1      0.083700
     26 H2A         2.0610    0.9670   -0.6130 h1        1 MI1      0.083700
     27 H4          1.9810    1.2710    3.1190 h1        1 MI1      0.074700
     28 H4A         2.0050    2.2420    1.5810 h1        1 MI1      0.074700
     29 H5         -0.2870    0.4230    2.6350 hc        1 MI1      0.074700
     30 H5A        -0.2650    2.2270    2.4910 hc        1 MI1      0.074700
     31 H6         -1.5670    0.9880    0.6970 hc        1 MI1      0.076700
     32 H22         3.9380    0.0390    3.4200 hc        1 MI1      0.105200
     33 H22A        2.3930   -0.6740    4.0900 hc        1 MI1      0.105200
     34 H7         -0.6260    3.3230    0.4560 hc        1 MI1      0.053367
     35 H7A        -0.8480    2.4610   -1.1120 hc        1 MI1      0.053367
     36 H7B         0.8150    2.6450   -0.3960 hc        1 MI1      0.053367
     37 H9          0.2400   -2.3160   -1.4440 hx        1 MI1      0.109033
     38 H9A        -0.2550   -1.6710   -3.0880 hx        1 MI1      0.109033
     39 H9B         1.3750   -1.2140   -2.3830 hx        1 MI1      0.109033
     40 H16        -1.2670    2.1030   -3.4540 ha        1 MI1      0.170000
     41 H11        -3.6700    2.9240   -4.4320 h4        1 MI1      0.204000
     42 H18        -4.2450   -2.2350   -0.3830 h5        1 MI1      0.094100
     43 HN12       -5.4720    1.4160   -3.4620 hn        1 MI1      0.342700
     44 H81        -0.0570    0.6000   -2.0340 hn        1 MI1      0.451800
@<TRIPOS>BOND
     1    1    2 1   
     2    1    5 1   
     3    1   13 1   
     4    1   24 1   
     5    2    6 1   
     6    2   25 1   
     7    2   26 1   
     8    3    4 1   
     9    3    6 1   
    10    3   27 1   
    11    3   28 1   
    12    4    5 1   
    13    4   29 1   
    14    4   30 1   
    15    5   12 1   
    16    5   31 1   
    17    6    8 1   
    18    7    8 2   
    19    8    9 1   
    20    9   10 1   
    21    9   32 1   
    22    9   33 1   
    23   10   11 3   
    24   12   34 1   
    25   12   35 1   
    26   12   36 1   
    27   13   14 1   
    28   13   15 1   
    29   13   44 1   
    30   14   37 1   
    31   14   38 1   
    32   14   39 1   
    33   15   16 ar  
    34   15   23 ar  
    35   16   17 1   
    36   16   20 ar  
    37   17   18 2   
    38   17   40 1   
    39   18   19 1   
    40   18   41 1   
    41   19   20 1   
    42   19   43 1   
    43   20   21 ar  
    44   21   22 ar  
    45   22   23 ar  
    46   22   42 1   
@<TRIPOS>SUBSTRUCTURE
     1 MI1         1 TEMP              0 ****  ****    0 ROOT
