@<TRIPOS>MOLECULE
MI1
   43    47     1     0     0
SMALL
bcc


@<TRIPOS>ATOM
      1 C1          0.0000    0.0000    0.0000 c3        1 MI1     -0.099000
      2 C2          1.5320    0.0000    0.0000 c3        1 MI1     -0.549000
      3 C4          1.5070    1.0370    2.3070 c3        1 MI1     -0.345000
      4 C5         -0.0240    1.0260    2.2790 c3        1 MI1     -0.449000
      5 C6         -0.5060    1.1780    0.8350 c3        1 MI1     -0.070000
      6 N3          2.0040    0.0000    1.3920 nx        1 MI1      1.642000
      7 O21         3.2780   -1.7850    1.0560 o         1 MI1     -0.340000
      8 C20         2.8750   -0.9340    1.8210 c2        1 MI1     -0.178000
      9 C22         3.3500   -0.9210    3.2520 c3        1 MI1     -0.190000
     10 C23         4.2890   -2.0350    3.4670 c2        1 MI1      0.063000
     11 N24         4.9990   -2.9040    3.6440 n1        1 MI1     -0.060000
     12 C7          0.0340    2.4860    0.2540 c3        1 MI1     -0.102000
     13 N8         -0.4890    0.1320   -1.3790 nh        1 MI1      0.090000
     14 C9          0.1550   -0.8490   -2.2620 c3        1 MI1     -0.117000
     15 C10        -1.8670    0.0140   -1.4290 c2        1 MI1      0.043000
     16 C15        -2.5850    0.4490   -2.5540 c2        1 MI1     -0.212000
     17 C16        -2.2350    1.0610   -3.8330 c2        1 MI1     -0.114000
     18 C11        -3.3840    1.2470   -4.5030 c2        1 MI1     -0.236000
     19 N12        -4.4380    0.8000   -3.7500 na        1 MI1      0.339000
     20 C14        -3.9850    0.3070   -2.5560 c2        1 MI1     -0.123000
     21 N17        -4.5730   -0.2330   -1.4900 n2        1 MI1     -0.096000
     22 C18        -3.8590   -0.6270   -0.4570 c2        1 MI1     -0.004000
     23 N19        -2.5440   -0.5170   -0.4160 n2        1 MI1     -0.219000
     24 H1         -0.3600   -0.9270    0.4300 h1        1 MI1      0.094000
     25 H2          1.9480   -0.1520    0.9890 hx        1 MI1     -0.188000
     26 H2A         2.1240   -0.7720   -0.4760 hx        1 MI1     -0.188000
     27 H4          1.6080    1.1080    3.3830 hx        1 MI1      0.126000
     28 H4A         1.8670    0.0600    2.0070 DU        1 MI1     -0.082000
     29 H5         -0.4500    0.8680    1.2960 hc        1 MI1      0.192500
     30 H5A        -0.6290    1.9030    2.4740 hc        1 MI1      0.192500
     31 H6         -1.5890    1.1910    0.8190 hc        1 MI1      0.115000
     32 H22         3.6250   -1.9430    3.4860 DU        1 MI1      0.130000
     33 H22A        2.3530   -0.8900    3.6740 hc        1 MI1      0.104000
     34 H7         -0.6500    3.1050    0.8230 hc        1 MI1      0.058000
     35 H7A        -0.2350    2.6780   -0.7780 hc        1 MI1      0.058000
     36 H7B         1.0150    2.9170    0.4110 hc        1 MI1      0.058000
     37 H9          1.0360   -0.6620   -2.8630 h1        1 MI1      0.051333
     38 H9A         0.0830   -1.9040   -2.0240 h1        1 MI1      0.051333
     39 H9B        -0.6370   -1.0110   -2.9830 h1        1 MI1      0.051333
     40 H16        -1.2290    1.3540   -4.1110 ha        1 MI1      0.141000
     41 H11        -3.6350    1.7740   -5.4160 h4        1 MI1      0.142000
     42 H18        -4.2170   -0.8920    0.5300 h5        1 MI1      0.140000
     43 HN12       -5.3620    0.6650   -4.1090 hn        1 MI1      0.076000
@<TRIPOS>BOND
     1    1    2 1   
     2    1    5 1   
     3    1   13 1   
     4    1   24 1   
     5    2    6 1   
     6    2   25 1   
     7    2   26 1   
     8    3    4 1   
     9    3    6 1   
    10    3   27 1   
    11    3   28 1   
    12    4    5 1   
    13    4   29 1   
    14    4   30 1   
    15    5   12 1   
    16    5   31 1   
    17    6    8 1   
    18    6   28 1   
    19    7    8 1   
    20    8    9 1   
    21    9   10 1   
    22    9   32 1   
    23    9   33 1   
    24   10   11 1   
    25   10   32 1   
    26   12   34 1   
    27   12   35 1   
    28   12   36 1   
    29   13   14 1   
    30   13   15 1   
    31   14   37 1   
    32   14   38 1   
    33   14   39 1   
    34   15   16 1   
    35   15   23 1   
    36   16   17 1   
    37   16   20 1   
    38   17   18 1   
    39   17   40 1   
    40   18   19 1   
    41   18   41 1   
    42   19   20 1   
    43   19   43 1   
    44   20   21 1   
    45   21   22 1   
    46   22   23 1   
    47   22   42 1   
@<TRIPOS>SUBSTRUCTURE
     1 MI1         1 TEMP              0 ****  ****    0 ROOT
