@<TRIPOS>MOLECULE
MI1
   43    45     1     0     0
SMALL
bcc


@<TRIPOS>ATOM
      1 C1         -0.3570   -0.0830   -0.1920 c3        1 MI1      0.184500
      2 C2         -1.5410    0.6760   -0.8660 c3        1 MI1      0.069000
      3 C4         -2.7630   -1.3990   -1.1990 c3        1 MI1      0.079000
      4 C5         -1.6140   -2.2060   -0.5970 c3        1 MI1     -0.103400
      5 C6         -0.2700   -1.5140   -0.7760 c3        1 MI1     -0.063700
      6 N3         -2.8040   -0.0260   -0.7490 n         1 MI1     -0.451800
      7 O21        -3.5910    1.5260    0.7490 o         1 MI1     -0.578100
      8 C20        -3.7460    0.4330    0.1740 c         1 MI1      0.654100
      9 C22        -5.0080   -0.3920    0.3890 c3        1 MI1     -0.087300
     10 C23        -5.9710    0.3060    1.2080 c1        1 MI1      0.217700
     11 N24        -6.7540    0.8580    1.8660 n1        1 MI1     -0.343800
     12 C7          0.1740   -1.5490   -2.2220 c3        1 MI1     -0.087100
     13 N8          0.9130    0.6390   -0.3320 nh        1 MI1     -0.738300
     14 C9          0.8070    2.0830   -0.3520 c3        1 MI1      0.167100
     15 C10         2.0060    0.1610    0.4500 ca        1 MI1      0.697200
     16 C15         3.3310    0.4920    0.0300 ca        1 MI1     -0.329400
     17 C16         3.9280    1.2460   -1.0390 cc        1 MI1     -0.150200
     18 C11         5.3090    1.1570   -0.8850 cd        1 MI1     -0.119100
     19 N12         5.6250    0.3770    0.2340 na        1 MI1     -0.282100
     20 C14         4.4310   -0.0520    0.8190 ca        1 MI1      0.449800
     21 N17         4.2500   -0.8470    1.9210 nb        1 MI1     -0.714000
     22 C18         2.9510   -1.0770    2.1940 ca        1 MI1      0.662900
     23 N19         1.8340   -0.6300    1.5470 nb        1 MI1     -0.770000
     24 H1         -0.6270   -0.1870    0.9050 h1        1 MI1      0.061700
     25 H2         -1.6570    1.6960   -0.4000 h1        1 MI1      0.075200
     26 H2A        -1.3280    0.8030   -1.9650 h1        1 MI1      0.075200
     27 H4         -2.6380   -1.3730   -2.3220 h1        1 MI1      0.052200
     28 H4A        -3.7330   -1.9230   -0.9810 h1        1 MI1      0.052200
     29 H5         -1.7990   -2.3750    0.4960 hc        1 MI1      0.052700
     30 H5A        -1.5880   -3.2090   -1.0970 hc        1 MI1      0.052700
     31 H6          0.4850   -2.0950   -0.1740 hc        1 MI1      0.068700
     32 H22        -5.4850   -0.6290   -0.6040 hc        1 MI1      0.095200
     33 H22A       -4.7330   -1.3600    0.8950 hc        1 MI1      0.095200
     34 H7          1.2120   -1.1510   -2.3250 hc        1 MI1      0.037700
     35 H7A         0.1650   -2.6020   -2.5970 hc        1 MI1      0.037700
     36 H7B        -0.5010   -0.9410   -2.8710 hc        1 MI1      0.037700
     37 H9          0.2020    2.4840    0.5060 h1        1 MI1      0.047367
     38 H9A         1.8290    2.5450   -0.3110 h1        1 MI1      0.047367
     39 H9B         0.3210    2.3850   -1.3180 h1        1 MI1      0.047367
     40 H16         3.3930    1.7710   -1.8260 ha        1 MI1      0.164000
     41 H11         6.1060    1.5910   -1.4910 h4        1 MI1      0.172000
     42 H18         2.7500   -1.7160    3.0800 h5        1 MI1      0.052100
     43 HN12        6.5310    0.1650    0.5630 hn        1 MI1      0.312700
@<TRIPOS>BOND
     1    1    2 1   
     2    1    5 1   
     3    1   13 1   
     4    1   24 1   
     5    2    6 1   
     6    2   25 1   
     7    2   26 1   
     8    3    4 1   
     9    3    6 1   
    10    3   27 1   
    11    3   28 1   
    12    4    5 1   
    13    4   29 1   
    14    4   30 1   
    15    5   12 1   
    16    5   31 1   
    17    6    8 1   
    18    7    8 2   
    19    8    9 1   
    20    9   10 1   
    21    9   32 1   
    22    9   33 1   
    23   10   11 3   
    24   12   34 1   
    25   12   35 1   
    26   12   36 1   
    27   13   14 1   
    28   13   15 1   
    29   14   37 1   
    30   14   38 1   
    31   14   39 1   
    32   15   16 ar  
    33   15   23 ar  
    34   16   17 1   
    35   16   20 ar  
    36   17   18 2   
    37   17   40 1   
    38   18   19 1   
    39   18   41 1   
    40   19   20 1   
    41   19   43 1   
    42   20   21 ar  
    43   21   22 ar  
    44   22   23 ar  
    45   22   42 1   
@<TRIPOS>SUBSTRUCTURE
     1 MI1         1 TEMP              0 ****  ****    0 ROOT
