@<TRIPOS>MOLECULE
MI2
   34    36     1     0     0
SMALL
bcc


@<TRIPOS>ATOM
      1 C1         -3.6000   49.2120    1.3510 ca        1 MI2     -0.106800
      2 C2         -3.6450   49.0580    2.7900 ca        1 MI2     -0.031200
      3 N3         -2.3510   49.2030    3.2830 na        1 MI2     -0.183400
      4 C4         -1.4860   49.4370    2.1980 cc        1 MI2     -0.004300
      5 C5         -2.2210   49.4540    1.0080 cd        1 MI2     -0.166200
      6 C6         -0.0560   49.6660    2.3540 ca        1 MI2     -0.047800
      7 C7          0.5070   50.7600    1.6780 ca        1 MI2     -0.104000
      8 C8          1.8690   51.0300    1.7790 ca        1 MI2     -0.135000
      9 C9          2.6840   50.2080    2.5570 ca        1 MI2     -0.117000
     10 C10         2.1350   49.1160    3.2230 ca        1 MI2     -0.133000
     11 C11         0.7660   48.8290    3.1290 ca        1 MI2     -0.061300
     12 C12         0.2330   47.6390    3.8350 c3        1 MI2     -0.060800
     13 C13        -4.8600   48.8090    3.4520 ca        1 MI2     -0.150000
     14 C14        -6.0060   48.7130    2.6830 ca        1 MI2     -0.097000
     15 C15        -5.9710   48.8630    1.2800 ca        1 MI2     -0.232900
     16 C16        -4.7790   49.1120    0.6100 ca        1 MI2     -0.041000
     17 C17        -7.2530   48.7240    0.5190 ce        1 MI2      0.644800
     18 N18        -8.0730   47.7210    0.6440 n2        1 MI2     -0.842100
     19 N19        -7.4880   49.7550   -0.4170 nh        1 MI2     -0.894800
     20 HN3        -2.0750   49.1300    4.2250 hn        1 MI2      0.302700
     21 H5         -1.8270   49.6100    0.0080 ha        1 MI2      0.161000
     22 H7         -0.1410   51.4060    1.0660 ha        1 MI2      0.141000
     23 H8          2.2990   51.8900    1.2460 ha        1 MI2      0.136000
     24 H9          3.7600   50.4200    2.6420 ha        1 MI2      0.134000
     25 H10         2.7820   48.4640    3.8290 ha        1 MI2      0.134000
     26 H121       -0.2240   47.9390    4.8120 hc        1 MI2      0.047700
     27 H122        1.0500   46.9060    4.0510 hc        1 MI2      0.047700
     28 H123       -0.5440   47.1210    3.2200 hc        1 MI2      0.047700
     29 H13        -4.8970   48.6950    4.5440 ha        1 MI2      0.136000
     30 H14        -6.9710   48.5180    3.1770 ha        1 MI2      0.136000
     31 H16        -4.7550   49.2220   -0.4840 ha        1 MI2      0.152000
     32 HN18       -7.7500   47.0080    1.2610 hn        1 MI2      0.393400
     33 H191       -7.1670   50.6440   -0.1070 hn        1 MI2      0.396800
     34 H192       -8.4060   49.7780   -0.8060 hn        1 MI2      0.396800
@<TRIPOS>BOND
     1    1    2 ar  
     2    1    5 1   
     3    1   16 ar  
     4    2    3 1   
     5    2   13 ar  
     6    3    4 1   
     7    3   20 1   
     8    4    5 2   
     9    4    6 1   
    10    5   21 1   
    11    6    7 ar  
    12    6   11 ar  
    13    7    8 ar  
    14    7   22 1   
    15    8    9 ar  
    16    8   23 1   
    17    9   10 ar  
    18    9   24 1   
    19   10   11 ar  
    20   10   25 1   
    21   11   12 1   
    22   12   26 1   
    23   12   27 1   
    24   12   28 1   
    25   13   14 ar  
    26   13   29 1   
    27   14   15 ar  
    28   14   30 1   
    29   15   16 ar  
    30   15   17 1   
    31   16   31 1   
    32   17   18 2   
    33   17   19 1   
    34   18   32 1   
    35   19   33 1   
    36   19   34 1   
@<TRIPOS>SUBSTRUCTURE
     1 MI2         1 TEMP              0 ****  ****    0 ROOT
