@<TRIPOS>MOLECULE
MI2
   35    37     1     0     0
SMALL
bcc


@<TRIPOS>ATOM
      1 C1         -0.0760    0.1290    0.0060 ca        1 MI2     -0.094800
      2 C2          1.3730   -0.0210   -0.0070 ca        1 MI2     -0.007200
      3 N3          1.8110   -0.0500    1.3070 na        1 MI2     -0.164400
      4 C4          0.6970    0.0880    2.1590 cc        1 MI2      0.053700
      5 C5         -0.4690    0.1930    1.3910 cd        1 MI2     -0.180200
      6 C6          0.8030    0.0680    3.6110 ca        1 MI2     -0.085800
      7 C7         -0.0830   -0.7620    4.3160 ca        1 MI2     -0.096000
      8 C8         -0.0390   -0.8240    5.7050 ca        1 MI2     -0.130000
      9 C9          0.8910   -0.0530    6.4040 ca        1 MI2     -0.096000
     10 C10         1.7660    0.7800    5.7110 ca        1 MI2     -0.128000
     11 C11         1.7340    0.8540    4.3120 ca        1 MI2     -0.050300
     12 C12         2.6700    1.7740    3.6230 c3        1 MI2     -0.065800
     13 C13         2.0790   -0.1080   -1.2200 ca        1 MI2     -0.122000
     14 C14         1.3570   -0.0470   -2.3980 ca        1 MI2     -0.090000
     15 C15        -0.0480    0.0970   -2.3880 ca        1 MI2     -0.307900
     16 C16        -0.7690    0.1880   -1.1960 ca        1 MI2     -0.047000
     17 C17        -0.7480    0.1930   -3.6800 ce        1 MI2      0.605800
     18 N18        -0.7290    1.0690   -4.6080 n2        1 MI2     -0.724100
     19 N19        -1.6390   -1.0080   -3.9090 nz        1 MI2     -0.828600
     20 HN3         2.7510   -0.1160    1.6090 hn        1 MI2      0.320700
     21 H5         -1.4800    0.3140    1.7700 ha        1 MI2      0.176000
     22 H7         -0.8150   -1.3690    3.7600 ha        1 MI2      0.138000
     23 H8         -0.7350   -1.4790    6.2500 ha        1 MI2      0.147000
     24 H9          0.9310   -0.1000    7.5030 ha        1 MI2      0.148000
     25 H10         2.4910    1.3940    6.2680 ha        1 MI2      0.146000
     26 H121        3.5700    1.2150    3.2610 hc        1 MI2      0.050700
     27 H122        3.0260    2.5730    4.3210 hc        1 MI2      0.050700
     28 H123        2.1800    2.2730    2.7510 hc        1 MI2      0.050700
     29 H13         3.1730   -0.2180   -1.2340 ha        1 MI2      0.161000
     30 H14         1.8900   -0.1070   -3.3610 ha        1 MI2      0.144000
     31 H16        -1.8600    0.3300   -1.1930 ha        1 MI2      0.136000
     32 HN18       -0.1580    1.8790   -4.4800 hn        1 MI2      0.488400
     33 H191       -2.2370   -1.1170   -3.0840 hn        1 MI2      0.466800
     34 H192       -2.2190   -0.9110   -4.7500 hn        1 MI2      0.466800
     35 H193       -1.0390   -1.8340   -3.9990 hn        1 MI2      0.466800
@<TRIPOS>BOND
     1    1    2 ar  
     2    1    5 1   
     3    1   16 ar  
     4    2    3 1   
     5    2   13 ar  
     6    3    4 1   
     7    3   20 1   
     8    4    5 2   
     9    4    6 1   
    10    5   21 1   
    11    6    7 ar  
    12    6   11 ar  
    13    7    8 ar  
    14    7   22 1   
    15    8    9 ar  
    16    8   23 1   
    17    9   10 ar  
    18    9   24 1   
    19   10   11 ar  
    20   10   25 1   
    21   11   12 1   
    22   12   26 1   
    23   12   27 1   
    24   12   28 1   
    25   13   14 ar  
    26   13   29 1   
    27   14   15 ar  
    28   14   30 1   
    29   15   16 ar  
    30   15   17 1   
    31   16   31 1   
    32   17   18 2   
    33   17   19 1   
    34   18   32 1   
    35   19   33 1   
    36   19   34 1   
    37   19   35 1   
@<TRIPOS>SUBSTRUCTURE
     1 MI2         1 TEMP              0 ****  ****    0 ROOT
