@<TRIPOS>MOLECULE
MI2
   34    25     1     0     0
SMALL
bcc


@<TRIPOS>ATOM
      1 C1         -0.3480    0.2670   -1.0370 c1        1 MI2     -0.040500
      2 C2          1.0220    0.3080   -0.9980 c1        1 MI2     -0.040500
      3 N3          1.4130    0.2780    0.3290 n1        1 MI2     -0.206000
      4 C4          0.2870    0.2190    1.1010 c2        1 MI2      0.011000
      5 C5         -0.8080    0.2120    0.2610 c1        1 MI2     -0.178000
      6 C6          0.1420    0.2170    2.4800 c1        1 MI2     -0.036000
      7 C7         -0.1250    1.4010    3.1500 c1        1 MI2     -0.122667
      8 C8         -0.3210    1.3920    4.5220 c1        1 MI2     -0.122667
      9 C9         -0.2500    0.1990    5.2240 c1        1 MI2     -0.122667
     10 C10         0.0180   -0.9850    4.5550 c1        1 MI2     -0.122667
     11 C11         0.2140   -0.9760    3.1820 c1        1 MI2     -0.055000
     12 C12         0.5410   -2.2620    2.4570 c3        1 MI2     -0.185000
     13 C13         1.7570    0.3680   -2.1950 c1        1 MI2     -0.122667
     14 C14         1.0960    0.3870   -3.4140 c1        1 MI2     -0.122667
     15 C15        -0.2910    0.3460   -3.4530 c1        1 MI2     -0.149000
     16 C16        -1.0170    0.2860   -2.2730 c1        1 MI2     -0.041000
     17 C17        -0.9310    0.4570   -4.8200 c2        1 MI2      0.121000
     18 N18        -1.1980    1.6330   -5.3220 n1        1 MI2     -0.310000
     19 N19        -1.2410   -0.7160   -5.5550 n3        1 MI2     -0.333000
     20 HN3         2.2720    0.2950    0.6340 DU        1 MI2      0.187667
     21 H5         -1.7430    0.1750    0.5370 DU        1 MI2      0.187667
     22 H7         -0.1750    2.2410    2.6550 ha        1 MI2      0.136333
     23 H8         -0.5100    2.2250    4.9940 ha        1 MI2      0.136333
     24 H9         -0.3880    0.1930    6.1910 ha        1 MI2      0.136333
     25 H10         0.0680   -1.8250    5.0490 ha        1 MI2      0.136333
     26 H121        0.4290   -3.0200    3.0680 hc        1 MI2      0.087000
     27 H122        1.4680   -2.2320    2.1400 hc        1 MI2      0.087000
     28 H123       -0.0620   -2.3680    1.6910 hc        1 MI2      0.087000
     29 H13         2.7320    0.3970   -2.1670 ha        1 MI2      0.136333
     30 H14         1.6070    0.4290   -4.2450 ha        1 MI2      0.136333
     31 H16        -1.9920    0.2570   -2.3010 ha        1 MI2      0.152000
     32 HN18       -0.9980    2.3880   -4.8490 DU        1 MI2      0.187667
     33 H191       -1.7840   -0.6650   -6.2890 hn        1 MI2      0.192000
     34 H192       -0.8890   -1.5210   -5.3020 hn        1 MI2      0.192000
@<TRIPOS>BOND
     1    1    2 1   
     2    3    4 1   
     3    4    5 1   
     4    4    6 1   
     5    6   11 1   
     6    7    8 1   
     7    7   22 1   
     8    8   23 1   
     9    9   10 1   
    10    9   24 1   
    11   10   25 1   
    12   11   12 1   
    13   12   26 1   
    14   12   27 1   
    15   12   28 1   
    16   13   14 1   
    17   13   29 1   
    18   14   30 1   
    19   15   16 1   
    20   15   17 1   
    21   16   31 1   
    22   17   18 1   
    23   17   19 1   
    24   19   33 1   
    25   19   34 1   
@<TRIPOS>SUBSTRUCTURE
     1 MI2         1 TEMP              0 ****  ****    0 ROOT
