@<TRIPOS>MOLECULE
MI2
   35    37     1     0     0
SMALL
bcc


@<TRIPOS>ATOM
      1 C1         -0.0780    0.1340    0.0070 ca        1 MI2     -0.094800
      2 C2          1.3700   -0.0260   -0.0080 ca        1 MI2     -0.007200
      3 N3          1.8100   -0.0580    1.3050 na        1 MI2     -0.164400
      4 C4          0.6980    0.0870    2.1590 cc        1 MI2      0.053700
      5 C5         -0.4680    0.2000    1.3920 cd        1 MI2     -0.180200
      6 C6          0.8050    0.0670    3.6110 ca        1 MI2     -0.085800
      7 C7         -0.0850   -0.7580    4.3170 ca        1 MI2     -0.096000
      8 C8         -0.0390   -0.8200    5.7050 ca        1 MI2     -0.130000
      9 C9          0.8970   -0.0550    6.4030 ca        1 MI2     -0.096000
     10 C10         1.7760    0.7720    5.7100 ca        1 MI2     -0.128000
     11 C11         1.7430    0.8470    4.3100 ca        1 MI2     -0.050300
     12 C12         2.6850    1.7600    3.6200 c3        1 MI2     -0.065800
     13 C13         2.0740   -0.1180   -1.2220 ca        1 MI2     -0.122000
     14 C14         1.3520   -0.0520   -2.4000 ca        1 MI2     -0.090000
     15 C15        -0.0520    0.1010   -2.3880 ca        1 MI2     -0.307900
     16 C16        -0.7720    0.1970   -1.1940 ca        1 MI2     -0.047000
     17 C17        -0.7540    0.2020   -3.6780 ce        1 MI2      0.605800
     18 N18        -0.7300    1.0770   -4.6070 n2        1 MI2     -0.724100
     19 N19        -1.6530   -0.9930   -3.9060 n4        1 MI2     -0.828600
     20 HN3         2.7500   -0.1310    1.6060 hn        1 MI2      0.320700
     21 H5         -1.4770    0.3280    1.7730 ha        1 MI2      0.176000
     22 H7         -0.8220   -1.3600    3.7620 ha        1 MI2      0.138000
     23 H8         -0.7390   -1.4700    6.2510 ha        1 MI2      0.147000
     24 H9          0.9380   -0.1030    7.5030 ha        1 MI2      0.148000
     25 H10         2.5070    1.3810    6.2650 ha        1 MI2      0.146000
     26 H121        3.5800    1.1950    3.2570 hc        1 MI2      0.050700
     27 H122        3.0460    2.5570    4.3170 hc        1 MI2      0.050700
     28 H123        2.1960    2.2630    2.7490 hc        1 MI2      0.050700
     29 H13         3.1680   -0.2350   -1.2370 ha        1 MI2      0.161000
     30 H14         1.8820   -0.1160   -3.3630 ha        1 MI2      0.144000
     31 H16        -1.8620    0.3460   -1.1900 ha        1 MI2      0.136000
     32 HN18       -0.1540    1.8840   -4.4800 hn        1 MI2      0.488400
     33 H191       -2.2520   -1.0980   -3.0800 hn        1 MI2      0.466800
     34 H192       -2.2330   -0.8930   -4.7470 hn        1 MI2      0.466800
     35 H193       -1.0590   -1.8230   -3.9960 hn        1 MI2      0.466800
@<TRIPOS>BOND
     1    1    2 ar  
     2    1    5 1   
     3    1   16 ar  
     4    2    3 1   
     5    2   13 ar  
     6    3    4 1   
     7    3   20 1   
     8    4    5 2   
     9    4    6 1   
    10    5   21 1   
    11    6    7 ar  
    12    6   11 ar  
    13    7    8 ar  
    14    7   22 1   
    15    8    9 ar  
    16    8   23 1   
    17    9   10 ar  
    18    9   24 1   
    19   10   11 ar  
    20   10   25 1   
    21   11   12 1   
    22   12   26 1   
    23   12   27 1   
    24   12   28 1   
    25   13   14 ar  
    26   13   29 1   
    27   14   15 ar  
    28   14   30 1   
    29   15   16 ar  
    30   15   17 1   
    31   16   31 1   
    32   17   18 2   
    33   17   19 1   
    34   18   32 1   
    35   19   33 1   
    36   19   34 1   
    37   19   35 1   
@<TRIPOS>SUBSTRUCTURE
     1 MI2         1 TEMP              0 ****  ****    0 ROOT
