@<TRIPOS>MOLECULE
MI5
   50    54     1     0     0
SMALL
bcc


@<TRIPOS>ATOM
      1 C01         1.3030    2.2990    0.2050 cc        1 MI5     -0.150800
      2 C02         0.8040    0.9670    0.2760 cd        1 MI5      0.384500
      3 N03        -0.5880    1.1140    0.6740 na        1 MI5      0.009200
      4 N04        -0.9290    2.3990    0.8500 nd        1 MI5     -0.576100
      5 C05         0.1800    3.1300    0.5710 cc        1 MI5      0.384500
      6 N06         1.3890   -0.2520    0.0410 nd        1 MI5     -0.641000
      7 C07         0.6370   -1.3320    0.2250 cc        1 MI5      0.472600
      8 C08        -0.7390   -1.2730    0.6500 cc        1 MI5     -0.329300
      9 C09        -1.3630   -0.0460    0.8730 cd        1 MI5      0.250300
     10 N10        -2.6900    0.0590    1.3460 nh        1 MI5     -0.569000
     11 C11         1.2140   -2.7050   -0.0110 c3        1 MI5     -0.153000
     12 C12         2.6040    2.7310   -0.1400 cc        1 MI5     -0.182100
     13 C13         1.5840   -2.8890   -1.4980 c3        1 MI5      0.156800
     14 N14         2.1860   -4.1680   -1.8080 n3        1 MI5     -0.794200
     15 C15         3.3040   -4.4850   -0.9390 c3        1 MI5      0.147800
     16 C16         3.0270   -4.3270    0.5580 c3        1 MI5     -0.116400
     17 C17         2.4410   -2.9610    0.8560 c3        1 MI5     -0.072400
     18 C18         3.7490    1.9210   -0.5180 cc        1 MI5      0.325200
     19 N19         4.8200    2.7090   -0.7730 nd        1 MI5     -0.514800
     20 N20         4.4270    3.9820   -0.5760 na        1 MI5      0.085400
     21 C21         3.0840    4.0560   -0.1930 cd        1 MI5     -0.144300
     22 C22         5.2810    5.1250   -0.7790 c3        1 MI5      0.042600
     23 C23        -3.7050   -0.6540    0.7230 cc        1 MI5      0.129500
     24 S24        -3.5910   -2.2150    0.0210 ss        1 MI5      0.194200
     25 N25        -5.1730   -2.3760   -0.3370 nc        1 MI5     -0.534100
     26 C26        -5.8510   -1.3000    0.0490 cd        1 MI5      0.398600
     27 C27        -5.0430   -0.2670    0.6640 cd        1 MI5     -0.339300
     28 C28        -7.3140   -1.1210   -0.1210 c3        1 MI5     -0.132400
     29 H05         0.1690    4.2210    0.6300 h4        1 MI5      0.052800
     30 H08        -1.2840   -2.2130    0.8190 ha        1 MI5      0.169000
     31 HN10       -2.9730    0.9690    1.6630 hn        1 MI5      0.450800
     32 H11         0.4270   -3.4660    0.2590 hc        1 MI5      0.055700
     33 H13         0.6590   -2.7670   -2.1260 h1        1 MI5      0.065200
     34 H13A        2.3190   -2.0870   -1.7920 h1        1 MI5      0.065200
     35 HN14        1.4940   -4.8940   -1.7490 hn        1 MI5      0.348800
     36 H15         3.6260   -5.5420   -1.1480 h1        1 MI5      0.055200
     37 H15A        4.1530   -3.8010   -1.2220 h1        1 MI5      0.055200
     38 H16         2.3210   -5.1270    0.9020 hc        1 MI5      0.045200
     39 H16A        3.9850   -4.4560    1.1230 hc        1 MI5      0.045200
     40 H17         3.2160   -2.1740    0.6590 hc        1 MI5      0.055700
     41 H17A        2.1580   -2.8960    1.9380 hc        1 MI5      0.055700
     42 H18         3.7930    0.8330   -0.6000 h4        1 MI5      0.060100
     43 H21         2.5850    5.0020    0.0100 h4        1 MI5      0.172000
     44 H22         5.5060    5.2490   -1.8720 h1        1 MI5      0.056700
     45 H22A        4.7540    6.0390   -0.4000 h1        1 MI5      0.056700
     46 H22B        6.2470    4.9900   -0.2220 h1        1 MI5      0.056700
     47 H27        -5.4620    0.6730    1.0220 ha        1 MI5      0.171000
     48 H28        -7.7800   -1.9720   -0.6760 hc        1 MI5      0.059033
     49 H28A       -7.7940   -1.0440    0.8870 hc        1 MI5      0.059033
     50 H28B       -7.5070   -0.1750   -0.6850 hc        1 MI5      0.059033
@<TRIPOS>BOND
     1    1    2 2   
     2    1    5 1   
     3    1   12 1   
     4    2    3 1   
     5    2    6 1   
     6    3    4 1   
     7    3    9 1   
     8    4    5 2   
     9    5   29 1   
    10    6    7 2   
    11    7    8 1   
    12    7   11 1   
    13    8    9 2   
    14    8   30 1   
    15    9   10 1   
    16   10   23 1   
    17   10   31 1   
    18   11   13 1   
    19   11   17 1   
    20   11   32 1   
    21   12   18 1   
    22   12   21 2   
    23   13   14 1   
    24   13   33 1   
    25   13   34 1   
    26   14   15 1   
    27   14   35 1   
    28   15   16 1   
    29   15   36 1   
    30   15   37 1   
    31   16   17 1   
    32   16   38 1   
    33   16   39 1   
    34   17   40 1   
    35   17   41 1   
    36   18   19 2   
    37   18   42 1   
    38   19   20 1   
    39   20   21 1   
    40   20   22 1   
    41   21   43 1   
    42   22   44 1   
    43   22   45 1   
    44   22   46 1   
    45   23   24 1   
    46   23   27 2   
    47   24   25 1   
    48   25   26 2   
    49   26   27 1   
    50   26   28 1   
    51   27   47 1   
    52   28   48 1   
    53   28   49 1   
    54   28   50 1   
@<TRIPOS>SUBSTRUCTURE
     1 MI5         1 TEMP              0 ****  ****    0 ROOT
