@<TRIPOS>MOLECULE
MI5
   51    55     1     0     0
SMALL
bcc


@<TRIPOS>ATOM
      1 C01         0.0950   -0.2240    0.0870 cc        1 MI5     -0.053800
      2 C02         1.5150   -0.1450    0.0180 cd        1 MI5      0.350500
      3 N03         1.9270    0.1590    1.3950 na        1 MI5      0.015200
      4 N04         0.8880    0.2660    2.2270 nd        1 MI5     -0.578100
      5 C05        -0.2230    0.0400    1.4740 cc        1 MI5      0.391500
      6 N06         2.4150   -0.2850   -1.0010 nd        1 MI5     -0.558000
      7 C07         3.7040   -0.1260   -0.7310 cc        1 MI5      0.432600
      8 C08         4.1950    0.1750    0.6040 cc        1 MI5     -0.210300
      9 C09         3.2900    0.3150    1.6410 cd        1 MI5      0.058300
     10 N10         3.7380    0.6220    3.0220 n4        1 MI5     -0.451800
     11 C11         4.7470   -0.2600   -1.8120 c3        1 MI5     -0.119000
     12 C12        -0.8130   -0.4930   -0.9570 cc        1 MI5     -0.249100
     13 C13         4.8510   -1.7300   -2.2640 c3        1 MI5      0.171800
     14 N14         5.8730   -1.8950   -3.2780 n3        1 MI5     -0.823200
     15 C15         5.6910   -1.0370   -4.4340 c3        1 MI5      0.156800
     16 C16         5.5270    0.4370   -4.0640 c3        1 MI5     -0.080400
     17 C17         4.4480    0.6240   -3.0160 c3        1 MI5     -0.073400
     18 C18        -0.5160   -0.7700   -2.3530 cc        1 MI5      0.342200
     19 N19        -1.6630   -0.9770   -3.0400 nd        1 MI5     -0.493800
     20 N20        -2.6790   -0.8480   -2.1640 na        1 MI5      0.110400
     21 C21        -2.2260   -0.5540   -0.8830 cd        1 MI5     -0.104300
     22 C22        -4.0710   -0.9990   -2.5290 c3        1 MI5      0.030600
     23 C23         3.7490   -0.5330    3.8790 cc        1 MI5     -0.154500
     24 S24         5.0030   -1.6700    4.0400 ss        1 MI5      0.375200
     25 N25         4.2730   -2.5750    5.1440 nc        1 MI5     -0.491100
     26 C26         3.0610   -2.1050    5.4540 cd        1 MI5      0.398600
     27 C27         2.7050   -0.9020    4.7310 cd        1 MI5     -0.187300
     28 C28         2.1420   -2.7410    6.4300 c3        1 MI5     -0.143400
     29 H05        -1.2220    0.0700    1.9200 h4        1 MI5      0.073800
     30 H08         5.2800    0.2840    0.7540 ha        1 MI5      0.178000
     31 HN10        4.6900    1.0130    2.9650 hn        1 MI5      0.476300
     32 H11         5.7410    0.0560   -1.3820 hc        1 MI5      0.071700
     33 H13         5.1410   -2.3680   -1.3830 h1        1 MI5      0.038200
     34 H13A        3.8320   -2.0650   -2.6160 h1        1 MI5      0.038200
     35 HN14        5.9200   -2.8560   -3.5630 hn        1 MI5      0.378800
     36 H15         6.6070   -1.1530   -5.0790 h1        1 MI5      0.042200
     37 H15A        4.7950   -1.3460   -5.0500 h1        1 MI5      0.042200
     38 H16         5.2560    1.0090   -4.9890 hc        1 MI5      0.057700
     39 H16A        6.5000    0.8420   -3.6840 hc        1 MI5      0.057700
     40 H17         3.4500    0.3550   -3.4520 hc        1 MI5      0.055200
     41 H17A        4.4050    1.6980   -2.7000 hc        1 MI5      0.055200
     42 H18         0.4630   -0.8160   -2.8320 h4        1 MI5      0.061100
     43 H21        -2.8990   -0.4130   -0.0380 h4        1 MI5      0.181000
     44 H22        -4.3440   -0.2380   -3.3100 h1        1 MI5      0.070367
     45 H22A       -4.7010   -0.8460   -1.6150 h1        1 MI5      0.070367
     46 H22B       -4.2470   -2.0280   -2.9430 h1        1 MI5      0.070367
     47 H27         1.7450   -0.3930    4.8570 ha        1 MI5      0.203000
     48 H28         1.5770   -3.5670    5.9280 hc        1 MI5      0.079033
     49 H28A        2.7050   -3.1750    7.2950 hc        1 MI5      0.079033
     50 H28B        1.4160   -1.9830    6.8130 hc        1 MI5      0.079033
     51 H102        3.1100    1.3340    3.4340 hn        1 MI5      0.476300
@<TRIPOS>BOND
     1    1    2 2   
     2    1    5 1   
     3    1   12 1   
     4    2    3 1   
     5    2    6 1   
     6    3    4 1   
     7    3    9 1   
     8    4    5 2   
     9    5   29 1   
    10    6    7 2   
    11    7    8 1   
    12    7   11 1   
    13    8    9 2   
    14    8   30 1   
    15    9   10 1   
    16   10   23 1   
    17   10   31 1   
    18   10   51 1   
    19   11   13 1   
    20   11   17 1   
    21   11   32 1   
    22   12   18 1   
    23   12   21 2   
    24   13   14 1   
    25   13   33 1   
    26   13   34 1   
    27   14   15 1   
    28   14   35 1   
    29   15   16 1   
    30   15   36 1   
    31   15   37 1   
    32   16   17 1   
    33   16   38 1   
    34   16   39 1   
    35   17   40 1   
    36   17   41 1   
    37   18   19 2   
    38   18   42 1   
    39   19   20 1   
    40   20   21 1   
    41   20   22 1   
    42   21   43 1   
    43   22   44 1   
    44   22   45 1   
    45   22   46 1   
    46   23   24 1   
    47   23   27 2   
    48   24   25 1   
    49   25   26 2   
    50   26   27 1   
    51   26   28 1   
    52   27   47 1   
    53   28   48 1   
    54   28   49 1   
    55   28   50 1   
@<TRIPOS>SUBSTRUCTURE
     1 MI5         1 TEMP              0 ****  ****    0 ROOT
