@<TRIPOS>MOLECULE
MI5
   50    54     1     0     0
SMALL
bcc


@<TRIPOS>ATOM
      1 C01        -0.4530   -0.1850   -0.3710 cc        1 MI5     -0.153800
      2 C02         0.9550   -0.2530   -0.1700 cd        1 MI5      0.384500
      3 N03         1.1320   -0.1050    1.2660 na        1 MI5      0.009200
      4 N04        -0.0370    0.0550    1.9050 nd        1 MI5     -0.576100
      5 C05        -1.0030    0.0060    0.9510 cc        1 MI5      0.384500
      6 N06         2.0040   -0.4260   -1.0370 nd        1 MI5     -0.643000
      7 C07         3.2280   -0.4200   -0.5200 cc        1 MI5      0.467600
      8 C08         3.4890   -0.2470    0.8870 cc        1 MI5     -0.326300
      9 C09         2.4390   -0.0930    1.7920 cd        1 MI5      0.248300
     10 N10         2.6500    0.1380    3.1700 nu        1 MI5     -0.568000
     11 C11         4.4320   -0.5930   -1.4150 c3        1 MI5     -0.115000
     12 C12        -1.1720   -0.2760   -1.5850 cc        1 MI5     -0.181100
     13 C13         4.4410   -2.0070   -2.0230 c3        1 MI5      0.165800
     14 N14         5.5810   -2.2130   -2.8970 n7        1 MI5     -0.821200
     15 C15         5.7070   -1.2130   -3.9410 c3        1 MI5      0.159800
     16 C16         5.6810    0.2180   -3.4050 c3        1 MI5     -0.078400
     17 C17         4.4700    0.4490   -2.5250 c3        1 MI5     -0.074400
     18 C18        -0.6460   -0.4570   -2.9280 cc        1 MI5      0.324200
     19 N19        -1.6570   -0.4960   -3.8270 nd        1 MI5     -0.515800
     20 N20        -2.8030   -0.3510   -3.1370 na        1 MI5      0.085400
     21 C21        -2.5690   -0.2110   -1.7650 cd        1 MI5     -0.144300
     22 C22        -4.1090   -0.3330   -3.7470 c3        1 MI5      0.042600
     23 C23         3.5010   -0.6920    3.8870 cc        1 MI5      0.125500
     24 S24         4.9470   -1.4230    3.3240 ss        1 MI5      0.202200
     25 N25         5.3940   -2.0740    4.7500 nc        1 MI5     -0.535100
     26 C26         4.5110   -1.7760    5.6980 cd        1 MI5      0.397600
     27 C27         3.3880   -0.9810    5.2460 cd        1 MI5     -0.338300
     28 C28         4.6200   -2.2060    7.1140 c3        1 MI5     -0.132400
     29 H05        -2.0590    0.1040    1.2100 h4        1 MI5      0.052800
     30 H08         4.5330   -0.2190    1.2340 ha        1 MI5      0.171000
     31 HN10        1.8460    0.4380    3.6920 hn        1 MI5      0.449800
     32 H11         5.3580   -0.4700   -0.7830 hc        1 MI5      0.071700
     33 H13         4.5140   -2.7620   -1.1920 h1        1 MI5      0.041200
     34 H13A        3.4600   -2.1720   -2.5580 h1        1 MI5      0.041200
     35 HN14        5.5290   -3.1280   -3.3060 hn        1 MI5      0.365800
     36 H15         6.6930   -1.3940   -4.4550 h1        1 MI5      0.030200
     37 H15A        4.8930   -1.3100   -4.7190 h1        1 MI5      0.030200
     38 H16         5.6590    0.9240   -4.2740 hc        1 MI5      0.048700
     39 H16A        6.6170    0.4210   -2.8230 hc        1 MI5      0.048700
     40 H17         3.5370    0.3830   -3.1440 hc        1 MI5      0.053700
     41 H17A        4.5110    1.4760   -2.0800 hc        1 MI5      0.053700
     42 H18         0.4010   -0.5530   -3.2210 h4        1 MI5      0.059100
     43 H21        -3.3730   -0.0830   -1.0440 h4        1 MI5      0.172000
     44 H22        -4.1930    0.5360   -4.4540 h1        1 MI5      0.056700
     45 H22A       -4.2820   -1.2840   -4.3190 h1        1 MI5      0.056700
     46 H22B       -4.8820   -0.2350   -2.9410 h1        1 MI5      0.056700
     47 H27         2.5830   -0.6680    5.9100 ha        1 MI5      0.170000
     48 H28         3.6780   -2.7280    7.4140 hc        1 MI5      0.058700
     49 H28A        5.4830   -2.8970    7.2780 hc        1 MI5      0.058700
     50 H28B        4.7550   -1.3040    7.7610 hc        1 MI5      0.058700
@<TRIPOS>BOND
     1    1    2 2   
     2    1    5 1   
     3    1   12 1   
     4    2    3 1   
     5    2    6 1   
     6    3    4 1   
     7    3    9 1   
     8    4    5 2   
     9    5   29 1   
    10    6    7 2   
    11    7    8 1   
    12    7   11 1   
    13    8    9 2   
    14    8   30 1   
    15    9   10 1   
    16   10   23 1   
    17   10   31 1   
    18   11   13 1   
    19   11   17 1   
    20   11   32 1   
    21   12   18 1   
    22   12   21 2   
    23   13   14 1   
    24   13   33 1   
    25   13   34 1   
    26   14   15 1   
    27   14   35 1   
    28   15   16 1   
    29   15   36 1   
    30   15   37 1   
    31   16   17 1   
    32   16   38 1   
    33   16   39 1   
    34   17   40 1   
    35   17   41 1   
    36   18   19 2   
    37   18   42 1   
    38   19   20 1   
    39   20   21 1   
    40   20   22 1   
    41   21   43 1   
    42   22   44 1   
    43   22   45 1   
    44   22   46 1   
    45   23   24 1   
    46   23   27 2   
    47   24   25 1   
    48   25   26 2   
    49   26   27 1   
    50   26   28 1   
    51   27   47 1   
    52   28   48 1   
    53   28   49 1   
    54   28   50 1   
@<TRIPOS>SUBSTRUCTURE
     1 MI5         1 TEMP              0 ****  ****    0 ROOT
