@<TRIPOS>MOLECULE
MI5
   50    54     1     0     0
SMALL
bcc


@<TRIPOS>ATOM
      1 C01        -0.4540   -0.1770   -0.3470 cc        1 MI5     -0.153800
      2 C02         0.9560   -0.2500   -0.1580 cd        1 MI5      0.384500
      3 N03         1.1440   -0.1080    1.2770 na        1 MI5      0.009200
      4 N04        -0.0190    0.0540    1.9250 nd        1 MI5     -0.576100
      5 C05        -0.9920    0.0110    0.9790 cc        1 MI5      0.384500
      6 N06         1.9970   -0.4230   -1.0340 nd        1 MI5     -0.643000
      7 C07         3.2250   -0.4220   -0.5270 cc        1 MI5      0.467600
      8 C08         3.4980   -0.2560    0.8790 cc        1 MI5     -0.326300
      9 C09         2.4560   -0.1010    1.7920 cd        1 MI5      0.248300
     10 N10         2.6780    0.1250    3.1690 nh        1 MI5     -0.568000
     11 C11         4.4220   -0.5960   -1.4310 c3        1 MI5     -0.115000
     12 C12        -1.1820   -0.2620   -1.5560 cc        1 MI5     -0.181100
     13 C13         4.4210   -2.0070   -2.0470 c3        1 MI5      0.165800
     14 N14         5.5530   -2.2130   -2.9310 n3        1 MI5     -0.821200
     15 C15         5.6750   -1.2090   -3.9700 c3        1 MI5      0.159800
     16 C16         5.6580    0.2200   -3.4270 c3        1 MI5     -0.078400
     17 C17         4.4550    0.4510   -2.5370 c3        1 MI5     -0.074400
     18 C18        -0.6680   -0.4410   -2.9030 cc        1 MI5      0.324200
     19 N19        -1.6860   -0.4750   -3.7950 nd        1 MI5     -0.515800
     20 N20        -2.8260   -0.3280   -3.0950 na        1 MI5      0.085400
     21 C21        -2.5800   -0.1930   -1.7250 cd        1 MI5     -0.144300
     22 C22        -4.1360   -0.3010   -3.6950 c3        1 MI5      0.042600
     23 C23         3.5330   -0.7090    3.8780 cc        1 MI5      0.125500
     24 S24         4.9710   -1.4430    3.3000 ss        1 MI5      0.202200
     25 N25         5.4280   -2.1000    4.7210 nc        1 MI5     -0.535100
     26 C26         4.5540   -1.8020    5.6760 cd        1 MI5      0.397600
     27 C27         3.4300   -1.0020    5.2360 cd        1 MI5     -0.338300
     28 C28         4.6740   -2.2350    7.0910 c3        1 MI5     -0.132400
     29 H05        -2.0460    0.1110    1.2470 h4        1 MI5      0.052800
     30 H08         4.5450   -0.2310    1.2180 ha        1 MI5      0.171000
     31 HN10        1.8790    0.4250    3.6990 hn        1 MI5      0.449800
     32 H11         5.3530   -0.4800   -0.8070 hc        1 MI5      0.071700
     33 H13         3.4350   -2.1660   -2.5750 h1        1 MI5      0.041200
     34 H13A        4.4970   -2.7670   -1.2200 h1        1 MI5      0.041200
     35 HN14        5.4940   -3.1260   -3.3440 hn        1 MI5      0.365800
     36 H15         6.6560   -1.3910   -4.4940 h1        1 MI5      0.030200
     37 H15A        4.8540   -1.2980   -4.7430 h1        1 MI5      0.030200
     38 H16         5.6320    0.9300   -4.2930 hc        1 MI5      0.048700
     39 H16A        6.6000    0.4160   -2.8510 hc        1 MI5      0.048700
     40 H17         4.5040    1.4760   -2.0870 hc        1 MI5      0.053700
     41 H17A        3.5170    0.3920   -3.1490 hc        1 MI5      0.053700
     42 H18         0.3760   -0.5400   -3.2060 h4        1 MI5      0.059100
     43 H21        -3.3790   -0.0640   -0.9980 h4        1 MI5      0.172000
     44 H22        -4.2270    0.5810   -4.3850 h1        1 MI5      0.056367
     45 H22A       -4.3110   -1.2410   -4.2840 h1        1 MI5      0.056367
     46 H22B       -4.9040   -0.2200   -2.8820 h1        1 MI5      0.056367
     47 H27         2.6310   -0.6880    5.9080 ha        1 MI5      0.170000
     48 H28         3.7230   -2.7300    7.4070 hc        1 MI5      0.058700
     49 H28A        5.5200   -2.9500    7.2400 hc        1 MI5      0.058700
     50 H28B        4.8450   -1.3370    7.7360 hc        1 MI5      0.058700
@<TRIPOS>BOND
     1    1    2 2   
     2    1    5 1   
     3    1   12 1   
     4    2    3 1   
     5    2    6 1   
     6    3    4 1   
     7    3    9 1   
     8    4    5 2   
     9    5   29 1   
    10    6    7 2   
    11    7    8 1   
    12    7   11 1   
    13    8    9 2   
    14    8   30 1   
    15    9   10 1   
    16   10   23 1   
    17   10   31 1   
    18   11   13 1   
    19   11   17 1   
    20   11   32 1   
    21   12   18 1   
    22   12   21 2   
    23   13   14 1   
    24   13   33 1   
    25   13   34 1   
    26   14   15 1   
    27   14   35 1   
    28   15   16 1   
    29   15   36 1   
    30   15   37 1   
    31   16   17 1   
    32   16   38 1   
    33   16   39 1   
    34   17   40 1   
    35   17   41 1   
    36   18   19 2   
    37   18   42 1   
    38   19   20 1   
    39   20   21 1   
    40   20   22 1   
    41   21   43 1   
    42   22   44 1   
    43   22   45 1   
    44   22   46 1   
    45   23   24 1   
    46   23   27 2   
    47   24   25 1   
    48   25   26 2   
    49   26   27 1   
    50   26   28 1   
    51   27   47 1   
    52   28   48 1   
    53   28   49 1   
    54   28   50 1   
@<TRIPOS>SUBSTRUCTURE
     1 MI5         1 TEMP              0 ****  ****    0 ROOT
