@<TRIPOS>MOLECULE
MI6
   74    78     1     0     0
SMALL
bcc


@<TRIPOS>ATOM
      1 C1         -3.6340   -0.8170   -1.9860 ca        1 MI6      0.064600
      2 C2         -4.5470   -1.8650   -2.0610 ca        1 MI6     -0.167000
      3 C3         -4.7410   -2.6380   -0.9040 ca        1 MI6      0.054400
      4 CL4        -5.8440   -3.9310   -0.9640 cl        1 MI6     -0.085400
      5 C5         -4.0600   -2.3670    0.2810 ca        1 MI6     -0.157000
      6 C6         -3.1450   -1.3070    0.3460 ca        1 MI6     -0.058000
      7 C7         -2.9110   -0.5350   -0.7760 ca        1 MI6     -0.127300
      8 C8         -2.0040    0.6400   -1.0080 c3        1 MI6     -0.061700
      9 C9         -2.3470    1.0160   -2.4900 c         1 MI6      0.690500
     10 O10        -1.8730    1.9510   -3.1450 o         1 MI6     -0.601500
     11 N11        -3.2730    0.0920   -2.9940 n         1 MI6     -0.473100
     12 C12        -2.2280    1.9150   -0.1240 c3        1 MI6      0.205500
     13 C13        -3.2570    1.7220    0.9920 c3        1 MI6     -0.070400
     14 C14        -3.9550    3.0040    1.4550 c3        1 MI6     -0.054000
     15 C15        -4.9200    3.5040    0.3890 c3        1 MI6     -0.089100
     16 C16        -4.7560    2.6590    2.7090 c3        1 MI6     -0.089100
     17 C17        -2.9680    4.1070    1.7990 c3        1 MI6     -0.089100
     18 N18        -0.9080    2.2830    0.4020 n3        1 MI6     -0.808200
     19 C19         0.1070    1.7060   -0.4720 c3        1 MI6      0.110500
     20 C20         1.5020    1.7290    0.1690 c         1 MI6      0.674100
     21 O21         1.8440    2.6680    0.9120 o         1 MI6     -0.593100
     22 N22         2.3880    0.7350   -0.1870 n         1 MI6     -0.577900
     23 C23         3.7490    0.7070    0.2700 c3        1 MI6      0.090000
     24 C24         4.7660    0.9130   -0.8800 c3        1 MI6      0.149800
     25 C31        -0.4750    0.3530   -0.9640 c3        1 MI6      0.009600
     26 C32        -0.0750   -0.8880   -0.2370 ca        1 MI6     -0.110300
     27 C33        -0.0850   -1.0640    1.1680 ca        1 MI6      0.161900
     28 F34        -0.5140   -0.0860    1.9940 f         1 MI6     -0.099900
     29 C35         0.3560   -2.2910    1.7270 ca        1 MI6     -0.031600
     30 CL36        0.3680   -2.5310    3.4080 cl        1 MI6     -0.063400
     31 C37         0.7870   -3.3300    0.9030 ca        1 MI6     -0.096000
     32 C38         0.7860   -3.1620   -0.4790 ca        1 MI6     -0.139000
     33 C39         0.3650   -1.9600   -1.0330 ca        1 MI6     -0.112000
     34 H2         -5.0980   -2.0850   -2.9850 ha        1 MI6      0.156000
     35 H5         -4.2380   -2.9820    1.1770 ha        1 MI6      0.154000
     36 H6         -2.6250   -1.0910    1.2930 ha        1 MI6      0.157000
     37 HN11       -3.7160    0.1500   -3.8740 hn        1 MI6      0.344500
     38 H12        -2.6180    2.7290   -0.8120 h1        1 MI6      0.045700
     39 H13        -4.0570    1.0270    0.6230 hc        1 MI6      0.059700
     40 H13A       -2.7630    1.2350    1.8760 hc        1 MI6      0.059700
     41 H15        -5.6650    2.7120    0.1350 hc        1 MI6      0.036367
     42 H15A       -5.4690    4.4010    0.7630 hc        1 MI6      0.036367
     43 H15B       -4.3740    3.7920   -0.5410 hc        1 MI6      0.036367
     44 H16        -4.0700    2.3510    3.5340 hc        1 MI6      0.036367
     45 H16A       -5.3440    3.5450    3.0460 hc        1 MI6      0.036367
     46 H16B       -5.4640    1.8210    2.4990 hc        1 MI6      0.036367
     47 H17        -2.5150    4.5350    0.8730 hc        1 MI6      0.036367
     48 H17A       -3.4940    4.9340    2.3360 hc        1 MI6      0.036367
     49 H17B       -2.1570    3.7150    2.4600 hc        1 MI6      0.036367
     50 HN18       -0.7910    3.2700    0.5160 hn        1 MI6      0.398800
     51 H19         0.2410    2.3380   -1.4130 h1        1 MI6      0.058700
     52 HN22        2.0970    0.0130   -0.8000 hn        1 MI6      0.309500
     53 H23         3.8970    1.5140    1.0440 h1        1 MI6      0.069200
     54 H23A        3.9350   -0.2920    0.7590 h1        1 MI6      0.069200
     55 H24         4.5900    0.1290   -1.6750 h1        1 MI6      0.034700
     56 H24A        4.5710    1.9190   -1.3480 h1        1 MI6      0.034700
     57 H31        -0.1180    0.2310   -2.0300 hc        1 MI6      0.068700
     58 H37         1.1250   -4.2810    1.3460 ha        1 MI6      0.155000
     59 H38         1.1190   -3.9830   -1.1310 ha        1 MI6      0.145000
     60 H39         0.3690   -1.8490   -2.1300 ha        1 MI6      0.140000
     61 N25         6.1410    0.8910   -0.4040 n3        1 MI6     -0.724600
     62 C29         8.5060    1.5120   -0.8610 c3        1 MI6      0.126400
     63 O28         8.9160    0.1720   -0.6170 os        1 MI6     -0.416600
     64 C27         8.0840   -0.4740    0.3390 c3        1 MI6      0.126400
     65 C26         6.6110   -0.4510   -0.0860 c3        1 MI6      0.133300
     66 C30         7.0440    1.5840   -1.3160 c3        1 MI6      0.133300
     67 H29A        8.6640    2.1280    0.0640 h1        1 MI6      0.054950
     68 H29B        9.1830    1.8670   -1.6810 h1        1 MI6      0.054950
     69 H27A        8.4590   -1.5300    0.3680 h1        1 MI6      0.054950
     70 H27B        8.2150    0.0110    1.3410 h1        1 MI6      0.054950
     71 H26A        5.9900   -0.8400    0.7680 h1        1 MI6      0.040200
     72 H26B        6.4810   -1.1540   -0.9600 h1        1 MI6      0.040200
     73 H30A        6.9760    1.1670   -2.3630 h1        1 MI6      0.040200
     74 H30B        6.7360    2.6660   -1.3500 h1        1 MI6      0.040200
@<TRIPOS>BOND
     1    1    2 ar  
     2    1    7 ar  
     3    1   11 1   
     4    2    3 ar  
     5    2   34 1   
     6    3    4 1   
     7    3    5 ar  
     8    5    6 ar  
     9    5   35 1   
    10    6    7 ar  
    11    6   36 1   
    12    7    8 1   
    13    8    9 1   
    14    8   12 1   
    15    8   25 1   
    16    9   10 2   
    17    9   11 1   
    18   11   37 1   
    19   12   13 1   
    20   12   18 1   
    21   12   38 1   
    22   13   14 1   
    23   13   39 1   
    24   13   40 1   
    25   14   15 1   
    26   14   16 1   
    27   14   17 1   
    28   15   41 1   
    29   15   42 1   
    30   15   43 1   
    31   16   44 1   
    32   16   45 1   
    33   16   46 1   
    34   17   47 1   
    35   17   48 1   
    36   17   49 1   
    37   18   19 1   
    38   18   50 1   
    39   19   20 1   
    40   19   25 1   
    41   19   51 1   
    42   20   21 2   
    43   20   22 1   
    44   22   23 1   
    45   22   52 1   
    46   23   24 1   
    47   23   53 1   
    48   23   54 1   
    49   24   55 1   
    50   24   56 1   
    51   24   61 1   
    52   25   26 1   
    53   25   57 1   
    54   26   27 ar  
    55   26   33 ar  
    56   27   28 1   
    57   27   29 ar  
    58   29   30 1   
    59   29   31 ar  
    60   31   32 ar  
    61   31   58 1   
    62   32   33 ar  
    63   32   59 1   
    64   33   60 1   
    65   61   65 1   
    66   61   66 1   
    67   62   63 1   
    68   62   66 1   
    69   62   67 1   
    70   62   68 1   
    71   63   64 1   
    72   64   65 1   
    73   64   69 1   
    74   64   70 1   
    75   65   71 1   
    76   65   72 1   
    77   66   73 1   
    78   66   74 1   
@<TRIPOS>SUBSTRUCTURE
     1 MI6         1 TEMP              0 ****  ****    0 ROOT
