@<TRIPOS>MOLECULE
MI6
   75    72     1     0     0
SMALL
bcc


@<TRIPOS>ATOM
      1 C1          1.0090   -0.1940    0.5810 ca        1 MI6      0.082000
      2 C2          2.3870   -0.0590    0.7310 ca        1 MI6     -0.143000
      3 C3          2.8720    0.2770    2.0050 ca        1 MI6     -0.011000
      4 Cl4         4.5400    0.4510    2.2260 cl        1 MI6      0.044000
      5 C5          2.0070    0.4660    3.0870 ca        1 MI6     -0.141000
      6 C6          0.6250    0.3330    2.9220 ca        1 MI6     -0.075000
      7 C7          0.1090    0.0110    1.6790 ca        1 MI6     -0.201000
      8 C8         -1.3060   -0.1630    1.1910 c3        1 MI6     -0.078000
      9 C9         -1.0650   -0.6320   -0.3180 c2        1 MI6      0.333000
     10 O10        -1.9420   -1.0280   -1.0830 o         1 MI6     -0.268000
     11 N11         0.2980   -0.5410   -0.5820 ns        1 MI6     -0.312000
     12 C12        -2.0980   -1.3050    1.8700 c3        1 MI6     -0.021000
     13 C13        -1.2220   -2.5440    2.0870 c3        1 MI6     -0.158000
     14 C14        -1.9680   -3.6640    2.7310 c2        1 MI6     -0.183000
     15 C15        -4.9310   -2.6800   -0.5020 c3        1 MI6     -0.278000
     16 C16        -1.4720   -4.0810    4.0660 c3        1 MI6     -0.189000
     17 C17        -2.9660   -4.2990    2.1070 c2        1 MI6     -0.171000
     18 N18        -2.7010   -0.8450    3.1850 ny        1 MI6      0.064000
     19 C19        -4.0040   -0.2600    2.9970 c2        1 MI6     -0.450000
     20 C20        -5.0400   -0.4550    3.8130 c1        1 MI6      0.369000
     21 O21        -5.9780   -0.6250    4.5050 o         1 MI6     -0.039000
     22 N22        -6.4250    1.6770    2.8560 n9        1 MI6     -0.438000
     23 C23        -4.7970    4.6300    4.2370 c2        1 MI6     -0.341500
     24 C24        -4.4520    5.8370    4.7300 c2        1 MI6     -0.006500
     25 C31        -2.1760    1.0090    1.0550 c1        1 MI6     -0.000000
     26 C32        -1.9110    2.3680    1.3500 c2        1 MI6     -0.197000
     27 C33        -1.6940    2.8900    2.6090 c2        1 MI6      0.104000
     28 F34        -1.7140    2.0960    3.7020 f         1 MI6     -0.112000
     29 C35        -1.6170    4.3750    2.8400 c3        1 MI6     -0.137000
     30 Cl36       -0.1420    4.7620    3.7180 cl        1 MI6      0.001000
     31 C37        -1.6810    5.2280    1.6500 c1        1 MI6     -0.001000
     32 C38        -1.9940    4.6280    0.3990 c2        1 MI6     -0.224000
     33 C39        -2.0700    3.2840    0.2280 c2        1 MI6      0.012000
     34 H2          3.0760   -0.2070   -0.1150 ha        1 MI6      0.174000
     35 H5          2.4130    0.7300    4.0770 ha        1 MI6      0.168000
     36 H6         -0.0300    0.5070    3.7890 ha        1 MI6      0.130000
     37 HN11        0.7220   -0.7870   -1.4440 hn        1 MI6      0.283000
     38 H12        -2.9680   -1.5750    1.1840 hx        1 MI6      0.192000
     39 H13        -0.3120   -2.2770    2.6910 hc        1 MI6      0.132000
     40 H13A       -0.8620   -2.8640    1.0690 hc        1 MI6      0.132000
     41 H15        -4.8640   -3.7750   -0.6810 hc        1 MI6      0.070250
     42 H15A       -3.9920   -2.1860   -0.8410 hc        1 MI6      0.070250
     43 H15B       -5.7900   -2.2670   -1.0730 hc        1 MI6      0.070250
     44 H16        -2.1270   -4.8660    4.5180 hc        1 MI6      0.091000
     45 H16A       -1.4270   -3.2100    4.7670 hc        1 MI6      0.091000
     46 H16B       -0.4380   -4.5020    3.9740 hc        1 MI6      0.091000
     47 H17        -3.3140   -4.0160    1.1010 ha        1 MI6      0.137000
     48 H17A       -5.0860   -2.4900    0.5830 hc        1 MI6      0.070250
     49 H17B       -3.4930   -5.1510    2.5610 ha        1 MI6      0.137000
     50 HN18       -2.7500   -1.6590    3.8130 hn        1 MI6      0.243500
     51 H19        -2.0820   -0.1380    3.6110 hn        1 MI6      0.243500
     52 HN22       -6.5310    1.7740    1.8670 hn        1 MI6      0.149667
     53 H23        -6.1070    2.5490    3.2330 hn        1 MI6      0.149667
     54 H23A       -4.9690    3.7410    4.8510 ha        1 MI6      0.121000
     55 H24        -4.3260    6.6940    4.0320 h4        1 MI6      0.143500
     56 H24A       -4.9640    4.5110    3.1610 ha        1 MI6      0.121000
     57 H31        -4.1220    0.3950    2.1030 hx        1 MI6      0.271000
     58 H37        -2.4820    4.6870    3.5180 h1        1 MI6      0.211000
     59 H38        -2.1330    5.3140   -0.4570 ha        1 MI6      0.179000
     60 H39        -2.2560    2.8280   -0.7610 ha        1 MI6      0.161000
     61 N25        -4.1770    6.1440    6.0560 n3        1 MI6     -0.235000
     62 C29        -4.1680    8.0140    7.6470 c2        1 MI6     -0.341500
     63 O28        -3.9670    5.9410   10.4300 o         1 MI6     -0.225000
     64 C27        -3.7730    6.1520   11.5680 c1        1 MI6      0.226000
     65 C26        -4.4030    5.1490    7.0690 c3        1 MI6     -0.087000
     66 C30        -4.0430    7.4950    6.4160 c2        1 MI6     -0.006500
     67 H29A       -3.9940    9.0860    7.8080 ha        1 MI6      0.121000
     68 H29B       -4.4320    7.4420    8.5440 ha        1 MI6      0.121000
     69 H27A       -3.9330    5.4700    8.0370 h1        1 MI6      0.085000
     70 H27B       -5.5010    4.9780    7.2370 h1        1 MI6      0.085000
     71 H26A       -3.6120    6.6180    1.5970 ha        1 MI6      0.006500
     72 H26B       -3.9330    4.1810    6.7490 h1        1 MI6      0.085000
     73 H30A       -3.7830    8.1490    5.5580 h4        1 MI6      0.143500
     74 H30B       -3.9240    6.0740    1.8590 ha        1 MI6      0.006500
     75 H222       -7.3160    1.4620    3.2550 hn        1 MI6      0.149667
@<TRIPOS>BOND
     1    1    2 1   
     2    1    7 1   
     3    1   11 1   
     4    2    3 1   
     5    2   34 1   
     6    3    4 1   
     7    3    5 1   
     8    5    6 1   
     9    5   35 1   
    10    6    7 1   
    11    6   36 1   
    12    7    8 1   
    13    8    9 1   
    14    8   12 1   
    15    8   25 1   
    16    9   10 1   
    17    9   11 1   
    18   11   37 1   
    19   12   13 1   
    20   12   18 1   
    21   12   38 1   
    22   13   14 1   
    23   13   39 1   
    24   13   40 1   
    25   14   16 1   
    26   14   17 1   
    27   15   41 1   
    28   15   42 1   
    29   15   43 1   
    30   15   48 1   
    31   16   44 1   
    32   16   45 1   
    33   16   46 1   
    34   17   47 1   
    35   17   49 1   
    36   18   19 1   
    37   18   50 1   
    38   18   51 1   
    39   19   20 1   
    40   19   57 1   
    41   20   21 1   
    42   22   52 1   
    43   22   53 1   
    44   22   75 1   
    45   23   24 1   
    46   23   54 1   
    47   23   56 1   
    48   24   55 1   
    49   24   61 1   
    50   25   26 1   
    51   26   27 1   
    52   26   33 1   
    53   27   28 1   
    54   27   29 1   
    55   29   30 1   
    56   29   31 1   
    57   29   58 1   
    58   31   32 1   
    59   32   33 1   
    60   32   59 1   
    61   33   60 1   
    62   61   65 1   
    63   61   66 1   
    64   62   66 1   
    65   62   67 1   
    66   62   68 1   
    67   63   64 1   
    68   65   69 1   
    69   65   70 1   
    70   65   72 1   
    71   66   73 1   
    72   71   74 1   
@<TRIPOS>SUBSTRUCTURE
     1 MI6         1 TEMP              0 ****  ****    0 ROOT
