@<TRIPOS>MOLECULE
MI6
   75    76     1     0     0
SMALL
bcc


@<TRIPOS>ATOM
      1 C1          0.3170   -0.1010   -0.5990 c3        1 MI6     -0.038000
      2 C2          1.4420   -0.9930   -0.9250 c1        1 MI6     -0.005000
      3 C3          2.3450   -1.2240    0.1620 c2        1 MI6     -0.172000
      4 CL4         3.7980   -2.0100   -0.2120 cl        1 MI6      0.039000
      5 C5          2.0660   -0.8750    1.4560 c2        1 MI6     -0.026000
      6 C6          0.7810   -0.3230    1.8170 c2        1 MI6     -0.147000
      7 C7         -0.1220   -0.0420    0.8560 c2        1 MI6     -0.086000
      8 C8         -1.5820    0.2820    0.8900 c3        1 MI6     -0.048000
      9 C9         -2.0160   -0.0160   -0.5840 c2        1 MI6      0.298000
     10 O10        -3.1890   -0.0780   -0.9740 o         1 MI6     -0.326000
     11 N11        -0.8950   -0.1580   -1.3920 n         1 MI6     -0.329000
     12 C12        -2.4800   -0.5750    1.8250 c3        1 MI6     -0.047000
     13 C13        -1.8330   -1.8200    2.4190 c3        1 MI6     -0.150000
     14 C14        -2.8210   -2.6490    3.1710 c2        1 MI6     -0.158000
     15 C15        -5.9130   -1.7000    0.3170 c3        1 MI6     -0.279000
     16 C16        -2.6220   -2.7080    4.6400 c3        1 MI6     -0.184000
     17 C17        -3.7900   -3.3290    2.5500 c2        1 MI6     -0.187000
     18 N18        -3.0090    0.3620    2.8860 n4        1 MI6      0.112000
     19 C19        -2.9440    1.6860    2.3140 c2        1 MI6     -0.585000
     20 C20        -3.8870    2.6660    2.7060 c2        1 MI6      0.391000
     21 O21        -4.8000    2.4320    3.5700 o         1 MI6     -0.586000
     22 N22        -3.7970    3.9540    2.1820 n         1 MI6     -0.402000
     23 C23        -2.9620    4.7240    7.2950 c3        1 MI6     -0.251000
     24 C24        -4.3900    4.2530    7.5070 c3        1 MI6     -0.087000
     25 C31        -1.9260    1.7680    1.2350 c3        1 MI6      0.078000
     26 C32        -0.7360    2.6070    1.5900 ca        1 MI6     -0.101000
     27 C33        -0.1440    2.6120    2.8740 ca        1 MI6      0.110000
     28 F34        -0.5890    1.7780    3.8460 f         1 MI6     -0.108000
     29 C35         0.9350    3.4870    3.1500 ca        1 MI6     -0.103000
     30 CL36        1.6630    3.5250    4.6840 cl        1 MI6      0.014000
     31 C37         1.4200    4.3360    2.1540 ca        1 MI6     -0.097000
     32 C38         0.8420    4.3230    0.8880 ca        1 MI6     -0.128000
     33 C39        -0.2240    3.4710    0.6140 ca        1 MI6     -0.118000
     34 H2          0.8260    0.9160   -0.8270 h1        1 MI6      0.181000
     35 H5          2.7840   -1.0560    2.2760 ha        1 MI6      0.162000
     36 H6          0.5740   -0.1750    2.8890 ha        1 MI6      0.155000
     37 HN11       -0.9020   -0.6480   -2.2550 hn        1 MI6      0.270000
     38 H12        -3.3910   -0.8980    1.2210 hx        1 MI6      0.164000
     39 H13        -0.9770   -1.5460    3.0930 hc        1 MI6      0.118500
     40 H13A       -1.4060   -2.4160    1.5650 hc        1 MI6      0.118500
     41 H15        -6.9400   -1.2930    0.1920 hc        1 MI6      0.070000
     42 H15A       -5.1950   -1.0800   -0.2660 hc        1 MI6      0.070000
     43 H15B       -5.6370   -1.6820    1.3950 hc        1 MI6      0.070000
     44 H16        -3.4340   -3.2930    5.1380 hc        1 MI6      0.085333
     45 H16A       -2.6080   -1.6790    5.0770 hc        1 MI6      0.085333
     46 H16B       -1.6430   -3.1990    4.8740 hc        1 MI6      0.085333
     47 H17        -4.5050   -3.9600    3.0950 ha        1 MI6      0.129500
     48 H17A       -3.9280   -3.3030    1.4600 ha        1 MI6      0.129500
     49 H17B       -5.8840   -2.7480   -0.0520 hc        1 MI6      0.070000
     50 HN18       -3.9720    0.1320    3.1430 hn        1 MI6      0.221500
     51 H19        -2.4200    0.3110    3.7240 hn        1 MI6      0.221500
     52 HN22       -3.2310    4.0830    1.3780 hn        1 MI6      0.200500
     53 H23        -2.2720    4.0870    7.9000 hc        1 MI6      0.092333
     54 H23A       -2.6630    4.6440    6.2220 hc        1 MI6      0.092333
     55 H24        -4.6340    4.3180    8.6070 h1        1 MI6      0.093000
     56 H24A       -4.4670    3.1720    7.1990 h1        1 MI6      0.093000
     57 H31        -2.4060    2.2250    0.3190 hc        1 MI6      0.111000
     58 H37         2.2610    5.0150    2.3730 ha        1 MI6      0.162000
     59 H38         1.2280    4.9930    0.1030 ha        1 MI6      0.153000
     60 H39        -0.6760    3.4790   -0.3920 ha        1 MI6      0.146000
     61 N25        -5.4280    4.9980    6.8160 n3        1 MI6     -0.343000
     62 C29        -6.4890    3.6120    5.0760 c3        1 MI6      0.017000
     63 O28        -7.8420    3.9610    5.6690 os        1 MI6     -0.013000
     64 C27        -7.9890    3.9090    6.9100 c1        1 MI6      0.236000
     65 C26        -8.2640    3.8750    8.1700 c2        1 MI6     -0.168000
     66 C30        -5.5200    4.7410    5.3930 c3        1 MI6     -0.132000
     67 H29A       -6.1870    2.6180    5.4860 h1        1 MI6      0.169000
     68 H29B       -6.7550    3.5560    3.9860 h1        1 MI6      0.169000
     69 H27A       -8.0330    4.7340    8.8320 ha        1 MI6      0.237500
     70 H27B       -8.7480    3.0020    8.6490 ha        1 MI6      0.237500
     71 H26A       -2.8350    5.7850    7.6210 hc        1 MI6      0.092333
     72 H26B       -5.3060    5.9830    6.9760 hn        1 MI6      0.181000
     73 H30A       -4.5400    4.4140    4.9200 h1        1 MI6      0.138000
     74 H30B       -5.8640    5.6750    4.8630 h1        1 MI6      0.138000
     75 H222       -4.6190    4.5050    2.2260 hn        1 MI6      0.200500
@<TRIPOS>BOND
     1    1    2 1   
     2    1    7 1   
     3    1   11 1   
     4    1   34 1   
     5    2    3 1   
     6    3    4 1   
     7    3    5 1   
     8    5    6 1   
     9    5   35 1   
    10    6    7 1   
    11    6   36 1   
    12    7    8 1   
    13    8    9 1   
    14    8   12 1   
    15    8   25 1   
    16    9   10 1   
    17    9   11 1   
    18   11   37 1   
    19   12   13 1   
    20   12   18 1   
    21   12   38 1   
    22   13   14 1   
    23   13   39 1   
    24   13   40 1   
    25   14   16 1   
    26   14   17 1   
    27   15   41 1   
    28   15   42 1   
    29   15   43 1   
    30   15   49 1   
    31   16   44 1   
    32   16   45 1   
    33   16   46 1   
    34   17   47 1   
    35   17   48 1   
    36   18   19 1   
    37   18   50 1   
    38   18   51 1   
    39   19   20 1   
    40   19   25 1   
    41   20   21 1   
    42   20   22 1   
    43   22   52 1   
    44   22   75 1   
    45   23   24 1   
    46   23   53 1   
    47   23   54 1   
    48   23   71 1   
    49   24   55 1   
    50   24   56 1   
    51   24   61 1   
    52   25   26 1   
    53   25   57 1   
    54   26   27 1   
    55   26   33 1   
    56   27   28 1   
    57   27   29 1   
    58   29   30 1   
    59   29   31 1   
    60   31   32 1   
    61   31   58 1   
    62   32   33 1   
    63   32   59 1   
    64   33   60 1   
    65   61   66 1   
    66   61   72 1   
    67   62   63 1   
    68   62   66 1   
    69   62   67 1   
    70   62   68 1   
    71   63   64 1   
    72   64   65 1   
    73   65   69 1   
    74   65   70 1   
    75   66   73 1   
    76   66   74 1   
@<TRIPOS>SUBSTRUCTURE
     1 MI6         1 TEMP              0 ****  ****    0 ROOT
