@<TRIPOS>MOLECULE
MIA
   54    56     1     0     0
SMALL
bcc


@<TRIPOS>ATOM
      1 OP3        -1.9000   -1.2380   -7.1370 o         1 MIA     -0.928833
      2 P          -1.5830   -1.4210   -5.6870 p5        1 MIA      1.333900
      3 OP1        -2.7060   -1.7040   -4.7320 o         1 MIA     -0.928833
      4 OP2        -0.2950   -2.1480   -5.3480 o         1 MIA     -0.928833
      5 O5'        -1.0890    0.1730   -5.1650 os        1 MIA     -0.553200
      6 C5'        -0.8190    0.2500   -3.8280 c3        1 MIA      0.227400
      7 C4'         0.7100    0.2550   -3.5810 c3        1 MIA      0.049100
      8 O4'         1.0300    1.1130   -2.4550 os        1 MIA     -0.432600
      9 C3'         1.2960   -1.1420   -3.3000 c3        1 MIA      0.128100
     10 O3'         2.1560   -1.5450   -4.3380 oh        1 MIA     -0.681800
     11 C2'         2.1160   -0.9950   -1.9990 c3        1 MIA      0.102100
     12 O2'         3.5160   -0.9610   -2.1750 oh        1 MIA     -0.613800
     13 C1'         1.6680    0.3890   -1.4180 c3        1 MIA      0.216800
     14 N9          0.7630    0.2730   -0.2770 na        1 MIA     -0.254000
     15 C8         -0.6280    0.0280   -0.3150 cc        1 MIA      0.459700
     16 N7         -1.2110    0.0240    0.8990 nd        1 MIA     -0.589100
     17 C5         -0.1720    0.2880    1.8000 ca        1 MIA     -0.205200
     18 C6         -0.1240    0.4070    3.2230 ca        1 MIA      0.717200
     19 N6         -1.3180    0.3410    3.9510 nh        1 MIA     -0.837900
     20 N1          1.0730    0.6480    3.8340 nb        1 MIA     -0.813000
     21 C2          2.1810    0.8030    3.0380 ca        1 MIA      0.754300
     22 N3          2.2790    0.7290    1.6860 nb        1 MIA     -0.685000
     23 C4          1.0870    0.4600    1.0710 ca        1 MIA      0.443800
     24 S10         3.6920    1.1360    3.8420 ss        1 MIA     -0.251400
     25 C11         3.3050    1.2390    5.5450 c3        1 MIA     -0.053000
     26 C12        -1.2730    0.0310    5.3600 c3        1 MIA      0.202800
     27 C13        -2.6630   -0.1980    5.9570 c3        1 MIA     -0.091400
     28 C14        -2.5750   -0.4880    7.4480 c3        1 MIA     -0.064700
     29 C15        -3.9160   -0.2320    8.1060 c3        1 MIA     -0.090100
     30 C16        -2.1300   -1.9120    7.7100 c3        1 MIA     -0.090100
     31 H5'        -1.2930   -0.6110   -3.2720 h1        1 MIA     -0.002800
     32 H5''       -1.2190    1.2210   -3.4100 h1        1 MIA     -0.002800
     33 H4'         1.2240    0.7270   -4.4620 h1        1 MIA      0.080700
     34 H3'         0.4760   -1.9030   -3.1690 h1        1 MIA      0.116700
     35 HO3'        1.5590   -1.8750   -5.0550 ho        1 MIA      0.515000
     36 H2'         1.9220   -1.8390   -1.2880 h1        1 MIA      0.067700
     37 HO2'        3.6920   -0.7890   -3.1110 ho        1 MIA      0.430000
     38 H1'         2.5570    0.9980   -1.0830 h2        1 MIA      0.093700
     39 H8         -1.1420   -0.1330   -1.2840 h5        1 MIA      0.127800
     40 HN6        -2.0690   -0.0820    3.4460 hn        1 MIA      0.431800
     41 H111        4.2750    1.4740    6.0450 h1        1 MIA      0.061700
     42 H112        2.5720    2.0450    5.7700 h1        1 MIA      0.061700
     43 H113        2.9050    0.2840    5.9520 h1        1 MIA      0.061700
     44 H121       -0.6380   -0.8820    5.5580 h1        1 MIA      0.040700
     45 H122       -0.7830    0.8980    5.8890 h1        1 MIA      0.040700
     46 H131       -3.2940    0.7150    5.7930 hc        1 MIA      0.049200
     47 H132       -3.1720   -1.0540    5.4400 hc        1 MIA      0.049200
     48 H14        -1.8170    0.2110    7.9050 hc        1 MIA      0.046700
     49 H151       -3.8620   -0.4600    9.1980 hc        1 MIA      0.031533
     50 H152       -4.2150    0.8370    7.9810 hc        1 MIA      0.031533
     51 H153       -4.7050   -0.8750    7.6480 hc        1 MIA      0.031533
     52 H161       -2.8580   -2.6370    7.2730 hc        1 MIA      0.031533
     53 H162       -1.1280   -2.1000    7.2560 hc        1 MIA      0.031533
     54 H163       -2.0620   -2.0990    8.8090 hc        1 MIA      0.031533
@<TRIPOS>BOND
     1    1    2 1   
     2    2    3 1   
     3    2    4 1   
     4    2    5 1   
     5    5    6 1   
     6    6    7 1   
     7    6   31 1   
     8    6   32 1   
     9    7    8 1   
    10    7    9 1   
    11    7   33 1   
    12    8   13 1   
    13    9   10 1   
    14    9   11 1   
    15    9   34 1   
    16   10   35 1   
    17   11   12 1   
    18   11   13 1   
    19   11   36 1   
    20   12   37 1   
    21   13   14 1   
    22   13   38 1   
    23   14   15 1   
    24   14   23 1   
    25   15   16 2   
    26   15   39 1   
    27   16   17 1   
    28   17   18 ar  
    29   17   23 ar  
    30   18   19 1   
    31   18   20 ar  
    32   19   26 1   
    33   19   40 1   
    34   20   21 ar  
    35   21   22 ar  
    36   21   24 1   
    37   22   23 ar  
    38   24   25 1   
    39   25   41 1   
    40   25   42 1   
    41   25   43 1   
    42   26   27 1   
    43   26   44 1   
    44   26   45 1   
    45   27   28 1   
    46   27   46 1   
    47   27   47 1   
    48   28   29 1   
    49   28   30 1   
    50   28   48 1   
    51   29   49 1   
    52   29   50 1   
    53   29   51 1   
    54   30   52 1   
    55   30   53 1   
    56   30   54 1   
@<TRIPOS>SUBSTRUCTURE
     1 MIA         1 TEMP              0 ****  ****    0 ROOT
