@<TRIPOS>MOLECULE
MIB
   28    29     1     0     0
SMALL
bcc


@<TRIPOS>ATOM
      1 O1         -0.1710   -0.2430    0.0650 o         1 MIB     -0.552100
      2 CO          1.0610   -0.1010    0.0620 c         1 MIB      0.568300
      3 CM          1.8440   -0.0060    1.3340 c3        1 MIB     -0.196100
      4 CA          1.8560   -0.0130   -1.1670 ce        1 MIB     -0.304200
      5 CB          1.2960   -0.0810   -2.3900 cf        1 MIB      0.017000
      6 CG          2.0090   -0.0030   -3.6250 cd        1 MIB     -0.140200
      7 CD1         3.3900    0.1530   -3.8120 cc        1 MIB     -0.059100
      8 CD2         1.4130   -0.0720   -4.9480 ca        1 MIB     -0.071800
      9 NE1         3.6940    0.1980   -5.1710 na        1 MIB     -0.070400
     10 CN1         5.0010    0.2790   -5.7320 c3        1 MIB      0.027600
     11 CE2         2.4980    0.0500   -5.8940 ca        1 MIB     -0.050200
     12 CE3         0.1080   -0.2190   -5.4150 ca        1 MIB     -0.085000
     13 CZ2         2.2580    0.0230   -7.2760 ca        1 MIB     -0.137000
     14 CZ3        -0.1150   -0.2450   -6.7850 ca        1 MIB     -0.148000
     15 CH2         0.9460   -0.1260   -7.7000 ca        1 MIB     -0.115000
     16 HM1         2.5950   -0.8320    1.3760 hc        1 MIB      0.060033
     17 HM2         2.3850    0.9710    1.3710 hc        1 MIB      0.060033
     18 HM3         1.1690   -0.0830    2.2200 hc        1 MIB      0.060033
     19 HA          2.9400    0.1130   -1.0310 ha        1 MIB      0.124000
     20 HB          0.1980   -0.2080   -2.4800 ha        1 MIB      0.148000
     21 HD1         4.1780    0.2430   -3.0600 h4        1 MIB      0.169000
     22 HN1         5.3780   -0.7450   -6.0040 h1        1 MIB      0.052700
     23 HN2         5.7040    0.7410   -4.9900 h1        1 MIB      0.052700
     24 HN3         4.9740    0.9110   -6.6610 h1        1 MIB      0.052700
     25 HE3        -0.7260   -0.3120   -4.7040 ha        1 MIB      0.140000
     26 HZ2         3.0820    0.1150   -7.9960 ha        1 MIB      0.133000
     27 HZ3        -1.1400   -0.3610   -7.1680 ha        1 MIB      0.133000
     28 HH2         0.7270   -0.1520   -8.7780 ha        1 MIB      0.131000
@<TRIPOS>BOND
     1    1    2 2   
     2    2    3 1   
     3    2    4 1   
     4    3   16 1   
     5    3   17 1   
     6    3   18 1   
     7    4    5 2   
     8    4   19 1   
     9    5    6 1   
    10    5   20 1   
    11    6    7 2   
    12    6    8 1   
    13    7    9 1   
    14    7   21 1   
    15    8   11 ar  
    16    8   12 ar  
    17    9   10 1   
    18    9   11 1   
    19   10   22 1   
    20   10   23 1   
    21   10   24 1   
    22   11   13 ar  
    23   12   14 ar  
    24   12   25 1   
    25   13   15 ar  
    26   13   26 1   
    27   14   15 ar  
    28   14   27 1   
    29   15   28 1   
@<TRIPOS>SUBSTRUCTURE
     1 MIB         1 TEMP              0 ****  ****    0 ROOT
