@<TRIPOS>MOLECULE
MIB
   28    22     1     0     0
SMALL
bcc


@<TRIPOS>ATOM
      1 O1          0.3510    0.9030    2.4090 o         1 MIB     -0.334000
      2 CO          1.6690    0.9030    2.4900 c1        1 MIB      0.276000
      3 CM          2.3550    1.1740    3.8490 c2        1 MIB     -0.169000
      4 CA          2.4880    0.7890    1.2530 c2        1 MIB     -0.291000
      5 CB          1.9170    0.3050    0.0870 c1        1 MIB      0.031000
      6 CG          0.4250   -0.1200    0.0700 c1        1 MIB     -0.117500
      7 CD1         0.1120   -1.4650    0.2010 c1        1 MIB     -0.003000
      8 CD2        -0.4340    0.4190   -0.8170 c1        1 MIB     -0.117500
      9 NE1        -0.9630   -1.7370   -0.6270 n2        1 MIB     -0.166000
     10 CN1        -1.4820   -3.0160   -0.6980 c2        1 MIB     -0.169000
     11 CE2        -1.3050   -0.5980   -1.2530 c1        1 MIB     -0.003000
     12 CE3        -0.5220    1.6800   -1.3590 c1        1 MIB     -0.123750
     13 CZ2        -2.2920   -0.3210   -2.2680 c1        1 MIB     -0.123750
     14 CZ3        -1.4920    1.9570   -2.3590 c1        1 MIB     -0.123750
     15 CH2        -2.3800    0.9210   -2.8030 c1        1 MIB     -0.123750
     16 HM1         2.6470    2.1370    3.8890 ha        1 MIB      0.096167
     17 HM2         3.0960    0.6220    3.9400 ha        1 MIB      0.096167
     18 HM3         1.6790    0.9800    4.6230 ha        1 MIB      0.096167
     19 HA          3.3390    1.0300    1.2630 ha        1 MIB      0.127000
     20 HB          2.4050    0.2380   -0.6480 ha        1 MIB      0.120000
     21 HD1         0.6310   -2.1500    0.7560 DU        1 MIB      0.208000
     22 HN1        -1.0040   -3.6270    0.0240 ha        1 MIB      0.096167
     23 HN2        -2.4430   -2.9880   -0.5190 ha        1 MIB      0.096167
     24 HN3        -1.3300   -3.3840   -1.5860 ha        1 MIB      0.096167
     25 HE3         0.0820    2.3830   -1.0580 ha        1 MIB      0.131250
     26 HZ2        -2.9340   -1.0710   -2.5890 ha        1 MIB      0.131250
     27 HZ3        -1.5590    2.9220   -2.7720 ha        1 MIB      0.131250
     28 HH2        -3.0570    1.1120   -3.4980 ha        1 MIB      0.131250
@<TRIPOS>BOND
     1    1    2 1   
     2    2    4 1   
     3    3   16 1   
     4    3   17 1   
     5    3   18 1   
     6    4    5 1   
     7    4   19 1   
     8    5   20 1   
     9    6    7 1   
    10    6    8 1   
    11    7    9 1   
    12    8   11 1   
    13    9   11 1   
    14   10   22 1   
    15   10   23 1   
    16   10   24 1   
    17   12   14 1   
    18   12   25 1   
    19   13   15 1   
    20   13   26 1   
    21   14   27 1   
    22   15   28 1   
@<TRIPOS>SUBSTRUCTURE
     1 MIB         1 TEMP              0 ****  ****    0 ROOT
