@<TRIPOS>MOLECULE
MIB
   28    29     1     0     0
SMALL
bcc


@<TRIPOS>ATOM
      1 O1         -0.1760   -0.1890    0.0650 o         1 MIB     -0.552100
      2 CO          1.0590   -0.0770    0.0620 c         1 MIB      0.568300
      3 CM          1.8440   -0.0020    1.3340 c3        1 MIB     -0.196100
      4 CA          1.8560   -0.0090   -1.1670 ce        1 MIB     -0.304200
      5 CB          1.2940   -0.0620   -2.3900 cf        1 MIB      0.017000
      6 CG          2.0090   -0.0020   -3.6250 cd        1 MIB     -0.140200
      7 CD1         3.3940    0.1190   -3.8120 cc        1 MIB     -0.059100
      8 CD2         1.4120   -0.0540   -4.9480 ca        1 MIB     -0.071800
      9 NE1         3.6980    0.1570   -5.1710 na        1 MIB     -0.070400
     10 CN1         5.0070    0.2050   -5.7320 c3        1 MIB      0.027600
     11 CE2         2.4990    0.0410   -5.8940 ca        1 MIB     -0.050200
     12 CE3         0.1020   -0.1670   -5.4160 ca        1 MIB     -0.085000
     13 CZ2         2.2580    0.0210   -7.2760 ca        1 MIB     -0.137000
     14 CZ3        -0.1210   -0.1860   -6.7850 ca        1 MIB     -0.148000
     15 CH2         0.9420   -0.0940   -7.7000 ca        1 MIB     -0.115000
     16 HM1         2.5730   -0.8480    1.3770 hc        1 MIB      0.060033
     17 HM2         2.4100    0.9600    1.3710 hc        1 MIB      0.060033
     18 HM3         1.1670   -0.0610    2.2200 hc        1 MIB      0.060033
     19 HA          2.9430    0.0890   -1.0310 ha        1 MIB      0.124000
     20 HB          0.1940   -0.1610   -2.4800 ha        1 MIB      0.148000
     21 HD1         4.1840    0.1880   -3.0600 h4        1 MIB      0.169000
     22 HN1         5.3570   -0.8280   -6.0050 h1        1 MIB      0.052700
     23 HN2         5.7220    0.6490   -4.9890 h1        1 MIB      0.052700
     24 HN3         4.9960    0.8380   -6.6600 h1        1 MIB      0.052700
     25 HE3        -0.7330   -0.2390   -4.7040 ha        1 MIB      0.140000
     26 HZ2         3.0840    0.0930   -7.9960 ha        1 MIB      0.133000
     27 HZ3        -1.1480   -0.2760   -7.1690 ha        1 MIB      0.133000
     28 HH2         0.7230   -0.1130   -8.7780 ha        1 MIB      0.131000
@<TRIPOS>BOND
     1    1    2 2   
     2    2    3 1   
     3    2    4 1   
     4    3   16 1   
     5    3   17 1   
     6    3   18 1   
     7    4    5 2   
     8    4   19 1   
     9    5    6 1   
    10    5   20 1   
    11    6    7 2   
    12    6    8 1   
    13    7    9 1   
    14    7   21 1   
    15    8   11 ar  
    16    8   12 ar  
    17    9   10 1   
    18    9   11 1   
    19   10   22 1   
    20   10   23 1   
    21   10   24 1   
    22   11   13 ar  
    23   12   14 ar  
    24   12   25 1   
    25   13   15 ar  
    26   13   26 1   
    27   14   15 ar  
    28   14   27 1   
    29   15   28 1   
@<TRIPOS>SUBSTRUCTURE
     1 MIB         1 TEMP              0 ****  ****    0 ROOT
