@<TRIPOS>MOLECULE
MIB
   28    29     1     0     0
SMALL
bcc


@<TRIPOS>ATOM
      1 O1          4.0780   -1.5950   -0.0650 o         1 MIB     -0.552100
      2 CO          3.9450   -0.3630   -0.0280 c         1 MIB      0.568300
      3 CM          5.1290    0.5540   -0.0050 c3        1 MIB     -0.196100
      4 CA          2.6400    0.3040   -0.0040 ce        1 MIB     -0.304200
      5 CB          1.4820   -0.3840   -0.0190 cf        1 MIB      0.017000
      6 CG          0.1800    0.2000    0.0030 cd        1 MIB     -0.140200
      7 CD1        -0.1510    1.5630    0.0400 cc        1 MIB     -0.059100
      8 CD2        -1.0740   -0.5340   -0.0090 ca        1 MIB     -0.071800
      9 NE1        -1.5350    1.7260    0.0640 na        1 MIB     -0.070400
     10 CN1        -2.2300    2.9690    0.0340 c3        1 MIB      0.027600
     11 CE2        -2.1290    0.4520    0.0240 ca        1 MIB     -0.050200
     12 CE3        -1.4020   -1.8890   -0.0400 ca        1 MIB     -0.085000
     13 CZ2        -3.4780    0.0680    0.0230 ca        1 MIB     -0.137000
     14 CZ3        -2.7410   -2.2550   -0.0410 ca        1 MIB     -0.148000
     15 CH2        -3.7620   -1.2900   -0.0100 ca        1 MIB     -0.115000
     16 HM1         5.1030    1.1780    0.9210 hc        1 MIB      0.060033
     17 HM2         6.0810   -0.0290   -0.0260 hc        1 MIB      0.060033
     18 HM3         5.0970    1.2310   -0.8940 hc        1 MIB      0.060033
     19 HA          2.6610    1.4030    0.0270 ha        1 MIB      0.124000
     20 HB          1.5080   -1.4920   -0.0500 ha        1 MIB      0.148000
     21 HD1         0.5140    2.4290    0.0580 h4        1 MIB      0.169000
     22 HN1        -2.5350    3.2250   -1.0170 h1        1 MIB      0.052700
     23 HN2        -3.1540    2.9000    0.6700 h1        1 MIB      0.052700
     24 HN3        -1.5670    3.7830    0.4310 h1        1 MIB      0.052700
     25 HE3        -0.6070   -2.6490   -0.0630 ha        1 MIB      0.140000
     26 HZ2        -4.2810    0.8170    0.0470 ha        1 MIB      0.133000
     27 HZ3        -3.0150   -3.3200   -0.0660 ha        1 MIB      0.133000
     28 HH2        -4.8110   -1.6210   -0.0120 ha        1 MIB      0.131000
@<TRIPOS>BOND
     1    1    2 2   
     2    2    3 1   
     3    2    4 1   
     4    3   16 1   
     5    3   17 1   
     6    3   18 1   
     7    4    5 2   
     8    4   19 1   
     9    5    6 1   
    10    5   20 1   
    11    6    7 2   
    12    6    8 1   
    13    7    9 1   
    14    7   21 1   
    15    8   11 ar  
    16    8   12 ar  
    17    9   10 1   
    18    9   11 1   
    19   10   22 1   
    20   10   23 1   
    21   10   24 1   
    22   11   13 ar  
    23   12   14 ar  
    24   12   25 1   
    25   13   15 ar  
    26   13   26 1   
    27   14   15 ar  
    28   14   27 1   
    29   15   28 1   
@<TRIPOS>SUBSTRUCTURE
     1 MIB         1 TEMP              0 ****  ****    0 ROOT
