@<TRIPOS>MOLECULE
MIC
   21    20     1     0     0
SMALL
bcc


@<TRIPOS>ATOM
      1 C1          0.2510   -0.6100    2.3520 c         1 MIC      0.902600
      2 O1         -0.0910    0.0960    3.3520 o         1 MIC     -0.888800
      3 O2          0.2900   -1.8780    2.4310 o         1 MIC     -0.888800
      4 C2          0.7460    0.1060    1.0600 c3        1 MIC      0.077800
      5 CM2         2.1260   -0.4670    0.7390 c3        1 MIC     -0.075100
      6 O7          0.9620    1.4870    1.3620 oh        1 MIC     -0.653800
      7 C3         -0.1930   -0.0490   -0.1560 c3        1 MIC     -0.150700
      8 C4          0.4180    0.5150   -1.4400 c3        1 MIC     -0.145400
      9 C5          1.3010   -0.3830   -2.3050 c         1 MIC      0.901600
     10 O3          0.8970   -1.5080   -2.7350 o         1 MIC     -0.906300
     11 O4          2.4350    0.0700   -2.6870 o         1 MIC     -0.906300
     12 C6         -1.5560    0.6580    0.0280 c         1 MIC      0.919600
     13 O5         -1.6120    1.8860    0.3660 o         1 MIC     -0.897300
     14 O6         -2.6260    0.0210   -0.2340 o         1 MIC     -0.897300
     15 HM21        2.0180   -1.5630    0.5610 hc        1 MIC      0.021700
     16 HM22        2.5570    0.0190   -0.1680 hc        1 MIC      0.021700
     17 HM23        2.8150   -0.3030    1.6020 hc        1 MIC      0.021700
     18 HO7         0.0860    1.8310    1.5970 ho        1 MIC      0.433000
     19 H3         -0.3850   -1.1470   -0.2880 hc        1 MIC      0.068700
     20 H41        -0.4250    0.8350   -2.1120 hc        1 MIC      0.020700
     21 H42         1.0020    1.4350   -1.1720 hc        1 MIC      0.020700
@<TRIPOS>BOND
     1    1    2 1   
     2    1    3 1   
     3    1    4 1   
     4    4    5 1   
     5    4    6 1   
     6    4    7 1   
     7    5   15 1   
     8    5   16 1   
     9    5   17 1   
    10    6   18 1   
    11    7    8 1   
    12    7   12 1   
    13    7   19 1   
    14    8    9 1   
    15    8   20 1   
    16    8   21 1   
    17    9   10 1   
    18    9   11 1   
    19   12   13 1   
    20   12   14 1   
@<TRIPOS>SUBSTRUCTURE
     1 MIC         1 TEMP              0 ****  ****    0 ROOT
