@<TRIPOS>MOLECULE
MIC
   21    19     1     0     0
SMALL
bcc


@<TRIPOS>ATOM
      1 C1          1.9520   -0.7060    0.5860 c1        1 MIC      0.322000
      2 O1          2.5820    0.1410    1.2730 o         1 MIC     -0.625000
      3 O2          2.5820   -1.5530   -0.1010 os        1 MIC     -0.622000
      4 C2          0.4390   -0.7060    0.5860 c3        1 MIC      0.056000
      5 CM2        -0.0650   -0.7060    2.0120 c3        1 MIC     -0.193000
      6 O7         -0.0300   -1.8540   -0.0770 oh        1 MIC     -0.381000
      7 C3         -0.0650    0.5290   -0.1270 c3        1 MIC     -0.140000
      8 C4         -1.3520    0.2020   -0.8520 c3        1 MIC     -0.174000
      9 C5         -1.8570    1.4380   -1.5650 c2        1 MIC      0.321000
     10 O3         -2.4410    2.3440   -0.9150 o         1 MIC     -0.641000
     11 O4         -1.6920    1.5600   -2.8070 o         1 MIC     -0.641000
     12 C6          0.9720    0.9940   -1.1250 c2        1 MIC      0.339000
     13 O5          1.5310    2.1120   -0.9780 o         1 MIC     -0.632000
     14 O6          1.2770    0.2620   -2.1030 o         1 MIC     -0.632000
     15 HM21        0.4580   -1.3370    2.5420 hc        1 MIC      0.061000
     16 HM22        0.0260    0.1900    2.3890 hc        1 MIC      0.061000
     17 HM23       -1.0040   -0.9710    2.0250 hc        1 MIC      0.061000
     18 HO7         0.1260   -2.5700    0.4250 ho        1 MIC      0.232000
     19 H3         -0.2290    1.2370    0.5250 hc        1 MIC      0.108000
     20 H41        -2.0210   -0.0980   -0.2080 hc        1 MIC      0.060000
     21 H42        -1.1880   -0.5050   -1.5050 hc        1 MIC      0.060000
@<TRIPOS>BOND
     1    1    2 1   
     2    1    4 1   
     3    4    5 1   
     4    4    6 1   
     5    4    7 1   
     6    5   15 1   
     7    5   16 1   
     8    5   17 1   
     9    6   18 1   
    10    7    8 1   
    11    7   12 1   
    12    7   19 1   
    13    8    9 1   
    14    8   20 1   
    15    8   21 1   
    16    9   10 1   
    17    9   11 1   
    18   12   13 1   
    19   12   14 1   
@<TRIPOS>SUBSTRUCTURE
     1 MIC         1 TEMP              0 ****  ****    0 ROOT
