@<TRIPOS>MOLECULE
MIC
   21    20     1     0     0
SMALL
bcc


@<TRIPOS>ATOM
      1 C1          1.4730    0.0200    0.4240 c         1 MIC      0.902600
      2 O1          2.1030   -1.0520    0.1590 o         1 MIC     -0.888800
      3 O2          2.0360    0.9670    1.0580 o         1 MIC     -0.888800
      4 C2         -0.0420    0.1080    0.0740 c3        1 MIC      0.077800
      5 CM2        -0.7730    0.4770    1.3650 c3        1 MIC     -0.075100
      6 O7         -0.5040   -1.2000   -0.2720 oh        1 MIC     -0.653800
      7 C3         -0.3820    1.1220   -1.0410 c3        1 MIC     -0.150700
      8 C4         -1.8900    1.3030   -1.2230 c3        1 MIC     -0.145400
      9 C5         -2.6260    2.3420   -0.3790 c         1 MIC      0.901600
     10 O3         -2.2650    3.5590   -0.3470 o         1 MIC     -0.906800
     11 O4         -3.6970    1.9840    0.2240 o         1 MIC     -0.906800
     12 C6          0.1820    0.7230   -2.4240 c         1 MIC      0.919600
     13 O5         -0.0450   -0.4320   -2.9130 o         1 MIC     -0.897300
     14 O6          0.8180    1.5880   -3.1070 o         1 MIC     -0.897300
     15 HM21       -0.3940    1.4670    1.7120 hc        1 MIC      0.021700
     16 HM22       -0.5660   -0.2900    2.1500 hc        1 MIC      0.021700
     17 HM23       -1.8740    0.5360    1.1950 hc        1 MIC      0.021700
     18 HO7        -0.0090   -1.4370   -1.0710 ho        1 MIC      0.433000
     19 H3          0.0760    2.1030   -0.7460 hc        1 MIC      0.068700
     20 H41        -2.3810    0.3060   -1.0680 hc        1 MIC      0.020700
     21 H42        -2.0740    1.6060   -2.2900 hc        1 MIC      0.020700
@<TRIPOS>BOND
     1    1    2 1   
     2    1    3 1   
     3    1    4 1   
     4    4    5 1   
     5    4    6 1   
     6    4    7 1   
     7    5   15 1   
     8    5   16 1   
     9    5   17 1   
    10    6   18 1   
    11    7    8 1   
    12    7   12 1   
    13    7   19 1   
    14    8    9 1   
    15    8   20 1   
    16    8   21 1   
    17    9   10 1   
    18    9   11 1   
    19   12   13 1   
    20   12   14 1   
@<TRIPOS>SUBSTRUCTURE
     1 MIC         1 TEMP              0 ****  ****    0 ROOT
