@<TRIPOS>MOLECULE
MIC
   21    20     1     0     0
SMALL
bcc


@<TRIPOS>ATOM
      1 C1          1.4820    0.0230    0.4040 c         1 MIC      0.902600
      2 O1          2.1110   -1.0480    0.1320 o         1 MIC     -0.888800
      3 O2          2.0490    0.9710    1.0330 o         1 MIC     -0.888800
      4 C2         -0.0360    0.1080    0.0680 c3        1 MIC      0.077800
      5 CM2        -0.7550    0.4750    1.3660 c3        1 MIC     -0.075100
      6 O7         -0.5000   -1.2000   -0.2740 oh        1 MIC     -0.653800
      7 C3         -0.3890    1.1230   -1.0420 c3        1 MIC     -0.150700
      8 C4         -1.8980    1.3010   -1.2110 c3        1 MIC     -0.145400
      9 C5         -2.6290    2.3380   -0.3590 c         1 MIC      0.901600
     10 O3         -2.2690    3.5560   -0.3290 o         1 MIC     -0.906800
     11 O4         -3.6930    1.9780    0.2540 o         1 MIC     -0.906800
     12 C6          0.1640    0.7260   -2.4320 c         1 MIC      0.919600
     13 O5         -0.0670   -0.4290   -2.9190 o         1 MIC     -0.897300
     14 O6          0.7910    1.5930   -3.1190 o         1 MIC     -0.897300
     15 HM21       -0.5400   -0.2920    2.1480 hc        1 MIC      0.021700
     16 HM22       -1.8590    0.5320    1.2070 hc        1 MIC      0.021700
     17 HM23       -0.3760    1.4660    1.7110 hc        1 MIC      0.021700
     18 HO7        -0.0120   -1.4350   -1.0780 ho        1 MIC      0.433000
     19 H3          0.0710    2.1050   -0.7510 hc        1 MIC      0.068700
     20 H41        -2.0930    1.6050   -2.2760 hc        1 MIC      0.020700
     21 H42        -2.3860    0.3040   -1.0520 hc        1 MIC      0.020700
@<TRIPOS>BOND
     1    1    2 1   
     2    1    3 1   
     3    1    4 1   
     4    4    5 1   
     5    4    6 1   
     6    4    7 1   
     7    5   15 1   
     8    5   16 1   
     9    5   17 1   
    10    6   18 1   
    11    7    8 1   
    12    7   12 1   
    13    7   19 1   
    14    8    9 1   
    15    8   20 1   
    16    8   21 1   
    17    9   10 1   
    18    9   11 1   
    19   12   13 1   
    20   12   14 1   
@<TRIPOS>SUBSTRUCTURE
     1 MIC         1 TEMP              0 ****  ****    0 ROOT
