@<TRIPOS>MOLECULE
MID
   68    61     1     0     0
SMALL
bcc


@<TRIPOS>ATOM
      1 S           1.0960    3.7410    1.5630 ss        1 MID      2.857000
      2 O1S         1.1580    4.9170    0.7370 o         1 MID     -0.942500
      3 O2S         2.4770    3.3400    1.5820 o         1 MID     -0.942500
      4 C1          0.9540    3.3950    4.3020 c1        1 MID     -0.082000
      5 C2          0.5090    4.1330    3.2100 c1        1 MID     -0.839000
      6 C3         -0.2770    5.2630    3.4090 c1        1 MID     -0.050000
      7 C4         -0.6180    5.6550    4.6990 c1        1 MID     -0.082000
      8 C5         -0.5170    5.3040    7.1140 c1        1 MID     -0.082000
      9 C6         -0.0740    4.5650    8.2050 c1        1 MID     -0.115500
     10 C7          0.7140    3.4330    8.0070 c1        1 MID     -0.115500
     11 C8          1.0580    3.0420    6.7170 c1        1 MID     -0.082000
     12 C9          0.6090    3.7910    5.6090 c1        1 MID     -0.030500
     13 C10        -0.1680    4.9080    5.8050 c1        1 MID     -0.030500
     14 N           0.1300    2.5630    0.8680 n2        1 MID     -0.883000
     15 CA          0.0050    2.4880   -0.5740 c3        1 MID     -0.021000
     16 C          -0.5230    1.0880   -0.9750 c2        1 MID      0.280000
     17 O          -1.2080    0.4550   -0.2010 o         1 MID     -0.379000
     18 N1         -0.2750    0.5770   -2.3020 n         1 MID     -0.358000
     19 CA1        -0.6700   -0.7450   -2.6390 c3        1 MID      0.021000
     20 CB         -2.0960   -0.7270   -3.1930 c2        1 MID      0.280000
     21 O1         -2.3500   -0.0720   -4.1860 o         1 MID     -0.373000
     22 CB1         0.2730   -1.3040   -3.6870 c3        1 MID     -0.140000
     23 CG          1.5910   -1.7710   -3.0060 c2        1 MID     -0.069000
     24 CD1         1.5560   -2.7840   -2.0550 c2        1 MID     -0.135000
     25 CD2         2.8170   -1.2970   -3.4710 c1        1 MID     -0.138000
     26 CE1         2.7430   -3.3230   -1.5670 c1        1 MID     -0.099000
     27 CE2         4.0020   -1.8360   -2.9830 c1        1 MID     -0.108000
     28 CZ          3.9650   -2.8480   -2.0310 c1        1 MID     -0.111000
     29 CF          5.2560   -3.5190   -1.5880 c2        1 MID      0.106000
     30 NG1         5.8760   -3.1010   -0.5180 n1        1 MID     -0.306000
     31 NG2         5.7850   -4.5970   -2.3360 n3        1 MID     -0.330000
     32 N11        -3.0950   -1.6360   -2.6500 n         1 MID     -0.302000
     33 C21        -4.4140   -1.8120   -3.2440 c3        1 MID     -0.043500
     34 C31        -4.7400   -3.2720   -3.5000 c3        1 MID     -0.181000
     35 C41        -4.5290   -4.1120   -2.2990 c3        1 MID     -0.158000
     36 C51        -3.1790   -3.9150   -1.7100 c3        1 MID     -0.181000
     37 C61        -2.8660   -2.4500   -1.4680 c3        1 MID     -0.043500
     38 H1          1.4700    2.5760    4.1610 ha        1 MID      0.145750
     39 H3         -0.5830    5.7870    2.6420 ha        1 MID      0.150000
     40 H4         -1.1720    6.4510    4.8380 ha        1 MID      0.145750
     41 H5         -1.0690    6.0970    7.2530 ha        1 MID      0.145750
     42 H6         -0.3160    4.8400    9.1120 ha        1 MID      0.140000
     43 H7          1.0250    2.9140    8.7740 ha        1 MID      0.140000
     44 H8          1.6090    2.2490    6.5780 ha        1 MID      0.145750
     45 H          -0.3270    1.9760    1.3970 hn        1 MID      0.257000
     46 HA2         0.8800    2.6360   -0.9850 h1        1 MID      0.117000
     47 HA3        -0.6240    3.1750   -0.8830 h1        1 MID      0.117000
     48 H2          0.1250    1.1060   -2.9280 hn        1 MID      0.263000
     49 HA         -0.6390   -1.3070   -1.8420 h1        1 MID      0.130000
     50 HB2        -0.1500   -2.0640   -4.1340 hc        1 MID      0.116500
     51 HB3         0.4760   -0.6070   -4.3470 hc        1 MID      0.116500
     52 HD1         0.7010   -3.1160   -1.7300 ha        1 MID      0.133000
     53 HD2         2.8430   -0.5880   -4.1380 ha        1 MID      0.153000
     54 HE1         2.7180   -4.0350   -0.8970 ha        1 MID      0.148000
     55 HE2         4.8620   -1.5030   -3.3090 ha        1 MID      0.154000
     56 HG1         5.5380   -2.4120   -0.0390 DU        1 MID      0.178000
     57 HG21        6.4210   -5.1370   -1.9690 hn        1 MID      0.186500
     58 HG22        5.4680   -4.7700   -3.1740 hn        1 MID      0.186500
     59 H21        -5.0870   -1.4380   -2.6380 h1        1 MID      0.106500
     60 H22        -4.4470   -1.3270   -4.0920 h1        1 MID      0.106500
     61 H31        -4.1690   -3.6010   -4.2200 hc        1 MID      0.088250
     62 H32        -5.6770   -3.3450   -3.7780 hc        1 MID      0.088250
     63 H41        -5.2060   -3.8830   -1.6280 hc        1 MID      0.081000
     64 H42        -4.6330   -5.0520   -2.5470 hc        1 MID      0.081000
     65 H51        -3.1320   -4.3940   -0.8590 hc        1 MID      0.088250
     66 H52        -2.5120   -4.2850   -2.3190 hc        1 MID      0.088250
     67 H61        -3.4350   -2.1200   -0.7390 h1        1 MID      0.106500
     68 H62        -1.9330   -2.3670   -1.2030 h1        1 MID      0.106500
@<TRIPOS>BOND
     1    1    2 1   
     2    1    3 1   
     3    4   12 1   
     4    4   38 1   
     5    5    6 1   
     6    6   39 1   
     7    7   13 1   
     8    7   40 1   
     9    8   13 1   
    10    8   41 1   
    11    9   10 1   
    12    9   42 1   
    13   10   43 1   
    14   11   12 1   
    15   11   44 1   
    16   14   15 1   
    17   14   45 1   
    18   15   16 1   
    19   15   46 1   
    20   15   47 1   
    21   16   17 1   
    22   16   18 1   
    23   18   19 1   
    24   18   48 1   
    25   19   20 1   
    26   19   22 1   
    27   19   49 1   
    28   20   21 1   
    29   20   32 1   
    30   22   23 1   
    31   22   50 1   
    32   22   51 1   
    33   23   24 1   
    34   23   25 1   
    35   24   26 1   
    36   24   52 1   
    37   25   53 1   
    38   26   54 1   
    39   27   28 1   
    40   27   55 1   
    41   28   29 1   
    42   29   30 1   
    43   29   31 1   
    44   31   57 1   
    45   31   58 1   
    46   32   33 1   
    47   32   37 1   
    48   33   34 1   
    49   33   59 1   
    50   33   60 1   
    51   34   35 1   
    52   34   61 1   
    53   34   62 1   
    54   35   36 1   
    55   35   63 1   
    56   35   64 1   
    57   36   37 1   
    58   36   65 1   
    59   36   66 1   
    60   37   67 1   
    61   37   68 1   
@<TRIPOS>SUBSTRUCTURE
     1 MID         1 TEMP              0 ****  ****    0 ROOT
