@<TRIPOS>MOLECULE
MID
   68    71     1     0     0
SMALL
bcc


@<TRIPOS>ATOM
      1 S          -2.0310   -1.1220    1.0540 sy        1 MID      1.528200
      2 O1S        -1.6560   -1.0540    2.4130 o         1 MID     -0.665300
      3 O2S        -1.5930   -2.2590    0.3340 o         1 MID     -0.665300
      4 C1         -4.3790   -1.5970   -0.1480 ca        1 MID      0.029000
      5 C2         -3.7080   -1.0420    0.9220 ca        1 MID     -0.385500
      6 C3         -4.4590   -0.4160    1.9530 ca        1 MID     -0.046000
      7 C4         -5.8270   -0.3470    1.8920 ca        1 MID     -0.132000
      8 C5         -7.9470   -0.8480    0.6940 ca        1 MID     -0.133000
      9 C6         -8.5940   -1.4050   -0.3820 ca        1 MID     -0.100000
     10 C7         -7.8590   -2.0440   -1.4110 ca        1 MID     -0.133000
     11 C8         -6.4890   -2.1130   -1.3450 ca        1 MID     -0.099000
     12 C9         -5.7930   -1.5440   -0.2420 ca        1 MID     -0.074000
     13 C10        -6.5290   -0.9060    0.7890 ca        1 MID      0.013000
     14 N          -1.5500    0.2190    0.2860 n3        1 MID     -0.912100
     15 CA         -0.9140    1.3370    0.9090 c3        1 MID      0.164800
     16 C           0.4410    1.6520    0.2420 c         1 MID      0.646100
     17 O           0.4990    1.8430   -0.9890 o         1 MID     -0.612100
     18 N1          1.5520    1.6930    1.0500 n         1 MID     -0.545900
     19 CA1         2.8770    1.9220    0.5340 c3        1 MID      0.045700
     20 CB          3.5020    3.1990    1.1550 c         1 MID      0.636100
     21 O1          3.2130    3.5160    2.3280 o         1 MID     -0.616100
     22 CB1         3.8550    0.7680    0.8500 c3        1 MID     -0.049100
     23 CG          3.3410   -0.5400    0.3650 ca        1 MID     -0.080300
     24 CD1         3.2620   -0.8040   -1.0070 ca        1 MID     -0.131000
     25 CD2         2.9160   -1.5120    1.2770 ca        1 MID     -0.131000
     26 CE1         2.7240   -2.0060   -1.4640 ca        1 MID     -0.096000
     27 CE2         2.3760   -2.7150    0.8250 ca        1 MID     -0.096000
     28 CZ          2.2580   -2.9540   -0.5480 ca        1 MID     -0.128900
     29 CF          1.6160   -4.2150   -1.0410 ce        1 MID      0.649800
     30 NG1         2.2480   -4.9190   -1.9340 n2        1 MID     -0.842100
     31 NG2         0.3990   -4.5300   -0.4020 nh        1 MID     -0.950800
     32 N11         4.3290    4.0080    0.3900 n         1 MID     -0.449800
     33 C21         4.9550    5.1670    1.0020 c3        1 MID      0.081000
     34 C31         6.4680    5.0350    1.1750 c3        1 MID     -0.103400
     35 C41         7.1350    4.6300   -0.1220 c3        1 MID     -0.078400
     36 C51         6.4860    3.3920   -0.7030 c3        1 MID     -0.103400
     37 C61         4.9700    3.5730   -0.8310 c3        1 MID      0.081000
     38 H3         -3.9150   -0.0000    2.8190 ha        1 MID      0.153000
     39 H4         -6.4030    0.1380    2.6950 ha        1 MID      0.143000
     40 H5         -8.5110   -0.3510    1.4980 ha        1 MID      0.140000
     41 H6         -9.6910   -1.3630   -0.4590 ha        1 MID      0.139000
     42 H7         -8.4020   -2.4830   -2.2610 ha        1 MID      0.140000
     43 H8         -5.9090   -2.6090   -2.1380 ha        1 MID      0.139000
     44 H          -1.6020    0.3110   -0.7030 hn        1 MID      0.464800
     45 HA2        -1.5430    2.2670    0.7820 h1        1 MID      0.078200
     46 HA3        -0.8000    1.1340    2.0140 h1        1 MID      0.078200
     47 H2          1.4580    1.6570    2.0390 hn        1 MID      0.332500
     48 HA          2.7790    2.0280   -0.5890 h1        1 MID      0.106700
     49 HB2         4.8330    1.0050    0.3500 hc        1 MID      0.062700
     50 HB3         4.0390    0.7300    1.9570 hc        1 MID      0.062700
     51 HD1         3.6120   -0.0530   -1.7300 ha        1 MID      0.132500
     52 HD2         2.9980   -1.3260    2.3580 ha        1 MID      0.132500
     53 HE1         2.6650   -2.2080   -2.5450 ha        1 MID      0.149000
     54 HE2         2.0410   -3.4710    1.5520 ha        1 MID      0.149000
     55 HG1         1.7890   -5.7490   -2.2450 hn        1 MID      0.377400
     56 HG21       -0.0650   -3.7660    0.0420 hn        1 MID      0.410300
     57 HG22       -0.2150   -5.1320   -0.9010 hn        1 MID      0.410300
     58 H21         4.7410    6.0480    0.3310 h1        1 MID      0.060450
     59 H22         4.4810    5.3640    2.0050 h1        1 MID      0.060450
     60 H31         6.8700    6.0220    1.5210 hc        1 MID      0.051200
     61 H32         6.6950    4.2790    1.9710 hc        1 MID      0.051200
     62 H41         7.0590    5.4710   -0.8600 hc        1 MID      0.044700
     63 H42         8.2250    4.4360    0.0560 hc        1 MID      0.044700
     64 H51         6.9020    3.1820   -1.7220 hc        1 MID      0.051200
     65 H52         6.7100    2.5050   -0.0550 hc        1 MID      0.051200
     66 H61         4.5270    2.6090   -1.2020 h1        1 MID      0.060450
     67 H62         4.7690    4.3650   -1.6110 h1        1 MID      0.060450
     68 H1         -3.8160   -2.1110   -0.9480 ha        1 MID      0.151000
@<TRIPOS>BOND
     1    1    2 2   
     2    1    3 2   
     3    1    5 1   
     4    1   14 1   
     5    4    5 ar  
     6    4   12 ar  
     7    4   68 1   
     8    5    6 ar  
     9    6    7 ar  
    10    6   38 1   
    11    7   13 ar  
    12    7   39 1   
    13    8    9 ar  
    14    8   13 ar  
    15    8   40 1   
    16    9   10 ar  
    17    9   41 1   
    18   10   11 ar  
    19   10   42 1   
    20   11   12 ar  
    21   11   43 1   
    22   12   13 ar  
    23   14   15 1   
    24   14   44 1   
    25   15   16 1   
    26   15   45 1   
    27   15   46 1   
    28   16   17 2   
    29   16   18 1   
    30   18   19 1   
    31   18   47 1   
    32   19   20 1   
    33   19   22 1   
    34   19   48 1   
    35   20   21 2   
    36   20   32 1   
    37   22   23 1   
    38   22   49 1   
    39   22   50 1   
    40   23   24 ar  
    41   23   25 ar  
    42   24   26 ar  
    43   24   51 1   
    44   25   27 ar  
    45   25   52 1   
    46   26   28 ar  
    47   26   53 1   
    48   27   28 ar  
    49   27   54 1   
    50   28   29 1   
    51   29   30 2   
    52   29   31 1   
    53   30   55 1   
    54   31   56 1   
    55   31   57 1   
    56   32   33 1   
    57   32   37 1   
    58   33   34 1   
    59   33   58 1   
    60   33   59 1   
    61   34   35 1   
    62   34   60 1   
    63   34   61 1   
    64   35   36 1   
    65   35   62 1   
    66   35   63 1   
    67   36   37 1   
    68   36   64 1   
    69   36   65 1   
    70   37   66 1   
    71   37   67 1   
@<TRIPOS>SUBSTRUCTURE
     1 MID         1 TEMP              0 ****  ****    0 ROOT
