@<TRIPOS>MOLECULE
MIF
   29    30     1     0     0
SMALL
bcc


@<TRIPOS>ATOM
      1 C2          0.1860    0.0090   -0.0480 c3        1 MIF      0.106100
      2 O2         -0.1560   -0.0170   -1.4190 oh        1 MIF     -0.587800
      3 C3          1.7240    0.0090    0.0080 c3        1 MIF      0.105100
      4 O3          2.2370    1.2110   -0.5340 oh        1 MIF     -0.601800
      5 C4          2.1700   -0.0400    1.4790 c3        1 MIF      0.129100
      6 C1         -0.3770   -1.2000    0.7150 c3        1 MIF      0.152900
      7 O4          3.5780   -0.1510    1.5750 oh        1 MIF     -0.588800
      8 C5          1.5700   -1.2900    2.1350 c3        1 MIF      0.082100
      9 C6          1.8580   -1.3140    3.6390 c3        1 MIF      0.142400
     10 O6          1.4510   -2.5310    4.2220 oh        1 MIF     -0.589800
     11 O5          0.1360   -1.2720    2.0290 os        1 MIF     -0.386600
     12 C8         -2.5590   -2.6000    0.1690 c2        1 MIF      0.537800
     13 S1         -2.1740   -1.0310    0.9170 ss        1 MIF     -0.283300
     14 N1         -1.3700   -3.2050   -0.2920 n         1 MIF     -0.497400
     15 C7         -0.1790   -2.5340   -0.0310 c         1 MIF      0.690500
     16 O7          0.9190   -2.9940   -0.3640 o         1 MIF     -0.568500
     17 H1         -1.3780   -4.0960   -0.7360 hn        1 MIF      0.362500
     18 H21        -4.4860   -2.6080    0.4040 hn        1 MIF      0.428400
     19 H2         -0.2100    0.9470    0.4380 h1        1 MIF      0.077700
     20 H5          1.9670   -2.2200    1.6390 h1        1 MIF      0.099700
     21 H61C        2.9710   -1.2640    3.7910 h1        1 MIF      0.067200
     22 H62C        1.3540   -0.4470    4.1410 h1        1 MIF      0.067200
     23 H4          1.8270    0.8910    2.0100 h1        1 MIF      0.058700
     24 H6          0.4960   -2.6030    4.0940 ho        1 MIF      0.409000
     25 HA          3.9460    0.5580    1.0290 ho        1 MIF      0.427000
     26 H3          2.1260   -0.8800   -0.5560 h1        1 MIF      0.092700
     27 HB          1.9720    1.2300   -1.4630 ho        1 MIF      0.428000
     28 HC         -1.1110    0.1270   -1.4780 ho        1 MIF      0.421000
     29 N2         -3.7210   -3.1300    0.0330 n2        1 MIF     -0.782100
@<TRIPOS>BOND
     1    1    2 1   
     2    1    3 1   
     3    1    6 1   
     4    1   19 1   
     5    2   28 1   
     6    3    4 1   
     7    3    5 1   
     8    3   26 1   
     9    4   27 1   
    10    5    7 1   
    11    5    8 1   
    12    5   23 1   
    13    6   11 1   
    14    6   13 1   
    15    6   15 1   
    16    7   25 1   
    17    8    9 1   
    18    8   11 1   
    19    8   20 1   
    20    9   10 1   
    21    9   21 1   
    22    9   22 1   
    23   10   24 1   
    24   12   13 1   
    25   12   14 1   
    26   12   29 2   
    27   14   15 1   
    28   14   17 1   
    29   15   16 2   
    30   18   29 1   
@<TRIPOS>SUBSTRUCTURE
     1 MIF         1 TEMP              0 ****  ****    0 ROOT
