@<TRIPOS>MOLECULE
MIG
   31    29     1     0     0
SMALL
bcc


@<TRIPOS>ATOM
      1 OAA         1.4510   -0.2320    0.3800 oh        1 MIG     -0.309000
      2 OAC         2.6670   -4.8230    2.1840 oh        1 MIG     -0.323000
      3 OAD        -0.1150   -5.4290    2.7750 oh        1 MIG     -0.337000
      4 OAE        -1.8900   -3.2200    2.4350 oh        1 MIG     -0.341000
      5 CAF         1.6040    0.0570   -0.9540 c2        1 MIG     -0.012000
      6 CAG        -0.9910   -0.6090    3.0710 c1        1 MIG     -0.069000
      7 CAH         1.7680    1.2830   -1.4580 c2        1 MIG     -0.335000
      8 CAI         2.2020   -2.4530    2.5290 c3        1 MIG     -0.109000
      9 CAJ         1.7960   -3.9070    2.8200 c3        1 MIG     -0.007000
     10 CAK         0.3510   -4.1540    2.3650 c3        1 MIG     -0.035000
     11 CAL        -0.5910   -3.1170    2.9950 c3        1 MIG      0.031000
     12 CAM        -0.0940   -1.6880    2.6670 c3        1 MIG     -0.112000
     13 NAN         1.2830   -1.5010    3.1200 n3        1 MIG     -0.267000
     14 HOAA        1.4830    0.5960    0.8900 ho        1 MIG      0.245000
     15 HOAB        1.2590    1.7370    3.5310 ho        1 MIG      0.219000
     16 HOAC        2.7200   -4.5810    1.2510 ho        1 MIG      0.201000
     17 HOAD        0.6110   -6.0520    2.6330 ho        1 MIG      0.223000
     18 HOAE       -2.1600   -4.1430    2.5380 ho        1 MIG      0.229000
     19 HAF        -0.1790   -1.5610    1.5180 h1        1 MIG      0.151000
     20 HAFA        1.5700   -0.8780   -1.5370 h4        1 MIG      0.151000
     21 HAG         0.0620    1.1600    2.7890 ho        1 MIG      0.219000
     22 HAGA       -2.0460   -0.8900    3.2020 ha        1 MIG      0.078000
     23 HAH         1.7920    2.1830   -0.8330 ha        1 MIG      0.127500
     24 HAHA        1.8850    1.4460   -2.5350 ha        1 MIG      0.127500
     25 HAI         1.5750   -0.5610    2.9030 hn        1 MIG      0.189000
     26 HAIA        3.2160   -2.2680    2.9810 h1        1 MIG      0.089500
     27 HAJ         2.2940   -2.3240    1.4090 h1        1 MIG      0.089500
     28 HAK         1.8990   -4.1440    3.9170 h1        1 MIG      0.141000
     29 HAL         0.2860   -4.0930    1.2410 h1        1 MIG      0.086000
     30 HAM        -0.6440   -3.2780    4.1060 h1        1 MIG      0.107000
     31 OAB         0.9270    1.5830    2.6440 oh        1 MIG     -0.448000
@<TRIPOS>BOND
     1    1    5 1   
     2    1   14 1   
     3    2    9 1   
     4    2   16 1   
     5    3   10 1   
     6    3   17 1   
     7    4   11 1   
     8    4   18 1   
     9    5    7 1   
    10    5   20 1   
    11    6   12 1   
    12    6   22 1   
    13    7   23 1   
    14    7   24 1   
    15    8    9 1   
    16    8   13 1   
    17    8   26 1   
    18    8   27 1   
    19    9   10 1   
    20    9   28 1   
    21   10   11 1   
    22   10   29 1   
    23   11   12 1   
    24   11   30 1   
    25   12   13 1   
    26   12   19 1   
    27   13   25 1   
    28   15   31 1   
    29   21   31 1   
@<TRIPOS>SUBSTRUCTURE
     1 MIG         1 TEMP              0 ****  ****    0 ROOT
