@<TRIPOS>MOLECULE
MIG
   31    29     1     0     0
SMALL
bcc


@<TRIPOS>ATOM
      1 OAA         0.4000    0.2440   -0.0970 oh        1 MIG     -0.324000
      2 OAC         2.4800   -4.8670    4.0000 oh        1 MIG     -0.322000
      3 OAD         0.6410   -4.8810    1.7540 oh        1 MIG     -0.338000
      4 OAE        -0.1860   -2.3380    0.8680 oh        1 MIG     -0.331000
      5 CAF        -0.4280    0.8360   -1.0230 c2        1 MIG     -0.010000
      6 CAG        -0.5970   -0.3070    2.7130 c1        1 MIG     -0.047000
      7 CAH         0.1050    1.4530   -2.0840 c2        1 MIG     -0.310000
      8 CAI         1.7360   -2.6180    4.5710 c3        1 MIG     -0.100000
      9 CAJ         1.4110   -3.9490    3.8730 c3        1 MIG     -0.004000
     10 CAK         1.1010   -3.7000    2.3920 c3        1 MIG     -0.049000
     11 CAL        -0.0250   -2.6620    2.2390 c3        1 MIG      0.087000
     12 CAM         0.3840   -1.3540    2.9770 c3        1 MIG     -0.139000
     13 NAN         0.6960   -1.6340    4.3790 n3        1 MIG     -0.315000
     14 HOAA       -0.1620   -0.1560    0.5980 ho        1 MIG      0.265000
     15 HOAB        2.4970   -0.2390    0.2480 ho        1 MIG      0.214500
     16 HOAC        3.2770   -4.4420    3.6570 ho        1 MIG      0.204000
     17 HOAD        1.2120   -5.6010    2.0550 ho        1 MIG      0.224000
     18 HOAE       -0.3460   -3.1750    0.4090 ho        1 MIG      0.229000
     19 HAF         1.3010   -0.9500    2.3970 h1        1 MIG      0.173000
     20 HAFA       -1.5090    0.7640   -0.8270 h4        1 MIG      0.124000
     21 HAG         1.7230   -1.5380    0.1710 ho        1 MIG      0.214500
     22 HAGA       -0.9120    0.3360    3.5470 ha        1 MIG      0.056000
     23 HAH         0.9330   -0.7830    4.8540 hn        1 MIG      0.166000
     24 HAHA        1.1860    1.5090   -2.2520 ha        1 MIG      0.121000
     25 HAI        -0.5290    1.9340   -2.8350 ha        1 MIG      0.121000
     26 HAIA        1.8310   -2.8080    5.6770 h1        1 MIG      0.082500
     27 HAJ         2.7430   -2.2650    4.1960 h1        1 MIG      0.082500
     28 HAK         0.5430   -4.4660    4.3710 h1        1 MIG      0.141000
     29 HAL         2.0220   -3.3290    1.8550 h1        1 MIG      0.107000
     30 HAM        -0.9870   -3.0670    2.6530 h1        1 MIG      0.106000
     31 OAB         2.4820   -1.1310    0.6090 oh        1 MIG     -0.429000
@<TRIPOS>BOND
     1    1    5 1   
     2    1   14 1   
     3    2    9 1   
     4    2   16 1   
     5    3   10 1   
     6    3   17 1   
     7    4   11 1   
     8    4   18 1   
     9    5    7 1   
    10    5   20 1   
    11    6   12 1   
    12    6   22 1   
    13    7   24 1   
    14    7   25 1   
    15    8    9 1   
    16    8   13 1   
    17    8   26 1   
    18    8   27 1   
    19    9   10 1   
    20    9   28 1   
    21   10   11 1   
    22   10   29 1   
    23   11   12 1   
    24   11   30 1   
    25   12   13 1   
    26   12   19 1   
    27   13   23 1   
    28   15   31 1   
    29   21   31 1   
@<TRIPOS>SUBSTRUCTURE
     1 MIG         1 TEMP              0 ****  ****    0 ROOT
