@<TRIPOS>MOLECULE
MIG
   31    29     1     0     0
SMALL
bcc


@<TRIPOS>ATOM
      1 OAA         0.3490    0.9950    0.1740 oh        1 MIG     -0.367000
      2 OAC         1.9510   -5.8540    1.8050 oh        1 MIG     -0.320000
      3 OAD        -0.2290   -5.5180    3.6710 oh        1 MIG     -0.334000
      4 OAE        -1.6490   -2.9910    3.2970 oh        1 MIG     -0.314000
      5 CAF         1.6590    1.1350   -0.3460 c3        1 MIG     -0.013000
      6 CAG        -0.9880    0.9760    2.8340 c1        1 MIG     -0.083000
      7 CAH         2.6710    1.4420    0.7330 c3        1 MIG     -0.255000
      8 CAI         2.0190   -3.4350    1.4440 c3        1 MIG     -0.135000
      9 CAJ         1.6200   -4.5990    2.3680 c3        1 MIG     -0.035000
     10 CAK         0.1190   -4.5500    2.6950 c3        1 MIG     -0.041000
     11 CAL        -0.2450   -3.1770    3.2860 c3        1 MIG      0.020000
     12 CAM         0.3590   -2.0710    2.4480 c2        1 MIG     -0.073000
     13 NAN         1.3640   -2.1760    1.6610 n2        1 MIG     -0.186000
     14 HOAA        0.3750    0.3110    0.8610 ho        1 MIG      0.228000
     15 HOAB       -0.8370    2.1640    1.3830 ho        1 MIG      0.273000
     16 HOAC        1.5380   -5.9030    0.9330 ho        1 MIG      0.202000
     17 HOAD        0.2280   -6.3350    3.4310 ho        1 MIG      0.222000
     18 HOAE       -2.0130   -3.7350    3.7970 ho        1 MIG      0.220000
     19 HAF         1.9460    0.1980   -0.8950 h1        1 MIG      0.081000
     20 HAFA        1.5790    1.9820   -1.0800 h1        1 MIG      0.081000
     21 HAG        -0.1300   -1.0710    2.5560 h4        1 MIG      0.209000
     22 HAGA       -1.5340    0.9250    3.8110 ha        1 MIG      0.035000
     23 HAH         2.7420    0.5910    1.4530 hc        1 MIG      0.083000
     24 HAHA        2.3730    2.3570    1.2980 hc        1 MIG      0.083000
     25 HAI         3.6750    1.6110    0.2770 hc        1 MIG      0.083000
     26 HAIA        1.8280   -3.7330    0.3720 h1        1 MIG      0.111000
     27 HAJ         3.1270   -3.2600    1.5490 h1        1 MIG      0.111000
     28 HAK         2.2140   -4.5670    3.3250 h1        1 MIG      0.134000
     29 HAL        -0.4860   -4.7390    1.7640 h1        1 MIG      0.094000
     30 HAM         0.1540   -3.1060    4.3390 h1        1 MIG      0.105000
     31 OAB        -1.3030    2.0990    2.2440 oh        1 MIG     -0.221000
@<TRIPOS>BOND
     1    1    5 1   
     2    1   14 1   
     3    2    9 1   
     4    2   16 1   
     5    3   10 1   
     6    3   17 1   
     7    4   11 1   
     8    4   18 1   
     9    5    7 1   
    10    5   19 1   
    11    5   20 1   
    12    6   22 1   
    13    6   31 1   
    14    7   23 1   
    15    7   24 1   
    16    7   25 1   
    17    8    9 1   
    18    8   13 1   
    19    8   26 1   
    20    8   27 1   
    21    9   10 1   
    22    9   28 1   
    23   10   11 1   
    24   10   29 1   
    25   11   12 1   
    26   11   30 1   
    27   12   13 1   
    28   12   21 1   
    29   15   31 1   
@<TRIPOS>SUBSTRUCTURE
     1 MIG         1 TEMP              0 ****  ****    0 ROOT
