@<TRIPOS>MOLECULE
MIG
   31    31     1     0     0
SMALL
bcc


@<TRIPOS>ATOM
      1 OAA         2.7970    0.7370    1.5020 oh        1 MIG     -0.609800
      2 OAC        -2.8950    1.7830    0.2260 oh        1 MIG     -0.606800
      3 OAD        -3.2000   -1.0510    0.0030 oh        1 MIG     -0.611800
      4 OAE        -0.8040   -2.5000    0.4660 oh        1 MIG     -0.606800
      5 CAF         2.4010    1.8250    0.6930 c3        1 MIG      0.097400
      6 CAG         1.5560   -1.5750   -0.7910 c3        1 MIG      0.130400
      7 CAH         1.8450    1.3760   -0.6650 c3        1 MIG      0.132800
      8 CAI        -0.5110    1.5790   -0.1900 c3        1 MIG      0.136800
      9 CAJ        -1.9090    0.9770   -0.4020 c3        1 MIG      0.105100
     10 CAK        -1.9750   -0.3920    0.2820 c3        1 MIG      0.111100
     11 CAL        -0.8610   -1.2890   -0.2750 c3        1 MIG      0.149100
     12 CAM         0.5320   -0.6250   -0.1240 c3        1 MIG      0.146500
     13 NAN         0.5490    0.7240   -0.7010 n3        1 MIG     -0.725600
     14 HOAA        3.4720    0.2490    1.0090 ho        1 MIG      0.413000
     15 HOAB        2.7280   -1.7860    0.7320 ho        1 MIG      0.410000
     16 HOAC       -2.8580    2.6510   -0.1930 ho        1 MIG      0.409000
     17 HOAD       -3.9040   -0.4470    0.2720 ho        1 MIG      0.425000
     18 HOAE       -1.6990   -2.8640    0.4620 ho        1 MIG      0.425000
     19 HAF         1.6340    2.3690    1.3050 h1        1 MIG      0.046200
     20 HAFA        3.2760    2.5070    0.5110 h1        1 MIG      0.046200
     21 HAG         1.7320   -1.3200   -1.8690 h1        1 MIG      0.065200
     22 HAGA        1.1780   -2.6300   -0.7130 h1        1 MIG      0.065200
     23 HAH         1.7640    2.2910   -1.3190 h1        1 MIG      0.065200
     24 HAHA        2.5930    0.6760   -1.1360 h1        1 MIG      0.065200
     25 HAI        -0.4560    2.5600   -0.7410 h1        1 MIG      0.042200
     26 HAIA       -0.3990    1.7990    0.9130 h1        1 MIG      0.042200
     27 HAJ        -2.1440    0.8760   -1.4970 h1        1 MIG      0.062700
     28 HAK        -1.8620   -0.2700    1.3950 h1        1 MIG      0.064700
     29 HAL        -1.0710   -1.5220   -1.3560 h1        1 MIG      0.059700
     30 HAM         0.7760   -0.5860    0.9830 h1        1 MIG      0.062700
     31 OAB         2.8270   -1.4760   -0.1780 oh        1 MIG     -0.617800
@<TRIPOS>BOND
     1    1    5 1   
     2    1   14 1   
     3    2    9 1   
     4    2   16 1   
     5    3   10 1   
     6    3   17 1   
     7    4   11 1   
     8    4   18 1   
     9    5    7 1   
    10    5   19 1   
    11    5   20 1   
    12    6   12 1   
    13    6   21 1   
    14    6   22 1   
    15    6   31 1   
    16    7   13 1   
    17    7   23 1   
    18    7   24 1   
    19    8    9 1   
    20    8   13 1   
    21    8   25 1   
    22    8   26 1   
    23    9   10 1   
    24    9   27 1   
    25   10   11 1   
    26   10   28 1   
    27   11   12 1   
    28   11   29 1   
    29   12   13 1   
    30   12   30 1   
    31   15   31 1   
@<TRIPOS>SUBSTRUCTURE
     1 MIG         1 TEMP              0 ****  ****    0 ROOT
