@<TRIPOS>MOLECULE
MIH
   52    43     1     0     0
SMALL
bcc


@<TRIPOS>ATOM
      1 CAA        -3.2150   -0.5230   -5.3040 c1        1 MIH      0.129000
      2 CAB        -1.8790   -0.9390   -5.2410 c1        1 MIH     -0.122750
      3 CAC        -1.2120   -0.9550   -4.0250 c1        1 MIH     -0.122750
      4 CAD        -1.8760   -0.5530   -2.8540 c1        1 MIH     -0.106000
      5 CAE        -3.2030   -0.1390   -2.9150 c1        1 MIH      0.138000
      6 CAF        -3.8750   -0.1240   -4.1450 c1        1 MIH     -0.210000
      7 FAG        -3.8850   -0.6440   -6.4300 f         1 MIH     -0.094000
      8 FAH        -3.8000    0.3450   -1.8270 f         1 MIH     -0.090000
      9 CAI        -1.1500   -0.5080   -1.5780 c1        1 MIH      0.029000
     10 CAJ        -1.0010   -1.4510   -0.5610 c1        1 MIH     -0.116000
     11 CAK        -0.2480   -1.1590    0.5380 c1        1 MIH      0.072000
     12 NAL         0.3750    0.0880    0.6420 n1        1 MIH     -0.128000
     13 CAM         0.2250    1.0210   -0.3690 c1        1 MIH      0.036000
     14 CAN        -0.5360    0.7210   -1.4750 c1        1 MIH     -0.166000
     15 CAO        -1.5410   -2.7290   -0.7210 c1        1 MIH     -0.066000
     16 CAP        -1.3110   -3.7220    0.2520 c1        1 MIH     -0.173000
     17 NAQ        -0.5560   -3.4360    1.3590 n2        1 MIH      0.375000
     18 CAR        -0.0140   -2.1640    1.5220 c1        1 MIH     -0.117000
     19 CAS         0.6100   -2.3480    2.7470 c1        1 MIH      0.008000
     20 CAT         0.0090   -1.9050    3.8940 c1        1 MIH     -0.016000
     21 CAU         0.6660   -2.0100    5.1020 c1        1 MIH     -0.132000
     22 CAV         1.9210   -2.5600    5.1550 c1        1 MIH     -0.122750
     23 CAW         2.5280   -3.0070    3.9990 c1        1 MIH     -0.122750
     24 CAX         1.8770   -2.9030    2.7990 c1        1 MIH     -0.016000
     25 CLAY        2.7110   -3.3180    1.3160 cl        1 MIH     -0.004000
     26 CLAZ       -1.5820   -1.2030    3.8260 cl        1 MIH     -0.001000
     27 OBA        -0.6460   -4.6000    2.0900 o         1 MIH     -0.406000
     28 CBB         0.9980    2.1750    0.2880 c3        1 MIH     -0.069000
     29 CBC         2.2490    2.4380   -0.4920 c3        1 MIH     -0.153500
     30 CBD         2.9830    3.6800   -0.0070 c3        1 MIH     -0.074000
     31 NBE         2.0930    4.8770    0.0710 n3        1 MIH     -0.301000
     32 CBF         0.8580    4.6250    0.8400 c3        1 MIH     -0.074000
     33 CBG         0.1110    3.3760    0.3570 c3        1 MIH     -0.153500
     34 HAB        -1.4040   -1.2280   -6.0790 ha        1 MIH      0.150750
     35 HAC        -0.2650   -1.2510   -3.9820 ha        1 MIH      0.150750
     36 HAF        -4.8350    0.1750   -4.1920 ha        1 MIH      0.170000
     37 HAN        -0.6440    1.3890   -2.1980 ha        1 MIH      0.160000
     38 HAO        -2.0710   -2.9320   -1.4970 ha        1 MIH      0.162000
     39 HAP        -1.6950   -4.6260    0.1360 ha        1 MIH      0.190000
     40 HAU         0.2470   -1.7010    5.9020 ha        1 MIH      0.150000
     41 HAV         2.3770   -2.6330    5.9950 ha        1 MIH      0.150750
     42 HAW         3.4090   -3.3940    4.0360 ha        1 MIH      0.150750
     43 HBB         1.2380    1.9180    1.1760 hc        1 MIH      0.119000
     44 HBC         2.0080    2.5610   -1.4550 hc        1 MIH      0.093500
     45 HBCA        2.8480    1.6590   -0.4100 hc        1 MIH      0.093500
     46 HBD         3.3600    3.4980    0.8990 h1        1 MIH      0.070250
     47 HBDA        3.7210    3.8740   -0.6270 h1        1 MIH      0.070250
     48 HNBE        2.5660    5.5950    0.4650 hn        1 MIH      0.160000
     49 HBF         1.0880    4.5100    1.7720 h1        1 MIH      0.070250
     50 HBFA        0.2640    5.4060    0.7520 h1        1 MIH      0.070250
     51 HBG        -0.2480    3.5500   -0.5300 hc        1 MIH      0.093500
     52 HBGA       -0.6490    3.1850    0.9840 hc        1 MIH      0.093500
@<TRIPOS>BOND
     1    1    6 1   
     2    1    7 1   
     3    2    3 1   
     4    2   34 1   
     5    3   35 1   
     6    4    5 1   
     7    5    8 1   
     8    6   36 1   
     9    9   10 1   
    10   10   15 1   
    11   11   12 1   
    12   11   18 1   
    13   13   14 1   
    14   13   28 1   
    15   14   37 1   
    16   15   38 1   
    17   16   17 1   
    18   16   39 1   
    19   17   27 1   
    20   19   24 1   
    21   20   21 1   
    22   20   26 1   
    23   21   40 1   
    24   22   23 1   
    25   22   41 1   
    26   23   42 1   
    27   24   25 1   
    28   28   29 1   
    29   28   33 1   
    30   28   43 1   
    31   29   30 1   
    32   29   44 1   
    33   29   45 1   
    34   30   31 1   
    35   30   46 1   
    36   30   47 1   
    37   31   32 1   
    38   31   48 1   
    39   32   33 1   
    40   32   49 1   
    41   32   50 1   
    42   33   51 1   
    43   33   52 1   
@<TRIPOS>SUBSTRUCTURE
     1 MIH         1 TEMP              0 ****  ****    0 ROOT
