@<TRIPOS>MOLECULE
MIH
   52    56     1     0     0
SMALL
bcc


@<TRIPOS>ATOM
      1 CAA         0.2180   -0.0940   -0.1590 ca        1 MIH      0.163900
      2 CAB         1.1480   -1.0990    0.1740 ca        1 MIH     -0.183000
      3 CAC         1.7600   -1.0750    1.4190 ca        1 MIH     -0.072000
      4 CAD         1.4800   -0.0710    2.3560 cp        1 MIH     -0.106000
      5 CAE         0.5510    0.9360    2.0090 ca        1 MIH      0.172900
      6 CAF        -0.0860    0.9250    0.7550 ca        1 MIH     -0.210000
      7 FAG        -0.3860   -0.1110   -1.3690 f         1 MIH     -0.128900
      8 FAH         0.2490    1.9300    2.8770 f         1 MIH     -0.124900
      9 CAI         2.1680   -0.0660    3.6480 cp        1 MIH      0.029000
     10 CAJ         2.0570   -1.1740    4.5420 ca        1 MIH     -0.181300
     11 CAK         2.7840   -1.1260    5.7680 ca        1 MIH      0.465600
     12 NAL         3.5750   -0.0520    6.1160 nb        1 MIH     -0.654000
     13 CAM         3.6490    0.9750    5.2720 ca        1 MIH      0.458600
     14 CAN         2.9530    1.0060    4.0180 ca        1 MIH     -0.231300
     15 CAO         1.2490   -2.3110    4.2870 ca        1 MIH     -0.066000
     16 CAP         1.1830   -3.3400    5.1860 ca        1 MIH     -0.197300
     17 NAQ         1.9070   -3.3350    6.4050 na        1 MIH      0.273600
     18 CAR         2.6930   -2.2380    6.6850 cp        1 MIH     -0.206600
     19 CAS         3.4520   -2.1990    7.9460 cp        1 MIH      0.008000
     20 CAT         4.7630   -2.6990    8.0080 ca        1 MIH      0.062400
     21 CAU         5.4940   -2.6410    9.1980 ca        1 MIH     -0.132000
     22 CAV         4.9160   -2.0850   10.3370 ca        1 MIH     -0.104000
     23 CAW         3.6150   -1.5880   10.2980 ca        1 MIH     -0.132000
     24 CAX         2.8860   -1.6480    9.1060 ca        1 MIH      0.062400
     25 CLAY        1.2980   -1.0410    9.0870 cl        1 MIH     -0.080900
     26 CLAZ        5.4890   -3.3890    6.6340 cl        1 MIH     -0.080900
     27 OBA         1.8080   -4.2920    7.1550 o         1 MIH     -0.256000
     28 CBB         4.5070    2.1630    5.6450 c3        1 MIH     -0.124000
     29 CBC         5.6230    2.3550    4.6270 c3        1 MIH     -0.074900
     30 CBD         6.4450    3.5980    4.9660 c3        1 MIH      0.162800
     31 NBE         5.6360    4.7910    5.1210 n3        1 MIH     -0.822200
     32 CBF         4.5350    4.6350    6.0520 c3        1 MIH      0.162800
     33 CBG         3.6560    3.4230    5.7450 c3        1 MIH     -0.074900
     34 HAB         1.3800   -1.8890   -0.5550 ha        1 MIH      0.159000
     35 HAC         2.4920   -1.8580    1.6800 ha        1 MIH      0.153000
     36 HAF        -0.8110    1.7110    0.4970 ha        1 MIH      0.170000
     37 HAN         3.0500    1.8870    3.3670 ha        1 MIH      0.160000
     38 HAO         0.6610   -2.3640    3.3560 ha        1 MIH      0.162000
     39 HAP         0.5670   -4.2450    5.0360 h4        1 MIH      0.190000
     40 HAU         6.5210   -3.0350    9.2350 ha        1 MIH      0.150000
     41 HAV         5.4900   -2.0400   11.2750 ha        1 MIH      0.141000
     42 HAW         3.1610   -1.1530   11.2010 ha        1 MIH      0.150000
     43 HBB         4.9840    1.9860    6.6530 hc        1 MIH      0.079700
     44 HBC         5.1920    2.4570    3.5970 hc        1 MIH      0.054200
     45 HBCA        6.3010    1.4640    4.6310 hc        1 MIH      0.054200
     46 HBD         7.0510    3.3730    5.8950 h1        1 MIH      0.030950
     47 HBDA        7.1710    3.7930    4.1270 h1        1 MIH      0.030950
     48 HNBE        6.2140    5.5610    5.4020 hn        1 MIH      0.364800
     49 HBF         4.8940    4.5460    7.1210 h1        1 MIH      0.030950
     50 HBFA        3.9050    5.5660    5.9810 h1        1 MIH      0.030950
     51 HBG         3.1010    3.5910    4.7860 hc        1 MIH      0.054200
     52 HBGA        2.9020    3.3100    6.5650 hc        1 MIH      0.054200
@<TRIPOS>BOND
     1    1    2 ar  
     2    1    6 ar  
     3    1    7 1   
     4    2    3 ar  
     5    2   34 1   
     6    3    4 ar  
     7    3   35 1   
     8    4    5 ar  
     9    4    9 1   
    10    5    6 ar  
    11    5    8 1   
    12    6   36 1   
    13    9   10 ar  
    14    9   14 ar  
    15   10   11 ar  
    16   10   15 ar  
    17   11   12 ar  
    18   11   18 ar  
    19   12   13 ar  
    20   13   14 ar  
    21   13   28 1   
    22   14   37 1   
    23   15   16 ar  
    24   15   38 1   
    25   16   17 2   
    26   16   39 1   
    27   17   18 1   
    28   17   27 1   
    29   18   19 1   
    30   19   20 ar  
    31   19   24 ar  
    32   20   21 ar  
    33   20   26 1   
    34   21   22 ar  
    35   21   40 1   
    36   22   23 ar  
    37   22   41 1   
    38   23   24 ar  
    39   23   42 1   
    40   24   25 1   
    41   28   29 1   
    42   28   33 1   
    43   28   43 1   
    44   29   30 1   
    45   29   44 1   
    46   29   45 1   
    47   30   31 1   
    48   30   46 1   
    49   30   47 1   
    50   31   32 1   
    51   31   48 1   
    52   32   33 1   
    53   32   49 1   
    54   32   50 1   
    55   33   51 1   
    56   33   52 1   
@<TRIPOS>SUBSTRUCTURE
     1 MIH         1 TEMP              0 ****  ****    0 ROOT
