@<TRIPOS>MOLECULE
MIH
   52    56     1     0     0
SMALL
bcc


@<TRIPOS>ATOM
      1 CAA         0.2310   -0.0850   -0.1670 ca        1 MIH      0.163900
      2 CAB         1.1780   -1.0770    0.1560 ca        1 MIH     -0.183000
      3 CAC         1.7890   -1.0570    1.4020 ca        1 MIH     -0.072000
      4 CAD         1.4890   -0.0690    2.3500 cp        1 MIH     -0.106000
      5 CAE         0.5420    0.9260    2.0140 ca        1 MIH      0.172900
      6 CAF        -0.0920    0.9180    0.7580 ca        1 MIH     -0.210000
      7 FAG        -0.3720   -0.0980   -1.3780 f         1 MIH     -0.128900
      8 FAH         0.2220    1.9030    2.8930 f         1 MIH     -0.124900
      9 CAI         2.1750   -0.0660    3.6430 cp        1 MIH      0.029000
     10 CAJ         2.0830   -1.1870    4.5230 ca        1 MIH     -0.181300
     11 CAK         2.8080   -1.1400    5.7520 ca        1 MIH      0.465600
     12 NAL         3.5790   -0.0570    6.1130 nb        1 MIH     -0.654000
     13 CAM         3.6350    0.9820    5.2810 ca        1 MIH      0.458600
     14 CAN         2.9400    1.0150    4.0270 ca        1 MIH     -0.231300
     15 CAO         1.2960   -2.3350    4.2540 ca        1 MIH     -0.066000
     16 CAP         1.2480   -3.3760    5.1400 ca        1 MIH     -0.197300
     17 NAQ         1.9700   -3.3720    6.3600 na        1 MIH      0.273600
     18 CAR         2.7360   -2.2640    6.6550 cp        1 MIH     -0.206600
     19 CAS         3.4930   -2.2270    7.9170 cp        1 MIH      0.008000
     20 CAT         4.8130   -2.7030    7.9740 ca        1 MIH      0.062400
     21 CAU         5.5420   -2.6460    9.1670 ca        1 MIH     -0.132000
     22 CAV         4.9520   -2.1150   10.3110 ca        1 MIH     -0.104000
     23 CAW         3.6420   -1.6420   10.2770 ca        1 MIH     -0.132000
     24 CAX         2.9150   -1.7010    9.0830 ca        1 MIH      0.062400
     25 ClAY        1.3170   -1.1240    9.0690 cl        1 MIH     -0.080900
     26 ClAZ        5.5540   -3.3630    6.5930 cl        1 MIH     -0.080900
     27 OBA         1.8890   -4.3400    7.0990 o         1 MIH     -0.256000
     28 CBB         4.4710    2.1810    5.6700 c3        1 MIH     -0.124000
     29 CBC         5.5840    2.4050    4.6550 c3        1 MIH     -0.074900
     30 CBD         6.3830    3.6580    5.0110 c3        1 MIH      0.162800
     31 NBE         5.5520    4.8350    5.1790 n7        1 MIH     -0.822200
     32 CBF         4.4530    4.6480    6.1060 c3        1 MIH      0.162800
     33 CBG         3.5970    3.4230    5.7840 c3        1 MIH     -0.074900
     34 HAB         1.4260   -1.8540   -0.5820 ha        1 MIH      0.159000
     35 HAC         2.5340   -1.8290    1.6550 ha        1 MIH      0.153000
     36 HAF        -0.8310    1.6930    0.5080 ha        1 MIH      0.170000
     37 HAN         3.0220    1.9060    3.3870 ha        1 MIH      0.160000
     38 HAO         0.7110   -2.3880    3.3210 ha        1 MIH      0.162000
     39 HAP         0.6490   -4.2900    4.9790 h4        1 MIH      0.190000
     40 HAU         6.5760   -3.0220    9.2000 ha        1 MIH      0.150000
     41 HAV         5.5240   -2.0710   11.2510 ha        1 MIH      0.141000
     42 HAW         3.1790   -1.2270   11.1850 ha        1 MIH      0.150000
     43 HBB         4.9490    2.0000    6.6760 hc        1 MIH      0.079700
     44 HBC         5.1530    2.5110    3.6270 hc        1 MIH      0.054200
     45 HBCA        6.2790    1.5260    4.6500 hc        1 MIH      0.054200
     46 HBD         6.9920    3.4340    5.9380 h1        1 MIH      0.030950
     47 HBDA        7.1060    3.8770    4.1750 h1        1 MIH      0.030950
     48 HNBE        6.1160    5.6120    5.4700 hn        1 MIH      0.364800
     49 HBF         4.8120    4.5520    7.1740 h1        1 MIH      0.030950
     50 HBFA        3.8060    5.5680    6.0460 h1        1 MIH      0.030950
     51 HBG         2.8440    3.2870    6.6010 hc        1 MIH      0.054200
     52 HBGA        3.0410    3.5930    4.8260 hc        1 MIH      0.054200
@<TRIPOS>BOND
     1    1    2 ar  
     2    1    6 ar  
     3    1    7 1   
     4    2    3 ar  
     5    2   34 1   
     6    3    4 ar  
     7    3   35 1   
     8    4    5 ar  
     9    4    9 1   
    10    5    6 ar  
    11    5    8 1   
    12    6   36 1   
    13    9   10 ar  
    14    9   14 ar  
    15   10   11 ar  
    16   10   15 ar  
    17   11   12 ar  
    18   11   18 ar  
    19   12   13 ar  
    20   13   14 ar  
    21   13   28 1   
    22   14   37 1   
    23   15   16 ar  
    24   15   38 1   
    25   16   17 2   
    26   16   39 1   
    27   17   18 1   
    28   17   27 1   
    29   18   19 1   
    30   19   20 ar  
    31   19   24 ar  
    32   20   21 ar  
    33   20   26 1   
    34   21   22 ar  
    35   21   40 1   
    36   22   23 ar  
    37   22   41 1   
    38   23   24 ar  
    39   23   42 1   
    40   24   25 1   
    41   28   29 1   
    42   28   33 1   
    43   28   43 1   
    44   29   30 1   
    45   29   44 1   
    46   29   45 1   
    47   30   31 1   
    48   30   46 1   
    49   30   47 1   
    50   31   32 1   
    51   31   48 1   
    52   32   33 1   
    53   32   49 1   
    54   32   50 1   
    55   33   51 1   
    56   33   52 1   
@<TRIPOS>SUBSTRUCTURE
     1 MIH         1 TEMP              0 ****  ****    0 ROOT
