@<TRIPOS>MOLECULE
MIH
   52    56     1     0     0
SMALL
bcc


@<TRIPOS>ATOM
      1 CAA         0.2220   -0.0940   -0.1610 ca        1 MIH      0.163900
      2 CAB         1.1620   -1.0900    0.1660 ca        1 MIH     -0.183000
      3 CAC         1.7750   -1.0680    1.4110 ca        1 MIH     -0.072000
      4 CAD         1.4830   -0.0730    2.3540 cp        1 MIH     -0.106000
      5 CAE         0.5430    0.9270    2.0130 ca        1 MIH      0.172900
      6 CAF        -0.0930    0.9160    0.7590 ca        1 MIH     -0.210000
      7 FAG        -0.3820   -0.1100   -1.3710 f         1 MIH     -0.128900
      8 FAH         0.2310    1.9110    2.8870 f         1 MIH     -0.124900
      9 CAI         2.1710   -0.0680    3.6460 cp        1 MIH      0.029000
     10 CAJ         2.0720   -1.1830    4.5330 ca        1 MIH     -0.181300
     11 CAK         2.8000   -1.1340    5.7600 ca        1 MIH      0.465600
     12 NAL         3.5780   -0.0540    6.1140 nb        1 MIH     -0.654000
     13 CAM         3.6410    0.9790    5.2770 ca        1 MIH      0.458600
     14 CAN         2.9450    1.0100    4.0230 ca        1 MIH     -0.231300
     15 CAO         1.2770   -2.3260    4.2710 ca        1 MIH     -0.066000
     16 CAP         1.2230   -3.3620    5.1630 ca        1 MIH     -0.197300
     17 NAQ         1.9460   -3.3570    6.3820 na        1 MIH      0.273600
     18 CAR         2.7210   -2.2530    6.6700 cp        1 MIH     -0.206600
     19 CAS         3.4790   -2.2140    7.9310 cp        1 MIH      0.008000
     20 CAT         4.7960   -2.6990    7.9890 ca        1 MIH      0.062400
     21 CAU         5.5270   -2.6400    9.1800 ca        1 MIH     -0.132000
     22 CAV         4.9420   -2.0980   10.3220 ca        1 MIH     -0.104000
     23 CAW         3.6350   -1.6160   10.2870 ca        1 MIH     -0.132000
     24 CAX         2.9070   -1.6760    9.0950 ca        1 MIH      0.062400
     25 CLAY        1.3120   -1.0880    9.0790 cl        1 MIH     -0.080900
     26 CLAZ        5.5300   -3.3710    6.6110 cl        1 MIH     -0.080900
     27 OBA         1.8590   -4.3190    7.1270 o         1 MIH     -0.256000
     28 CBB         4.4850    2.1750    5.6570 c3        1 MIH     -0.124000
     29 CBC         5.5990    2.3850    4.6400 c3        1 MIH     -0.074900
     30 CBD         6.4080    3.6350    4.9880 c3        1 MIH      0.162800
     31 NBE         5.5850    4.8180    5.1500 n3        1 MIH     -0.822200
     32 CBF         4.4860    4.6440    6.0790 c3        1 MIH      0.162800
     33 CBG         3.6210    3.4240    5.7650 c3        1 MIH     -0.074900
     34 HAB         1.4040   -1.8730   -0.5680 ha        1 MIH      0.159000
     35 HAC         2.5140   -1.8440    1.6670 ha        1 MIH      0.153000
     36 HAF        -0.8270    1.6950    0.5060 ha        1 MIH      0.170000
     37 HAN         3.0310    1.8970    3.3770 ha        1 MIH      0.160000
     38 HAO         0.6900   -2.3810    3.3400 ha        1 MIH      0.162000
     39 HAP         0.6170   -4.2720    5.0080 h4        1 MIH      0.190000
     40 HAU         6.5580   -3.0230    9.2140 ha        1 MIH      0.150000
     41 HAV         5.5150   -2.0530   11.2610 ha        1 MIH      0.141000
     42 HAW         3.1770   -1.1930   11.1930 ha        1 MIH      0.150000
     43 HBB         4.9640    1.9960    6.6640 hc        1 MIH      0.079700
     44 HBC         6.2870    1.5010    4.6390 hc        1 MIH      0.054200
     45 HBCA        5.1670    2.4880    3.6110 hc        1 MIH      0.054200
     46 HBD         7.1310    3.8430    4.1500 h1        1 MIH      0.030950
     47 HBDA        7.0160    3.4110    5.9150 h1        1 MIH      0.030950
     48 HNBE        6.1550    5.5930    5.4350 hn        1 MIH      0.364800
     49 HBF         3.8450    5.5690    6.0150 h1        1 MIH      0.030950
     50 HBFA        4.8450    4.5520    7.1470 h1        1 MIH      0.030950
     51 HBG         2.8680    3.2970    6.5840 hc        1 MIH      0.054200
     52 HBGA        3.0640    3.5920    4.8070 hc        1 MIH      0.054200
@<TRIPOS>BOND
     1    1    2 ar  
     2    1    6 ar  
     3    1    7 1   
     4    2    3 ar  
     5    2   34 1   
     6    3    4 ar  
     7    3   35 1   
     8    4    5 ar  
     9    4    9 1   
    10    5    6 ar  
    11    5    8 1   
    12    6   36 1   
    13    9   10 ar  
    14    9   14 ar  
    15   10   11 ar  
    16   10   15 ar  
    17   11   12 ar  
    18   11   18 ar  
    19   12   13 ar  
    20   13   14 ar  
    21   13   28 1   
    22   14   37 1   
    23   15   16 ar  
    24   15   38 1   
    25   16   17 2   
    26   16   39 1   
    27   17   18 1   
    28   17   27 1   
    29   18   19 1   
    30   19   20 ar  
    31   19   24 ar  
    32   20   21 ar  
    33   20   26 1   
    34   21   22 ar  
    35   21   40 1   
    36   22   23 ar  
    37   22   41 1   
    38   23   24 ar  
    39   23   42 1   
    40   24   25 1   
    41   28   29 1   
    42   28   33 1   
    43   28   43 1   
    44   29   30 1   
    45   29   44 1   
    46   29   45 1   
    47   30   31 1   
    48   30   46 1   
    49   30   47 1   
    50   31   32 1   
    51   31   48 1   
    52   32   33 1   
    53   32   49 1   
    54   32   50 1   
    55   33   51 1   
    56   33   52 1   
@<TRIPOS>SUBSTRUCTURE
     1 MIH         1 TEMP              0 ****  ****    0 ROOT
