@<TRIPOS>MOLECULE
MIH
   52    56     1     0     0
SMALL
bcc


@<TRIPOS>ATOM
      1 CAA        -5.9180    1.2560    0.6290 ca        1 MIH      0.163900
      2 CAB        -4.9740    1.5250    1.6390 ca        1 MIH     -0.183000
      3 CAC        -3.6550    1.1310    1.4630 ca        1 MIH     -0.072000
      4 CAD        -3.2370    0.4660    0.3020 cp        1 MIH     -0.106000
      5 CAE        -4.1940    0.1940   -0.7030 ca        1 MIH      0.172900
      6 CAF        -5.5340    0.5920   -0.5450 ca        1 MIH     -0.210000
      7 FAG        -7.2060    1.6380    0.7910 f         1 MIH     -0.128900
      8 FAH        -3.8420   -0.4500   -1.8390 f         1 MIH     -0.124900
      9 CAI        -1.8430    0.0420    0.1650 cp        1 MIH      0.029000
     10 CAJ        -0.7800    0.9950    0.2130 ca        1 MIH     -0.181300
     11 CAK         0.5600    0.5140    0.1150 ca        1 MIH      0.465600
     12 NAL         0.8560   -0.8240   -0.0300 nb        1 MIH     -0.654000
     13 CAM        -0.1540   -1.6900   -0.0870 ca        1 MIH      0.458600
     14 CAN        -1.5290   -1.2920    0.0070 ca        1 MIH     -0.231300
     15 CAO        -0.9830    2.3920    0.3320 ca        1 MIH     -0.066000
     16 CAP         0.0790    3.2540    0.3690 ca        1 MIH     -0.197300
     17 NAQ         1.4230    2.8110    0.2940 na        1 MIH      0.273600
     18 CAR         1.6520    1.4580    0.1670 cp        1 MIH     -0.206600
     19 CAS         3.0370    0.9660    0.0790 cp        1 MIH      0.008000
     20 CAT         3.7430    0.6070    1.2380 ca        1 MIH      0.062400
     21 CAU         5.0500    0.1170    1.1550 ca        1 MIH     -0.132000
     22 CAV         5.6610   -0.0140   -0.0900 ca        1 MIH     -0.104000
     23 CAW         4.9790    0.3420   -1.2520 ca        1 MIH     -0.132000
     24 CAX         3.6720    0.8320   -1.1660 ca        1 MIH      0.062400
     25 CLAY        2.8640    1.2650   -2.5970 cl        1 MIH     -0.080900
     26 CLAZ        3.0240    0.7630    2.7710 cl        1 MIH     -0.080900
     27 OBA         2.3220    3.6350    0.3430 o         1 MIH     -0.256000
     28 CBB         0.1550   -3.1600   -0.2540 c3        1 MIH     -0.124000
     29 CBC        -0.3600   -3.9520    0.9400 c3        1 MIH     -0.074900
     30 CBD        -0.1080   -5.4460    0.7360 c3        1 MIH      0.162800
     31 NBE        -0.6340   -5.9460   -0.5190 n3        1 MIH     -0.822200
     32 CBF        -0.2000   -5.1910   -1.6780 c3        1 MIH      0.162800
     33 CBG        -0.4530   -3.6890   -1.5460 c3        1 MIH     -0.074900
     34 HAB        -5.2910    2.0410    2.5570 ha        1 MIH      0.159000
     35 HAC        -2.9160    1.3370    2.2540 ha        1 MIH      0.153000
     36 HAF        -6.2690    0.3800   -1.3350 ha        1 MIH      0.170000
     37 HAN        -2.3190   -2.0550   -0.0540 ha        1 MIH      0.160000
     38 HAO        -2.0090    2.7920    0.3900 ha        1 MIH      0.162000
     39 HAP        -0.0250    4.3500    0.4580 h4        1 MIH      0.190000
     40 HAU         5.5950   -0.1620    2.0700 ha        1 MIH      0.150000
     41 HAV         6.6900   -0.3980   -0.1570 ha        1 MIH      0.141000
     42 HAW         5.4670    0.2410   -2.2330 ha        1 MIH      0.150000
     43 HBB         1.2740   -3.3080   -0.3120 hc        1 MIH      0.079700
     44 HBC         0.1660   -3.6240    1.8720 hc        1 MIH      0.054200
     45 HBCA       -1.4570   -3.7690    1.0790 hc        1 MIH      0.054200
     46 HBD         1.0030   -5.6300    0.8330 h1        1 MIH      0.030950
     47 HBDA       -0.6200   -6.0160    1.5630 h1        1 MIH      0.030950
     48 HNBE       -0.3910   -6.9120   -0.6300 hn        1 MIH      0.364800
     49 HBF         0.9000   -5.3420   -1.8940 h1        1 MIH      0.030950
     50 HBFA       -0.7770   -5.5790   -2.5640 h1        1 MIH      0.030950
     51 HBG        -1.5560   -3.4890   -1.5630 hc        1 MIH      0.054200
     52 HBGA        0.0060   -3.1690   -2.4250 hc        1 MIH      0.054200
@<TRIPOS>BOND
     1    1    2 ar  
     2    1    6 ar  
     3    1    7 1   
     4    2    3 ar  
     5    2   34 1   
     6    3    4 ar  
     7    3   35 1   
     8    4    5 ar  
     9    4    9 1   
    10    5    6 ar  
    11    5    8 1   
    12    6   36 1   
    13    9   10 ar  
    14    9   14 ar  
    15   10   11 ar  
    16   10   15 ar  
    17   11   12 ar  
    18   11   18 ar  
    19   12   13 ar  
    20   13   14 ar  
    21   13   28 1   
    22   14   37 1   
    23   15   16 ar  
    24   15   38 1   
    25   16   17 2   
    26   16   39 1   
    27   17   18 1   
    28   17   27 1   
    29   18   19 1   
    30   19   20 ar  
    31   19   24 ar  
    32   20   21 ar  
    33   20   26 1   
    34   21   22 ar  
    35   21   40 1   
    36   22   23 ar  
    37   22   41 1   
    38   23   24 ar  
    39   23   42 1   
    40   24   25 1   
    41   28   29 1   
    42   28   33 1   
    43   28   43 1   
    44   29   30 1   
    45   29   44 1   
    46   29   45 1   
    47   30   31 1   
    48   30   46 1   
    49   30   47 1   
    50   31   32 1   
    51   31   48 1   
    52   32   33 1   
    53   32   49 1   
    54   32   50 1   
    55   33   51 1   
    56   33   52 1   
@<TRIPOS>SUBSTRUCTURE
     1 MIH         1 TEMP              0 ****  ****    0 ROOT
