@<TRIPOS>MOLECULE
MII
   45    47     1     0     0
SMALL
bcc


@<TRIPOS>ATOM
      1 C          -1.5760   -1.0000    1.4540 c         1 MII      0.645500
      2 N           0.5970    0.1180    0.7190 n         1 MII     -0.531900
      3 O          -1.5110   -2.2110    1.6240 o         1 MII     -0.572500
      4 CA         -0.5420    0.1820    1.5590 cy        1 MII     -0.003300
      5 CB         -1.7470    1.0720    1.0550 cy        1 MII      0.133800
      6 CAA         2.2520   -3.1650   -1.4420 c3        1 MII      0.114200
      7 CAB         4.6620    3.1790    0.9050 c3        1 MII      0.114200
      8 CAC        -2.4190   -0.5160   -2.1680 c3        1 MII     -0.088100
      9 CAD        -4.0960    1.2960   -1.8780 c3        1 MII     -0.088100
     10 OAE        -5.2000    1.3170    1.0200 o         1 MII     -0.813300
     11 OAH        -5.9420   -0.5320   -0.0110 o         1 MII     -0.813300
     12 CAI         5.0560   -0.0610   -1.7160 ca        1 MII     -0.051000
     13 CAJ         4.1390   -1.1060   -1.6600 ca        1 MII     -0.251000
     14 CAK         4.9480    1.0370   -0.8700 ca        1 MII     -0.251000
     15 SAO        -1.6970    1.6070   -0.6550 ss        1 MII     -0.430200
     16 CAP        -5.0340    0.2350    0.4080 c         1 MII      0.941600
     17 CAQ         1.8890    0.0730    1.1960 c         1 MII      0.708700
     18 CAS         3.0900   -1.0490   -0.7290 ca        1 MII      0.190100
     19 CAT         3.8990    1.0870    0.0620 ca        1 MII      0.190100
     20 CAU         2.9630    0.0390    0.1560 ca        1 MII     -0.191600
     21 CAW        -3.5670   -0.2570    0.0670 c3        1 MII     -0.078300
     22 NAX        -2.6460   -0.0950    1.1730 n         1 MII     -0.341800
     23 CAY        -3.0320    0.4700   -1.2020 c3        1 MII      0.087100
     24 HN          0.4320    0.1360   -0.2650 hn        1 MII      0.335500
     25 HA         -0.2450    0.3950    2.6190 h1        1 MII      0.111700
     26 HB         -2.0260    1.9120    1.7250 h2        1 MII      0.119700
     27 HAA         1.3800   -3.7990   -1.1390 h1        1 MII      0.045700
     28 HAAA        2.1760   -2.8760   -2.5180 h1        1 MII      0.045700
     29 HAAB        3.2160   -3.6930   -1.2440 h1        1 MII      0.045700
     30 HAB         5.6730    2.7790    1.1610 h1        1 MII      0.045700
     31 HABA        4.6810    3.6880   -0.0890 h1        1 MII      0.045700
     32 HABB        4.3010    3.8800    1.7010 h1        1 MII      0.045700
     33 HAC        -1.9540    0.0170   -3.0330 hc        1 MII      0.045033
     34 HACA       -1.6350   -1.1300   -1.6640 hc        1 MII      0.045033
     35 HACB       -3.2110   -1.2020   -2.5600 hc        1 MII      0.045033
     36 HAD        -4.9710    0.6440   -2.1280 hc        1 MII      0.045033
     37 HADA       -4.4550    2.1030   -1.1890 hc        1 MII      0.045033
     38 HADB       -3.6990    1.7560   -2.8140 hc        1 MII      0.045033
     39 HAI         5.8800   -0.1030   -2.4460 ha        1 MII      0.127000
     40 HAJ         4.2390   -1.9600   -2.3420 ha        1 MII      0.137000
     41 HAK         5.6780    1.8530   -0.9370 ha        1 MII      0.137000
     42 HAW        -3.6580   -1.3610   -0.1540 h1        1 MII      0.078700
     43 OAN         3.6880    2.1430    0.9210 os        1 MII     -0.304400
     44 OAM         2.1220   -2.0210   -0.6050 os        1 MII     -0.304400
     45 OAF         2.1570    0.0640    2.4130 o         1 MII     -0.602100
@<TRIPOS>BOND
     1    1    3 2   
     2    1    4 1   
     3    1   22 1   
     4    2    4 1   
     5    2   17 1   
     6    2   24 1   
     7    4    5 1   
     8    4   25 1   
     9    5   15 1   
    10    5   22 1   
    11    5   26 1   
    12    6   27 1   
    13    6   28 1   
    14    6   29 1   
    15    6   44 1   
    16    7   30 1   
    17    7   31 1   
    18    7   32 1   
    19    7   43 1   
    20    8   23 1   
    21    8   33 1   
    22    8   34 1   
    23    8   35 1   
    24    9   23 1   
    25    9   36 1   
    26    9   37 1   
    27    9   38 1   
    28   10   16 1   
    29   11   16 1   
    30   12   13 ar  
    31   12   14 ar  
    32   12   39 1   
    33   13   18 ar  
    34   13   40 1   
    35   14   19 ar  
    36   14   41 1   
    37   15   23 1   
    38   16   21 1   
    39   17   20 1   
    40   17   45 2   
    41   18   20 ar  
    42   18   44 1   
    43   19   20 ar  
    44   19   43 1   
    45   21   22 1   
    46   21   23 1   
    47   21   42 1   
@<TRIPOS>SUBSTRUCTURE
     1 MII         1 TEMP              0 ****  ****    0 ROOT
