@<TRIPOS>MOLECULE
MII
   46    46     1     0     0
SMALL
bcc


@<TRIPOS>ATOM
      1 C           0.5070    3.2210    0.6300 c2        1 MII      0.303000
      2 N           1.0630    1.2470   -0.7990 ns        1 MII     -0.381000
      3 O           0.2450    4.4160    0.7150 o         1 MII     -0.234000
      4 CA          0.2200    2.3710   -0.6180 c3        1 MII     -0.018000
      5 CB          2.3180    2.1530    1.9250 c2        1 MII     -0.151000
      6 CAA         1.9170    2.6060   -6.1960 c3        1 MII      0.007000
      7 CAB         5.0620    4.1360   -0.5130 c3        1 MII     -0.078000
      8 CAC         0.9680    2.1070    5.2490 c3        1 MII     -0.224500
      9 CAD         0.5300   -0.0800    4.1420 c3        1 MII     -0.224500
     10 OAE        -0.8180    0.5090    1.2600 o         1 MII     -0.500000
     11 OAH        -2.0630    1.1850    3.0220 o         1 MII     -0.500000
     12 CAI         4.0600    2.8240   -4.9260 c2        1 MII     -0.428000
     13 CAJ         2.6270    2.6190   -4.8720 c2        1 MII     -0.043000
     14 CAK         4.8540    3.2000   -3.9430 c1        1 MII      0.161000
     15 SAO         2.7060    1.3070    3.2950 ss        1 MII      0.352000
     16 CAP        -1.0400    1.1490    2.3150 c2        1 MII      0.364000
     17 CAQ         2.2080    1.2360   -1.5780 c2        1 MII      0.351000
     18 CAS         1.9370    2.4510   -3.7250 c2        1 MII     -0.135000
     19 CAT         3.3580    3.4180   -1.9640 c2        1 MII      0.021000
     20 CAU         2.5300    2.4430   -2.4010 c2        1 MII     -0.168000
     21 CAW         0.1490    2.0880    2.8620 c3        1 MII     -0.159000
     22 NAX         1.0570    2.5480    1.8010 n         1 MII     -0.143000
     23 CAY         0.9660    1.3490    3.9470 c3        1 MII     -0.116000
     24 HN          3.0670    2.3930    1.1410 h5        1 MII      0.228000
     25 HA          0.2720    3.0750   -1.4980 h1        1 MII      0.155500
     26 HB         -0.8480    2.0060   -0.4680 h1        1 MII      0.155500
     27 HAA         2.7640    1.0300   -6.9360 ho        1 MII      0.207000
     28 HAAA        0.9030    2.1320   -6.0960 h1        1 MII      0.100500
     29 HAAB        1.8000    3.6600   -6.5740 h1        1 MII      0.100500
     30 HAB         5.4160    3.8590    0.5100 h1        1 MII      0.095667
     31 HABA        5.8210    3.8710   -1.2890 h1        1 MII      0.095667
     32 HABB        4.8030    5.2220   -0.5680 h1        1 MII      0.095667
     33 HAC        -0.0760    2.1510    5.6520 hc        1 MII      0.107333
     34 HACA        1.6150    1.5940    6.0020 hc        1 MII      0.107333
     35 HACB        1.3370    3.1520    5.1090 hc        1 MII      0.107333
     36 HAD         0.5520   -0.6420    3.1750 hc        1 MII      0.107333
     37 HADA       -0.5270   -0.0960    4.5190 hc        1 MII      0.107333
     38 HADB        1.1880   -0.5910    4.8850 hc        1 MII      0.107333
     39 HAI         4.5190    2.6360   -5.9260 ha        1 MII      0.213000
     40 HAJ         0.8520    2.2440   -3.7550 ha        1 MII      0.146000
     41 HAK         3.5890    4.3400   -2.5310 h4        1 MII      0.166000
     42 HAW        -0.3460    3.0030    3.2990 h1        1 MII      0.154000
     43 OAM         2.6610    1.9520   -7.2040 oh        1 MII     -0.319000
     44 OAF         2.9230    0.2190   -1.5910 o         1 MII     -0.329000
     45 H2          0.8020    0.4110   -0.3060 hn        1 MII      0.282000
     46 OAN         3.8790    3.3480   -0.6880 os        1 MII     -0.250000
@<TRIPOS>BOND
     1    1    3 1   
     2    1    4 1   
     3    1   22 1   
     4    2    4 1   
     5    2   17 1   
     6    2   45 1   
     7    4   25 1   
     8    4   26 1   
     9    5   15 1   
    10    5   22 1   
    11    5   24 1   
    12    6   13 1   
    13    6   28 1   
    14    6   29 1   
    15    6   43 1   
    16    7   30 1   
    17    7   31 1   
    18    7   32 1   
    19    7   46 1   
    20    8   23 1   
    21    8   33 1   
    22    8   34 1   
    23    8   35 1   
    24    9   23 1   
    25    9   36 1   
    26    9   37 1   
    27    9   38 1   
    28   10   16 1   
    29   11   16 1   
    30   12   13 1   
    31   12   14 1   
    32   12   39 1   
    33   13   18 1   
    34   15   23 1   
    35   16   21 1   
    36   17   20 1   
    37   17   44 1   
    38   18   20 1   
    39   18   40 1   
    40   19   20 1   
    41   19   41 1   
    42   19   46 1   
    43   21   22 1   
    44   21   23 1   
    45   21   42 1   
    46   27   43 1   
@<TRIPOS>SUBSTRUCTURE
     1 MII         1 TEMP              0 ****  ****    0 ROOT
