@<TRIPOS>MOLECULE
MII
   46    46     1     0     0
SMALL
bcc


@<TRIPOS>ATOM
      1 C           0.5500    2.0040    0.0400 c2        1 MII      0.342000
      2 N           1.9650    1.2910   -1.8370 n         1 MII     -0.366000
      3 O          -0.1350    2.8520   -0.5240 o         1 MII     -0.250000
      4 CA          1.2620    0.8450   -0.6760 c3        1 MII     -0.032000
      5 CB          1.9180    2.1730    2.0960 c2        1 MII     -0.151000
      6 CAA         1.1680    4.1350   -5.1640 c2        1 MII     -0.164000
      7 CAB         5.0660    3.0380    1.3430 c1        1 MII      0.176000
      8 CAC        -0.5890    2.6820    4.7470 c3        1 MII     -0.221500
      9 CAD        -0.0790    0.2870    4.2950 c3        1 MII     -0.221500
     10 OAE        -1.0790    0.2560    0.7080 o         1 MII     -0.503000
     11 OAH        -2.3650    0.4960    2.5520 o         1 MII     -0.503000
     12 CAI         3.0540    2.4560   -5.2630 c2        1 MII     -0.050000
     13 CAJ         2.2470    3.5450   -4.6590 c2        1 MII     -0.164000
     14 CAK         3.8450    1.9690   -4.3000 cu        1 MII     -0.179000
     15 SAO         1.8970    2.0570    3.7480 ss        1 MII      0.333000
     16 CAP        -1.3890    0.7460    1.8230 c2        1 MII      0.375000
     17 CAQ         3.1600    1.9830   -1.7260 c2        1 MII      0.373000
     18 CAS         2.9460    3.9470   -3.3440 c3        1 MII      0.110000
     19 CAT         5.0240    2.1240   -3.4660 cx        1 MII     -0.035000
     20 CAU         3.6800    2.6440   -2.9560 cx        1 MII     -0.241000
     21 CAW        -0.4220    1.9100    2.3570 c3        1 MII     -0.158000
     22 NAX         0.7440    2.1050    1.4800 n         1 MII     -0.146000
     23 CAY         0.0630    1.7040    3.8060 c3        1 MII     -0.107000
     24 HN          1.4700    1.3200   -2.6990 hn        1 MII      0.245000
     25 HA          0.4420    0.1140   -0.9560 h1        1 MII      0.160500
     26 HB          1.9820    0.3330    0.0230 h1        1 MII      0.160500
     27 HAA         1.2860    3.8830   -2.3330 ho        1 MII      0.214000
     28 HAAA        0.7090    3.8150   -6.1080 ha        1 MII      0.131500
     29 HAAB        0.6810    4.9800   -4.6560 ha        1 MII      0.131500
     30 HAB         6.9340    2.6840   -1.6740 ha        1 MII      0.000500
     31 HABA        7.4590    2.8490   -1.2780 ha        1 MII      0.000500
     32 HABB        5.4570    1.2700   -2.9090 hc        1 MII      0.136500
     33 HAC        -0.2160    2.5330    5.7900 hc        1 MII      0.106667
     34 HACA       -1.6960    2.5100    4.7370 hc        1 MII      0.106667
     35 HACB       -0.3900    3.7370    4.4390 hc        1 MII      0.106667
     36 HAD         0.3390   -0.4360    3.5540 hc        1 MII      0.106667
     37 HADA        0.4400    0.1580    5.2750 hc        1 MII      0.106667
     38 HADB       -1.1700    0.0480    4.4240 hc        1 MII      0.106667
     39 HAI         3.0120    2.2050   -6.3230 ha        1 MII      0.166000
     40 HAJ         3.6790    4.7810   -3.5240 h1        1 MII      0.140000
     41 HAK         5.8030    2.8300   -3.8200 hc        1 MII      0.136500
     42 HAW        -1.0430    2.8520    2.2850 h1        1 MII      0.150000
     43 OAM         2.0790    4.4370   -2.3550 oh        1 MII     -0.306000
     44 OAF         3.7500    2.0410   -0.6260 o         1 MII     -0.403000
     45 H2          2.8630    2.3140    1.5160 h5        1 MII      0.251000
     46 OAN         6.0170    3.1670    0.6730 o         1 MII     -0.174000
@<TRIPOS>BOND
     1    1    3 1   
     2    1    4 1   
     3    1   22 1   
     4    2    4 1   
     5    2   17 1   
     6    2   24 1   
     7    4   25 1   
     8    4   26 1   
     9    5   15 1   
    10    5   22 1   
    11    5   45 1   
    12    6   13 1   
    13    6   28 1   
    14    6   29 1   
    15    7   46 1   
    16    8   23 1   
    17    8   33 1   
    18    8   34 1   
    19    8   35 1   
    20    9   23 1   
    21    9   36 1   
    22    9   37 1   
    23    9   38 1   
    24   10   16 1   
    25   11   16 1   
    26   12   13 1   
    27   12   14 1   
    28   12   39 1   
    29   13   18 1   
    30   14   19 1   
    31   14   20 1   
    32   15   23 1   
    33   16   21 1   
    34   17   20 1   
    35   17   44 1   
    36   18   20 1   
    37   18   40 1   
    38   18   43 1   
    39   19   20 1   
    40   19   32 1   
    41   19   41 1   
    42   21   22 1   
    43   21   23 1   
    44   21   42 1   
    45   27   43 1   
    46   30   31 1   
@<TRIPOS>SUBSTRUCTURE
     1 MII         1 TEMP              0 ****  ****    0 ROOT
