@<TRIPOS>MOLECULE
MIK
   37    37     1     0     0
SMALL
bcc


@<TRIPOS>ATOM
      1 N           0.7490    0.0090    0.3690 n4        1 MIK     -0.833600
      2 CA          1.7940    1.0830    0.4260 c3        1 MIK     -0.002500
      3 C           1.2420    2.3240    1.1830 c         1 MIK      0.913600
      4 O          -0.0150    2.4160    1.3360 o         1 MIK     -0.810300
      5 CB          2.2480    1.5400   -0.9600 c3        1 MIK     -0.102400
      6 CG          1.1540    2.2110   -1.7720 c3        1 MIK     -0.102400
      7 CD          1.5980    3.5290   -2.3750 c3        1 MIK     -0.068400
      8 CE          1.6310    4.6760   -1.3580 c3        1 MIK      0.084800
      9 NZ          0.3520    5.2910   -1.1610 n2        1 MIK     -0.527900
     10 CI1        -0.2520    5.5530   -0.0660 ce        1 MIK      0.584800
     11 CI2        -1.5690    6.2470   -0.0530 ca        1 MIK     -0.148900
     12 NI1         0.1970    5.2200    1.3270 n4        1 MIK     -0.877600
     13 CI3        -2.6710    5.6600    0.5810 ca        1 MIK     -0.218300
     14 CI4        -3.8960    6.3520    0.5480 ca        1 MIK      0.410700
     15 NI2        -4.0610    7.5430   -0.0610 nb        1 MIK     -0.622000
     16 CI5        -2.9920    8.0850   -0.6720 ca        1 MIK      0.410700
     17 CI6        -1.7190    7.4770   -0.7000 ca        1 MIK     -0.218300
     18 OXT         2.0600    3.2070    1.5370 o         1 MIK     -0.810300
     19 H1         -0.1760    0.4690    0.4720 hn        1 MIK      0.458800
     20 H2          0.7890   -0.4910   -0.5190 hn        1 MIK      0.458800
     21 HA          2.6800    0.6740    0.9930 hx        1 MIK      0.119700
     22 HBC1        3.0930    2.2610   -0.7710 hc        1 MIK      0.083200
     23 HBC2        2.6790    0.6760   -1.5320 hc        1 MIK      0.083200
     24 HGC1        0.2430    2.3870   -1.1380 hc        1 MIK      0.056700
     25 HGC2        0.8460    1.5280   -2.6090 hc        1 MIK      0.056700
     26 HDC1        2.6360    3.4250   -2.7910 hc        1 MIK      0.075200
     27 HDC2        0.9200    3.7880   -3.2320 hc        1 MIK      0.075200
     28 HEC1        2.1230    4.2970   -0.4130 h1        1 MIK      0.083200
     29 HEC2        2.2860    5.4970   -1.7840 h1        1 MIK      0.083200
     30 HI1        -0.2760    4.3400    1.6280 hn        1 MIK      0.477133
     31 HI3        -2.6070    4.6780    1.0710 ha        1 MIK      0.158500
     32 HI4        -4.7970    5.9300    1.0330 h4        1 MIK      0.047600
     33 HI5        -3.1610    9.0590   -1.1700 h4        1 MIK      0.047600
     34 HI6        -0.8840    7.9580   -1.2270 ha        1 MIK      0.158500
     35 HN1         1.2130    5.0360    1.3870 hn        1 MIK      0.477133
     36 HN3         0.8750   -0.6440    1.1430 hn        1 MIK      0.458800
     37 HI13       -0.0560    5.9790    1.9590 hn        1 MIK      0.477133
@<TRIPOS>BOND
     1    1    2 1   
     2    1   19 1   
     3    1   20 1   
     4    1   36 1   
     5    2    3 1   
     6    2    5 1   
     7    2   21 1   
     8    3    4 1   
     9    3   18 1   
    10    5    6 1   
    11    5   22 1   
    12    5   23 1   
    13    6    7 1   
    14    6   24 1   
    15    6   25 1   
    16    7    8 1   
    17    7   26 1   
    18    7   27 1   
    19    8    9 1   
    20    8   28 1   
    21    8   29 1   
    22    9   10 2   
    23   10   11 1   
    24   10   12 1   
    25   11   13 ar  
    26   11   17 ar  
    27   12   30 1   
    28   12   35 1   
    29   12   37 1   
    30   13   14 ar  
    31   13   31 1   
    32   14   15 ar  
    33   14   32 1   
    34   15   16 ar  
    35   16   17 ar  
    36   16   33 1   
    37   17   34 1   
@<TRIPOS>SUBSTRUCTURE
     1 MIK         1 TEMP              0 ****  ****    0 ROOT
