@<TRIPOS>MOLECULE
MIK
   37    37     1     0     0
SMALL
bcc


@<TRIPOS>ATOM
      1 N           0.6950    0.0240    0.5010 n4        1 MIK     -0.833600
      2 CA          1.7650    1.0740    0.4590 c3        1 MIK     -0.002500
      3 C           1.2800    2.3580    1.1900 c         1 MIK      0.913600
      4 O           0.0350    2.4860    1.4030 o         1 MIK     -0.810300
      5 CB          2.1560    1.4620   -0.9670 c3        1 MIK     -0.102400
      6 CG          1.0350    2.1260   -1.7490 c3        1 MIK     -0.102400
      7 CD          1.4760    3.4060   -2.4300 c3        1 MIK     -0.068400
      8 CE          1.5870    4.5930   -1.4650 c3        1 MIK      0.084800
      9 NZ          0.3340    5.2460   -1.2290 n2        1 MIK     -0.527900
     10 CI1        -0.2060    5.5670   -0.1160 ce        1 MIK      0.584800
     11 CI2        -1.5050    6.2930   -0.0660 ca        1 MIK     -0.148900
     12 NI1         0.3070    5.2820    1.2650 n4        1 MIK     -0.877600
     13 CI3        -2.5860    5.7590    0.6490 ca        1 MIK     -0.218300
     14 CI4        -3.7940    6.4800    0.6490 ca        1 MIK      0.410700
     15 NI2        -3.9650    7.6480   -0.0010 nb        1 MIK     -0.622000
     16 CI5        -2.9170    8.1380   -0.6870 ca        1 MIK      0.410700
     17 CI6        -1.6610    7.4990   -0.7550 ca        1 MIK     -0.218300
     18 OXT         2.1350    3.2350    1.4640 o         1 MIK     -0.810300
     19 H1         -0.2130    0.5090    0.6320 hn        1 MIK      0.458800
     20 H2          0.6780   -0.5130   -0.3660 hn        1 MIK      0.458800
     21 HA          2.6710    0.6670    0.9970 hx        1 MIK      0.119700
     22 HBC1        3.0250    2.1700   -0.8520 hc        1 MIK      0.083200
     23 HBC2        2.5370    0.5660   -1.5240 hc        1 MIK      0.083200
     24 HGC1        0.1630    2.3490   -1.0770 hc        1 MIK      0.056700
     25 HGC2        0.6690    1.4170   -2.5400 hc        1 MIK      0.056700
     26 HDC1        0.7600    3.6460   -3.2610 hc        1 MIK      0.075200
     27 HDC2        2.4880    3.2610   -2.8930 hc        1 MIK      0.075200
     28 HEC1        2.2370    5.3790   -1.9590 h1        1 MIK      0.083200
     29 HEC2        2.1190    4.2420   -0.5320 h1        1 MIK      0.083200
     30 HI1        -0.1690    4.4260    1.6260 hn        1 MIK      0.477133
     31 HI3        -2.5180    4.7980    1.1750 ha        1 MIK      0.158500
     32 HI4        -4.6780    6.1000    1.1970 h4        1 MIK      0.047600
     33 HI5        -3.0910    9.0950   -1.2180 h4        1 MIK      0.047600
     34 HI6        -0.8440    7.9380   -1.3440 ha        1 MIK      0.158500
     35 HN1         1.3210    5.0760    1.2800 hn        1 MIK      0.477133
     36 HN3         0.8470   -0.6000    1.2940 hn        1 MIK      0.458800
     37 HI13        0.1050    6.0720    1.8760 hn        1 MIK      0.477133
@<TRIPOS>BOND
     1    1    2 1   
     2    1   19 1   
     3    1   20 1   
     4    1   36 1   
     5    2    3 1   
     6    2    5 1   
     7    2   21 1   
     8    3    4 1   
     9    3   18 1   
    10    5    6 1   
    11    5   22 1   
    12    5   23 1   
    13    6    7 1   
    14    6   24 1   
    15    6   25 1   
    16    7    8 1   
    17    7   26 1   
    18    7   27 1   
    19    8    9 1   
    20    8   28 1   
    21    8   29 1   
    22    9   10 2   
    23   10   11 1   
    24   10   12 1   
    25   11   13 ar  
    26   11   17 ar  
    27   12   30 1   
    28   12   35 1   
    29   12   37 1   
    30   13   14 ar  
    31   13   31 1   
    32   14   15 ar  
    33   14   32 1   
    34   15   16 ar  
    35   16   17 ar  
    36   16   33 1   
    37   17   34 1   
@<TRIPOS>SUBSTRUCTURE
     1 MIK         1 TEMP              0 ****  ****    0 ROOT
