@<TRIPOS>MOLECULE
MIK
   35    32     1     0     0
SMALL
bcc


@<TRIPOS>ATOM
      1 N           1.5350   -1.4560   -4.0910 n3        1 MIK     -0.325000
      2 CA          2.2210   -2.0040   -3.0280 c3        1 MIK     -0.129000
      3 C           3.0380   -3.1860   -3.5090 c2        1 MIK      0.307000
      4 O           3.9280   -3.6760   -2.7660 o         1 MIK     -0.579000
      5 CB          1.2070   -2.4760   -1.9500 c3        1 MIK     -0.142000
      6 CG          1.2480   -1.5170   -0.7540 c3        1 MIK     -0.155000
      7 CD         -0.0100   -1.6890    0.0840 c3        1 MIK     -0.158000
      8 CE         -0.4830   -0.3210    0.5770 c3        1 MIK     -0.086000
      9 NZ         -0.6350   -0.3510    2.0170 n2        1 MIK     -0.234000
     10 CI1        -1.1100    0.7490    2.6800 c1        1 MIK      0.085000
     11 CI2        -1.4780    2.0080    1.9050 c1        1 MIK     -0.050000
     12 NI1        -1.2580    0.7180    4.0930 n3        1 MIK     -0.318000
     13 CI3        -2.7950    2.2620    2.0990 c2        1 MIK     -0.141000
     14 CI4        -3.2770    3.5620    1.9850 c1        1 MIK     -0.078000
     15 NI2        -2.4160    4.5910    1.6760 n1        1 MIK     -0.137000
     16 CI5        -1.0970    4.3380    1.4820 c1        1 MIK     -0.077000
     17 CI6        -0.6140    3.0430    1.5950 c1        1 MIK     -0.167000
     18 OXT         2.9150   -3.5960   -4.7060 o         1 MIK     -0.579000
     19 H1          2.1050   -1.3500   -4.8030 hn        1 MIK      0.125000
     20 H2          1.2010   -0.6570   -3.8510 hn        1 MIK      0.125000
     21 HA          2.8170   -1.3320   -2.6450 h1        1 MIK      0.079000
     22 HBC1        0.2970   -2.4840   -2.3350 hc        1 MIK      0.086500
     23 HBC2        1.4430   -3.3790   -1.6540 hc        1 MIK      0.086500
     24 HGC1        2.0350   -1.7150   -0.2060 hc        1 MIK      0.076000
     25 HGC2        1.2990   -0.5990   -1.0760 hc        1 MIK      0.076000
     26 HDC1       -0.7130   -2.1020   -0.4610 hc        1 MIK      0.084500
     27 HDC2        0.1840   -2.2580    0.8450 hc        1 MIK      0.084500
     28 HEC1       -1.3420   -0.1030    0.1620 h1        1 MIK      0.081000
     29 HEC2        0.1810    0.3600    0.3330 h1        1 MIK      0.081000
     30 HI1        -1.4950    1.4670    4.5380 hn        1 MIK      0.178500
     31 HI3        -3.3950    1.5420    2.3690 ha        1 MIK      0.159000
     32 HI4        -4.2660    3.7520    2.1320 ha        1 MIK      0.159000
     33 HI5        -0.4790    5.0780    1.2600 ha        1 MIK      0.156000
     34 HI6         0.3610    2.8560    1.4520 ha        1 MIK      0.146000
     35 HN1        -1.1520   -0.0750    4.5500 hn        1 MIK      0.178500
@<TRIPOS>BOND
     1    1    2 1   
     2    1   19 1   
     3    1   20 1   
     4    2    3 1   
     5    2    5 1   
     6    2   21 1   
     7    3    4 1   
     8    3   18 1   
     9    5    6 1   
    10    5   22 1   
    11    5   23 1   
    12    6    7 1   
    13    6   24 1   
    14    6   25 1   
    15    7    8 1   
    16    7   26 1   
    17    7   27 1   
    18    8    9 1   
    19    8   28 1   
    20    8   29 1   
    21    9   10 1   
    22   10   12 1   
    23   11   13 1   
    24   11   17 1   
    25   12   30 1   
    26   12   35 1   
    27   13   14 1   
    28   13   31 1   
    29   14   32 1   
    30   15   16 1   
    31   16   33 1   
    32   17   34 1   
@<TRIPOS>SUBSTRUCTURE
     1 MIK         1 TEMP              0 ****  ****    0 ROOT
