@<TRIPOS>MOLECULE
MIK
   37    37     1     0     0
SMALL
bcc


@<TRIPOS>ATOM
      1 N           0.7480    0.0260    0.4660 nz        1 MIK     -0.833600
      2 CA          1.7960    1.0990    0.4850 c3        1 MIK     -0.002500
      3 C           1.2520    2.3600    1.2150 c         1 MIK      0.913600
      4 O          -0.0030    2.4590    1.3760 o         1 MIK     -0.810300
      5 CB          2.2380    1.5180   -0.9160 c3        1 MIK     -0.102400
      6 CG          1.1380    2.1700   -1.7360 c3        1 MIK     -0.102400
      7 CD          1.5790    3.4710   -2.3770 c3        1 MIK     -0.068400
      8 CE          1.6230    4.6440   -1.3910 c3        1 MIK      0.084800
      9 NZ          0.3460    5.2660   -1.1980 n2        1 MIK     -0.527900
     10 CI1        -0.2470    5.5580   -0.1050 ce        1 MIK      0.584800
     11 CI2        -1.5640    6.2540   -0.0990 ca        1 MIK     -0.148900
     12 NI1         0.2130    5.2610    1.2920 nz        1 MIK     -0.877600
     13 CI3        -2.6610    5.6860    0.5600 ca        1 MIK     -0.218300
     14 CI4        -3.8850    6.3790    0.5200 ca        1 MIK      0.410700
     15 NI2        -4.0530    7.5540   -0.1190 nb        1 MIK     -0.622000
     16 CI5        -2.9890    8.0780   -0.7530 ca        1 MIK      0.410700
     17 CI6        -1.7180    7.4670   -0.7760 ca        1 MIK     -0.218300
     18 OXT         2.0750    3.2510    1.5380 o         1 MIK     -0.810300
     19 H1         -0.1750    0.4900    0.5650 hn        1 MIK      0.458800
     20 H2          0.8800   -0.6080    1.2550 hn        1 MIK      0.458800
     21 HA          2.6860    0.7030    1.0550 hx        1 MIK      0.119700
     22 HBC1        3.0860    2.2430   -0.7540 hc        1 MIK      0.083200
     23 HBC2        2.6620    0.6390   -1.4700 hc        1 MIK      0.083200
     24 HGC1        0.8220    1.4660   -2.5520 hc        1 MIK      0.056700
     25 HGC2        0.2330    2.3640   -1.0990 hc        1 MIK      0.056700
     26 HDC1        0.8940    3.7090   -3.2350 hc        1 MIK      0.075200
     27 HDC2        2.6120    3.3540   -2.7990 hc        1 MIK      0.075200
     28 HEC1        2.1220    4.2890   -0.4410 h1        1 MIK      0.083200
     29 HEC2        2.2750    5.4520   -1.8440 h1        1 MIK      0.083200
     30 HI1        -0.0330    6.0370    1.9060 hn        1 MIK      0.477133
     31 HI3        -2.5940    4.7170    1.0750 ha        1 MIK      0.158500
     32 HI4        -4.7820    5.9720    1.0230 h4        1 MIK      0.047600
     33 HI5        -3.1610    9.0390   -1.2760 h4        1 MIK      0.047600
     34 HI6        -0.8860    7.9330   -1.3230 ha        1 MIK      0.158500
     35 HN1        -0.2590    4.3900    1.6200 hn        1 MIK      0.477133
     36 HN3         0.7790   -0.4970   -0.4090 hn        1 MIK      0.458800
     37 HI13        1.2290    5.0770    1.3470 hn        1 MIK      0.477133
@<TRIPOS>BOND
     1    1    2 1   
     2    1   19 1   
     3    1   20 1   
     4    1   36 1   
     5    2    3 1   
     6    2    5 1   
     7    2   21 1   
     8    3    4 1   
     9    3   18 1   
    10    5    6 1   
    11    5   22 1   
    12    5   23 1   
    13    6    7 1   
    14    6   24 1   
    15    6   25 1   
    16    7    8 1   
    17    7   26 1   
    18    7   27 1   
    19    8    9 1   
    20    8   28 1   
    21    8   29 1   
    22    9   10 2   
    23   10   11 1   
    24   10   12 1   
    25   11   13 ar  
    26   11   17 ar  
    27   12   30 1   
    28   12   35 1   
    29   12   37 1   
    30   13   14 ar  
    31   13   31 1   
    32   14   15 ar  
    33   14   32 1   
    34   15   16 ar  
    35   16   17 ar  
    36   16   33 1   
    37   17   34 1   
@<TRIPOS>SUBSTRUCTURE
     1 MIK         1 TEMP              0 ****  ****    0 ROOT
