@<TRIPOS>MOLECULE
MIK
   35    35     1     0     0
SMALL
bcc


@<TRIPOS>ATOM
      1 N           2.2120    1.8330    0.7210 n3        1 MIK     -0.890800
      2 CA          1.4680    0.8480   -0.0490 c3        1 MIK      0.036500
      3 C          -0.0760    0.9410    0.0860 c         1 MIK      0.879600
      4 O          -0.5810    1.7020    0.9640 o         1 MIK     -0.857300
      5 CB          1.8690   -0.6000    0.2560 c3        1 MIK     -0.063400
      6 CG          1.5910   -1.0030    1.6920 c3        1 MIK     -0.084400
      7 CD          0.9890   -2.3890    1.8030 c3        1 MIK     -0.063400
      8 CE         -0.5260   -2.3790    1.5480 c3        1 MIK      0.107800
      9 NZ         -1.2750   -1.9630    2.7000 n2        1 MIK     -0.692900
     10 CI1        -2.1190   -0.9670    2.6830 ce        1 MIK      0.635800
     11 CI2        -2.7600   -0.6360    4.0030 ca        1 MIK     -0.068900
     12 NI1        -2.6200   -0.2010    1.6100 nh        1 MIK     -0.910800
     13 CI3        -1.9750   -0.4280    5.1430 ca        1 MIK     -0.212300
     14 CI4        -2.6220   -0.1240    6.3530 ca        1 MIK      0.368700
     15 NI2        -3.9600   -0.0240    6.4840 nb        1 MIK     -0.683000
     16 CI5        -4.6980   -0.2270    5.3750 ca        1 MIK      0.368700
     17 CI6        -4.1520   -0.5340    4.1170 ca        1 MIK     -0.212300
     18 OXT        -0.7830    0.2160   -0.6780 o         1 MIK     -0.857300
     19 H1          1.7040    2.7010    0.6770 hn        1 MIK      0.332800
     20 H2          2.2140    1.5560    1.6870 hn        1 MIK      0.332800
     21 HA          1.7120    1.0470   -1.1350 h1        1 MIK      0.047700
     22 HBC1        1.2750   -1.2450   -0.4470 hc        1 MIK      0.036700
     23 HBC2        2.9540   -0.7530    0.0250 hc        1 MIK      0.036700
     24 HGC1        2.5470   -0.9700    2.2790 hc        1 MIK      0.041700
     25 HGC2        0.8890   -0.2620    2.1640 hc        1 MIK      0.041700
     26 HDC1        1.4570   -3.0700    1.0450 hc        1 MIK      0.026700
     27 HDC2        1.2100   -2.8150    2.8160 hc        1 MIK      0.026700
     28 HEC1       -0.7000   -1.7680    0.6100 h1        1 MIK      0.051200
     29 HEC2       -0.8500   -3.4380    1.3250 h1        1 MIK      0.051200
     30 HI1        -2.1520   -0.3510    0.7290 hn        1 MIK      0.422800
     31 HI3        -0.8800   -0.5030    5.0930 ha        1 MIK      0.157000
     32 HI4        -2.0370    0.0490    7.2730 h4        1 MIK      0.007100
     33 HI5        -5.7900   -0.1380    5.5040 h4        1 MIK      0.007100
     34 HI6        -4.8010   -0.6860    3.2440 ha        1 MIK      0.157000
     35 HN1        -2.6210    0.7820    1.8150 hn        1 MIK      0.422800
@<TRIPOS>BOND
     1    1    2 1   
     2    1   19 1   
     3    1   20 1   
     4    2    3 1   
     5    2    5 1   
     6    2   21 1   
     7    3    4 1   
     8    3   18 1   
     9    5    6 1   
    10    5   22 1   
    11    5   23 1   
    12    6    7 1   
    13    6   24 1   
    14    6   25 1   
    15    7    8 1   
    16    7   26 1   
    17    7   27 1   
    18    8    9 1   
    19    8   28 1   
    20    8   29 1   
    21    9   10 2   
    22   10   11 1   
    23   10   12 1   
    24   11   13 ar  
    25   11   17 ar  
    26   12   30 1   
    27   12   35 1   
    28   13   14 ar  
    29   13   31 1   
    30   14   15 ar  
    31   14   32 1   
    32   15   16 ar  
    33   16   17 ar  
    34   16   33 1   
    35   17   34 1   
@<TRIPOS>SUBSTRUCTURE
     1 MIK         1 TEMP              0 ****  ****    0 ROOT
