@<TRIPOS>MOLECULE
MIL
   25    26     1     0     0
SMALL
bcc


@<TRIPOS>ATOM
      1 C1          0.0310   -0.0210   -0.0870 cc        1 MIL     -0.176200
      2 C2          1.4220    0.0030   -0.0590 cd        1 MIL      0.119400
      3 C4          1.4350    0.0020    2.3940 c         1 MIL      0.703700
      4 C5         -0.0310   -0.0340    2.3460 cd        1 MIL     -0.112900
      5 C6         -0.6890   -0.0480    1.1470 cc        1 MIL      0.028000
      6 C2A         2.2390    0.0120   -1.3120 c3        1 MIL     -0.089900
      7 C5A        -0.7260   -0.0570    3.5800 ch        1 MIL      0.211500
      8 C1'        -0.7350   -0.0240   -1.3280 ca        1 MIL      0.005200
      9 C2'        -1.7370   -0.9850   -1.5370 ca        1 MIL     -0.243800
     10 C3'        -2.4740   -0.9430   -2.7320 ca        1 MIL      0.397700
     11 C5'        -1.3190    0.8950   -3.4860 ca        1 MIL      0.397700
     12 C6'        -0.5250    0.9390   -2.3260 ca        1 MIL     -0.243800
     13 O4          2.1430    0.0210    3.4150 o         1 MIL     -0.607500
     14 N3          2.0920    0.0160    1.1430 n         1 MIL     -0.435100
     15 N5A        -1.2980   -0.0750    4.5930 n1        1 MIL     -0.349800
     16 N4'        -2.2780   -0.0250   -3.6990 nb        1 MIL     -0.659000
     17 H6         -1.7910   -0.0770    1.1060 ha        1 MIL      0.158000
     18 H2A1        2.5230    1.0650   -1.5650 hc        1 MIL      0.070700
     19 H2A2        3.1750   -0.5920   -1.2030 hc        1 MIL      0.070700
     20 H2A3        1.6450   -0.4110   -2.1600 hc        1 MIL      0.070700
     21 H2'        -1.9410   -1.7580   -0.7830 ha        1 MIL      0.146000
     22 H3'        -3.2680   -1.6870   -2.9300 h4        1 MIL      0.026600
     23 H5'        -1.1810    1.6400   -4.2900 h4        1 MIL      0.026600
     24 H6'         0.2370    1.7200   -2.2030 ha        1 MIL      0.146000
     25 HN3         3.0910    0.0280    1.1450 hn        1 MIL      0.339500
@<TRIPOS>BOND
     1    1    2 2   
     2    1    5 1   
     3    1    8 1   
     4    2    6 1   
     5    2   14 1   
     6    3    4 1   
     7    3   13 2   
     8    3   14 1   
     9    4    5 2   
    10    4    7 1   
    11    5   17 1   
    12    6   18 1   
    13    6   19 1   
    14    6   20 1   
    15    7   15 3   
    16    8    9 ar  
    17    8   12 ar  
    18    9   10 ar  
    19    9   21 1   
    20   10   16 ar  
    21   10   22 1   
    22   11   12 ar  
    23   11   16 ar  
    24   11   23 1   
    25   12   24 1   
    26   14   25 1   
@<TRIPOS>SUBSTRUCTURE
     1 MIL         1 TEMP              0 ****  ****    0 ROOT
