@<TRIPOS>MOLECULE
MIL
   25    26     1     0     0
SMALL
bcc


@<TRIPOS>ATOM
      1 C1          0.1800   -0.0280   -0.1790 cc        1 MIL     -0.176200
      2 C2          1.4890   -0.0970    0.2890 cd        1 MIL      0.119400
      3 C4          0.7270   -0.0220    2.6190 c         1 MIL      0.703700
      4 C5         -0.6480    0.0380    2.1090 cd        1 MIL     -0.112900
      5 C6         -0.8920    0.0320    0.7630 cc        1 MIL      0.028000
      6 C2A         2.6580   -0.1820   -0.6400 c3        1 MIL     -0.089900
      7 C5A        -1.6960    0.1010    3.0590 ch        1 MIL      0.211500
      8 C1'        -0.1530   -0.0180   -1.5990 ca        1 MIL      0.005200
      9 C2'        -1.1060   -0.9160   -2.1060 ca        1 MIL     -0.243800
     10 C3'        -1.4230   -0.8620   -3.4740 ca        1 MIL      0.397700
     11 C5'         0.0430    0.8700   -3.8380 ca        1 MIL      0.397700
     12 C6'         0.4310    0.8970   -2.4870 ca        1 MIL     -0.243800
     13 O4          1.0750   -0.0190    3.8120 o         1 MIL     -0.607500
     14 N3          1.7440   -0.0910    1.6410 n         1 MIL     -0.435100
     15 N5A        -2.5580    0.1530    3.8390 n1        1 MIL     -0.349800
     16 N4'        -0.8650    0.0100   -4.3360 nb        1 MIL     -0.659000
     17 H6         -1.9250    0.0760    0.3760 ha        1 MIL      0.158000
     18 H2A1        3.4640   -0.8430   -0.2360 hc        1 MIL      0.070700
     19 H2A2        2.3320   -0.5900   -1.6300 hc        1 MIL      0.070700
     20 H2A3        3.0830    0.8410   -0.8000 hc        1 MIL      0.070700
     21 H2'        -1.5930   -1.6490   -1.4500 ha        1 MIL      0.146000
     22 H3'        -2.1660   -1.5560   -3.9070 h4        1 MIL      0.026600
     23 H5'         0.4820    1.5790   -4.5630 h4        1 MIL      0.026600
     24 H6'         1.1710    1.6290   -2.1350 ha        1 MIL      0.146000
     25 HN3         2.6890   -0.1470    1.9600 hn        1 MIL      0.339500
@<TRIPOS>BOND
     1    1    2 2   
     2    1    5 1   
     3    1    8 1   
     4    2    6 1   
     5    2   14 1   
     6    3    4 1   
     7    3   13 2   
     8    3   14 1   
     9    4    5 2   
    10    4    7 1   
    11    5   17 1   
    12    6   18 1   
    13    6   19 1   
    14    6   20 1   
    15    7   15 3   
    16    8    9 ar  
    17    8   12 ar  
    18    9   10 ar  
    19    9   21 1   
    20   10   16 ar  
    21   10   22 1   
    22   11   12 ar  
    23   11   16 ar  
    24   11   23 1   
    25   12   24 1   
    26   14   25 1   
@<TRIPOS>SUBSTRUCTURE
     1 MIL         1 TEMP              0 ****  ****    0 ROOT
