@<TRIPOS>MOLECULE
MIL
   25    26     1     0     0
SMALL
bcc


@<TRIPOS>ATOM
      1 C1          0.0320   -0.0240   -0.0870 cc        1 MIL     -0.176200
      2 C2          1.4220    0.0130   -0.0590 cd        1 MIL      0.119400
      3 C4          1.4350   -0.0080    2.3940 c         1 MIL      0.703700
      4 C5         -0.0300   -0.0590    2.3460 cd        1 MIL     -0.112900
      5 C6         -0.6880   -0.0680    1.1460 cc        1 MIL      0.028000
      6 C2A         2.2380    0.0410   -1.3120 c3        1 MIL     -0.089900
      7 C5A        -0.7240   -0.0990    3.5790 ch        1 MIL      0.211500
      8 C1'        -0.7350   -0.0230   -1.3280 ca        1 MIL      0.005200
      9 C2'        -1.7280   -0.9920   -1.5450 ca        1 MIL     -0.243800
     10 C3'        -2.4660   -0.9480   -2.7400 ca        1 MIL      0.397700
     11 C5'        -1.3280    0.9090   -3.4780 ca        1 MIL      0.397700
     12 C6'        -0.5350    0.9500   -2.3180 ca        1 MIL     -0.243800
     13 O4          2.1430    0.0080    3.4150 o         1 MIL     -0.607500
     14 N3          2.0920    0.0230    1.1430 ns        1 MIL     -0.435100
     15 N5A        -1.2960   -0.1310    4.5920 n1        1 MIL     -0.349800
     16 N4'        -2.2790   -0.0190   -3.6990 nb        1 MIL     -0.659000
     17 H6         -1.7900   -0.1070    1.1060 ha        1 MIL      0.158000
     18 H2A1        2.5120    1.0990   -1.5560 hc        1 MIL      0.070700
     19 H2A2        3.1800   -0.5550   -1.2090 hc        1 MIL      0.070700
     20 H2A3        1.6480   -0.3800   -2.1640 hc        1 MIL      0.070700
     21 H2'        -1.9230   -1.7730   -0.7980 ha        1 MIL      0.146000
     22 H3'        -3.2520   -1.6970   -2.9440 h4        1 MIL      0.026600
     23 H5'        -1.1990    1.6620   -4.2750 h4        1 MIL      0.026600
     24 H6'         0.2190    1.7380   -2.1880 ha        1 MIL      0.146000
     25 HN3         3.0910    0.0440    1.1450 hn        1 MIL      0.339500
@<TRIPOS>BOND
     1    1    2 2   
     2    1    5 1   
     3    1    8 1   
     4    2    6 1   
     5    2   14 1   
     6    3    4 1   
     7    3   13 2   
     8    3   14 1   
     9    4    5 2   
    10    4    7 1   
    11    5   17 1   
    12    6   18 1   
    13    6   19 1   
    14    6   20 1   
    15    7   15 3   
    16    8    9 ar  
    17    8   12 ar  
    18    9   10 ar  
    19    9   21 1   
    20   10   16 ar  
    21   10   22 1   
    22   11   12 ar  
    23   11   16 ar  
    24   11   23 1   
    25   12   24 1   
    26   14   25 1   
@<TRIPOS>SUBSTRUCTURE
     1 MIL         1 TEMP              0 ****  ****    0 ROOT
