@<TRIPOS>MOLECULE
MIM
   95    92     1     0     0
SMALL
bcc


@<TRIPOS>ATOM
      1 CIB        -3.7210   -8.2600    3.6230 c3        1 MIM     -0.146000
      2 NGB        -1.9710   -6.4730    2.9680 n2        1 MIM     -0.153000
      3 CBB        -3.2490   -6.9260    3.0050 c2        1 MIM     -0.049000
      4 NAB        -4.0370   -6.0170    2.3680 n2        1 MIM     -0.153000
      5 CEB        -3.2560   -5.0190    1.9440 c1        1 MIM     -0.173500
      6 CDB        -1.9660   -5.3020    2.3170 c1        1 MIM     -0.173500
      7 C9B        -5.4360   -6.1280    2.1560 c2        1 MIM     -0.020000
      8 C8B        -6.1570   -5.0070    2.9060 c3        1 MIM     -0.180000
      9 C7B        -6.2660   -3.7700    2.0010 c3        1 MIM     -0.157000
     10 C6B        -7.0040   -2.6450    2.7550 c3        1 MIM     -0.123000
     11 C3B        -6.0560   -1.4340    2.9330 c2        1 MIM     -0.063000
     12 C2B        -5.4910   -0.8230    1.8170 c2        1 MIM     -0.121000
     13 C1B        -4.5560    0.2000    1.9790 c1        1 MIM     -0.124000
     14 C0B        -4.1880    0.6100    3.2550 c1        1 MIM     -0.089000
     15 C5B        -4.7530   -0.0000    4.3700 c1        1 MIM     -0.111000
     16 C4B        -5.6880   -1.0240    4.2090 c1        1 MIM     -0.127000
     17 CAB        -3.2300    1.8150    3.4350 c3        1 MIM     -0.140000
     18 CB         -1.7740    1.3740    3.1060 c2        1 MIM      0.312000
     19 OB         -1.5200    0.1970    2.9300 o         1 MIM     -0.383000
     20 NS         -0.7220    2.3750    2.9750 n         1 MIM     -0.374000
     21 CAS         0.6200    1.9690    2.6600 c3        1 MIM     -0.030000
     22 CS          0.7000    1.5750    1.1910 c2        1 MIM      0.308000
     23 OS          0.0360    2.1700    0.3670 o         1 MIM     -0.391000
     24 CBS         1.0010    0.7970    3.5150 c3        1 MIM     -0.042000
     25 OGS         1.0790    1.2070    4.8730 oh        1 MIM     -0.332000
     26 NK          1.6320    0.5500    0.7660 n         1 MIM     -0.368000
     27 CAK         2.6120    0.8420   -0.2430 c3        1 MIM      0.019000
     28 CK          2.0820    1.9340   -1.1710 c2        1 MIM      0.279000
     29 OK          1.1760    2.6480   -0.8060 o         1 MIM     -0.378000
     30 CBK         2.8960   -0.4030   -1.0420 c3        1 MIM     -0.173000
     31 CGK         4.2390   -1.0280   -0.5740 c3        1 MIM     -0.163000
     32 CDK         4.7410   -2.0300   -1.6380 c3        1 MIM     -0.160000
     33 CEK         6.1090   -2.6160   -1.1900 c3        1 MIM     -0.079000
     34 NZK         6.7700   -3.2300   -2.3240 n3        1 MIM     -0.348000
     35 NY          2.7560    2.2030   -2.4370 n         1 MIM     -0.365000
     36 CAY         3.3840    3.4970   -2.6670 c3        1 MIM     -0.034000
     37 CBY         2.8500    4.0980   -3.9720 c3        1 MIM     -0.180000
     38 CGY         4.0020    4.7550   -4.7430 c3        1 MIM     -0.097000
     39 CKY         3.7890    4.5300   -6.2210 c3        1 MIM     -0.151500
     40 CHY         2.6010    5.3080   -6.7620 c3        1 MIM     -0.154500
     41 CZY         2.6610    6.7870   -6.4020 c3        1 MIM     -0.155000
     42 CEY         2.8750    7.0150   -4.9200 c3        1 MIM     -0.154500
     43 CDY         4.0600    6.2400   -4.3810 c3        1 MIM     -0.151500
     44 HIB1       -2.9350   -8.8120    3.8560 hc        1 MIM      0.094667
     45 HIB2       -4.2790   -8.7420    2.9750 hc        1 MIM      0.094667
     46 HIB3       -4.2440   -8.0780    4.4330 hc        1 MIM      0.094667
     47 HEB        -3.5510   -4.2270    1.4540 DU        1 MIM      0.183000
     48 HDB        -1.1800   -4.7460    2.1400 DU        1 MIM      0.183000
     49 H9B1       -5.6280   -6.0560    1.2000 ha        1 MIM      0.099000
     50 H9B2       -5.7470   -6.9950    2.4870 ha        1 MIM      0.099000
     51 H8B1       -7.0550   -5.3080    3.1580 hc        1 MIM      0.095000
     52 H8B2       -5.6520   -4.7780    3.7130 hc        1 MIM      0.095000
     53 H7B1       -6.7660   -4.0020    1.1910 hc        1 MIM      0.088000
     54 H7B2       -5.3740   -3.4670    1.7560 hc        1 MIM      0.088000
     55 H6B1       -7.2850   -2.9710    3.6350 hc        1 MIM      0.090000
     56 H6B2       -7.7960   -2.3680    2.2390 hc        1 MIM      0.090000
     57 H2B        -5.7480   -1.1100    0.9210 ha        1 MIM      0.136000
     58 H1B        -4.1600    0.6270    1.1970 ha        1 MIM      0.133000
     59 H5B        -4.4940    0.2880    5.2680 ha        1 MIM      0.140000
     60 H4B        -6.0850   -1.4530    4.9950 ha        1 MIM      0.133000
     61 HAB1       -3.2740    2.1310    4.3610 hc        1 MIM      0.121500
     62 HAB2       -3.4970    2.5380    2.8290 hc        1 MIM      0.121500
     63 HNS        -0.9050    3.2560    3.1470 hn        1 MIM      0.248000
     64 HAS         1.2330    2.7110    2.8320 h1        1 MIM      0.140000
     65 HBS1        1.8680    0.4530    3.2290 h1        1 MIM      0.108500
     66 HBS2        0.3280    0.0980    3.4260 h1        1 MIM      0.108500
     67 HOGS        1.6870    0.7050    5.3030 ho        1 MIM      0.224000
     68 HNK         1.5960   -0.2830    1.1410 hn        1 MIM      0.242000
     69 HAK         3.4320    1.1480    0.1820 h1        1 MIM      0.129000
     70 HBK1        2.9570   -0.1740   -1.9890 hc        1 MIM      0.105000
     71 HBK2        2.1700   -1.0490   -0.9080 hc        1 MIM      0.105000
     72 HGK1        4.1030   -1.4940    0.2740 hc        1 MIM      0.090000
     73 HGK2        4.9010   -0.3220   -0.4540 hc        1 MIM      0.090000
     74 HDK1        4.8470   -1.5720   -2.4930 hc        1 MIM      0.087500
     75 HDK2        4.0910   -2.7560   -1.7360 hc        1 MIM      0.087500
     76 HEK1        5.9630   -3.2890   -0.4950 h1        1 MIM      0.065500
     77 HEK2        6.6740   -1.8940   -0.8330 h1        1 MIM      0.065500
     78 HNZ1        7.4400   -2.6770   -2.6240 hn        1 MIM      0.143000
     79 HNZ2        7.1320   -4.0390   -2.0690 hn        1 MIM      0.143000
     80 HNY         2.7290    1.5820   -3.1090 hn        1 MIM      0.246000
     81 HAY1        4.3560    3.3810   -2.7340 h1        1 MIM      0.100000
     82 HAY2        3.1780    4.0950   -1.9250 h1        1 MIM      0.100000
     83 HBY1        2.1700    4.7690   -3.7670 hc        1 MIM      0.086500
     84 HBY2        2.4530    3.3880   -4.5190 hc        1 MIM      0.086500
     85 HGY         4.8430    4.3320   -4.4780 hc        1 MIM      0.087000
     86 HKY1        3.6380    3.5710   -6.3780 hc        1 MIM      0.079000
     87 HKY2        4.5940    4.8060   -6.7030 hc        1 MIM      0.079000
     88 HHY1        2.5830    5.2200   -7.7350 hc        1 MIM      0.078000
     89 HHY2        1.7800    4.9260   -6.3940 hc        1 MIM      0.078000
     90 HZY1        3.3960    7.2000   -6.8930 hc        1 MIM      0.078000
     91 HZY2        1.8220    7.2120   -6.6700 hc        1 MIM      0.078000
     92 HEY1        2.0740    6.7390   -4.4390 hc        1 MIM      0.078000
     93 HEY2        3.0250    7.9740   -4.7650 hc        1 MIM      0.078000
     94 HDY1        4.0800    6.3280   -3.4120 hc        1 MIM      0.079000
     95 HDY2        4.8820    6.6240   -4.7500 hc        1 MIM      0.079000
@<TRIPOS>BOND
     1    1    3 1   
     2    1   44 1   
     3    1   45 1   
     4    1   46 1   
     5    2    3 1   
     6    2    6 1   
     7    3    4 1   
     8    4    5 1   
     9    5    6 1   
    10    7    8 1   
    11    7   49 1   
    12    7   50 1   
    13    8    9 1   
    14    8   51 1   
    15    8   52 1   
    16    9   10 1   
    17    9   53 1   
    18    9   54 1   
    19   10   11 1   
    20   10   55 1   
    21   10   56 1   
    22   11   12 1   
    23   11   16 1   
    24   12   13 1   
    25   12   57 1   
    26   13   58 1   
    27   14   15 1   
    28   14   17 1   
    29   15   59 1   
    30   16   60 1   
    31   17   18 1   
    32   17   61 1   
    33   17   62 1   
    34   18   19 1   
    35   18   20 1   
    36   20   21 1   
    37   20   63 1   
    38   21   22 1   
    39   21   24 1   
    40   21   64 1   
    41   22   23 1   
    42   22   26 1   
    43   24   25 1   
    44   24   65 1   
    45   24   66 1   
    46   25   67 1   
    47   26   27 1   
    48   26   68 1   
    49   27   28 1   
    50   27   30 1   
    51   27   69 1   
    52   28   29 1   
    53   28   35 1   
    54   30   31 1   
    55   30   70 1   
    56   30   71 1   
    57   31   32 1   
    58   31   72 1   
    59   31   73 1   
    60   32   33 1   
    61   32   74 1   
    62   32   75 1   
    63   33   34 1   
    64   33   76 1   
    65   33   77 1   
    66   34   78 1   
    67   34   79 1   
    68   35   36 1   
    69   35   80 1   
    70   36   37 1   
    71   36   81 1   
    72   36   82 1   
    73   37   38 1   
    74   37   83 1   
    75   37   84 1   
    76   38   39 1   
    77   38   43 1   
    78   38   85 1   
    79   39   40 1   
    80   39   86 1   
    81   39   87 1   
    82   40   41 1   
    83   40   88 1   
    84   40   89 1   
    85   41   42 1   
    86   41   90 1   
    87   41   91 1   
    88   42   43 1   
    89   42   92 1   
    90   42   93 1   
    91   43   94 1   
    92   43   95 1   
@<TRIPOS>SUBSTRUCTURE
     1 MIM         1 TEMP              0 ****  ****    0 ROOT
