@<TRIPOS>MOLECULE
MIM
   95    97     1     0     0
SMALL
bcc


@<TRIPOS>ATOM
      1 CIB        -3.0300    0.3850   -2.8040 c3        1 MIM     -0.121400
      2 NGB        -2.9430   -0.5750   -0.4560 nc        1 MIM     -0.666000
      3 CBB        -2.4250   -0.3990   -1.6990 cd        1 MIM      0.397800
      4 NAB        -1.1790   -1.0570   -1.8140 na        1 MIM     -0.204900
      5 CEB        -0.9370   -1.6820   -0.5890 cd        1 MIM     -0.257600
      6 CDB        -2.0310   -1.3670    0.2360 cc        1 MIM      0.292200
      7 C9B        -0.3570   -1.1440   -2.9840 c3        1 MIM      0.039300
      8 C8B        -0.6730   -2.3260   -3.9040 c3        1 MIM     -0.103400
      9 C7B         0.2700   -2.3190   -5.0880 c3        1 MIM     -0.076400
     10 C6B        -0.0300   -3.4760   -6.0230 c3        1 MIM     -0.037100
     11 C3B         0.9070   -3.5030   -7.1790 ca        1 MIM     -0.076300
     12 C2B         2.2290   -3.9290   -7.0050 ca        1 MIM     -0.124500
     13 C1B         3.1080   -3.9640   -8.0850 ca        1 MIM     -0.120500
     14 C0B         2.6790   -3.5740   -9.3590 ca        1 MIM     -0.093300
     15 C5B         1.3570   -3.1470   -9.5330 ca        1 MIM     -0.120500
     16 C4B         0.4790   -3.1120   -8.4530 ca        1 MIM     -0.124500
     17 CAB         3.6230   -3.5920  -10.5050 c3        1 MIM     -0.107100
     18 CB          3.6260   -4.8910  -11.2940 c         1 MIM      0.665100
     19 OB          4.6900   -5.3530  -11.7530 o         1 MIM     -0.615100
     20 NS          2.4210   -5.5460  -11.4720 n         1 MIM     -0.541900
     21 CAS         2.2780   -6.6400  -12.3920 c3        1 MIM      0.037700
     22 CS          1.5150   -6.2240  -13.6770 c         1 MIM      0.646100
     23 OS          0.8950   -5.1480  -13.7670 o         1 MIM     -0.602100
     24 CBS         1.5460   -7.8450  -11.7600 c3        1 MIM      0.119400
     25 OGS         0.2140   -7.4520  -11.4820 oh        1 MIM     -0.597800
     26 NK          1.6190   -7.0950  -14.7520 n         1 MIM     -0.541900
     27 CAK         0.7750   -6.9600  -15.9130 c3        1 MIM      0.030700
     28 CK         -0.3250   -8.0580  -15.9330 c         1 MIM      0.633100
     29 OK         -0.1020   -9.1970  -15.4730 o         1 MIM     -0.624100
     30 CBK         1.5440   -7.0950  -17.2380 c3        1 MIM     -0.082400
     31 CGK         2.5330   -5.9680  -17.4350 c3        1 MIM     -0.079400
     32 CDK         3.1570   -6.0360  -18.8130 c3        1 MIM     -0.082400
     33 CEK         4.1910   -4.9220  -18.9760 c3        1 MIM      0.158800
     34 NZK         4.8490   -4.9390  -20.2610 n3        1 MIM     -0.916800
     35 NY         -1.5400   -7.7120  -16.4730 n         1 MIM     -0.561900
     36 CAY        -2.6240   -8.6440  -16.6260 c3        1 MIM      0.085000
     37 CBY        -3.0560   -8.8630  -18.0770 c3        1 MIM     -0.099400
     38 CGY        -4.2460   -9.8070  -18.1530 c3        1 MIM     -0.060700
     39 CKY        -4.9380   -9.6610  -19.5030 c3        1 MIM     -0.074400
     40 CHY        -6.1170  -10.6040  -19.6230 c3        1 MIM     -0.076400
     41 CZY        -5.7010  -12.0410  -19.3880 c3        1 MIM     -0.077400
     42 CEY        -4.9990  -12.1960  -18.0550 c3        1 MIM     -0.076400
     43 CDY        -3.8200  -11.2530  -17.9390 c3        1 MIM     -0.074400
     44 HIB1       -4.0500    0.7390   -2.5120 hc        1 MIM      0.055700
     45 HIB2       -3.1160   -0.2450   -3.7240 hc        1 MIM      0.055700
     46 HIB3       -2.3940    1.2760   -3.0350 hc        1 MIM      0.055700
     47 HEB        -0.0410   -2.2680   -0.4010 h4        1 MIM      0.174000
     48 HDB        -2.2050   -1.6600    1.2700 h4        1 MIM      0.040100
     49 H9B1        0.7190   -1.2190   -2.6530 h1        1 MIM      0.060200
     50 H9B2       -0.4800   -0.1860   -3.5680 h1        1 MIM      0.060200
     51 H8B1       -1.7340   -2.2590   -4.2610 hc        1 MIM      0.054700
     52 H8B2       -0.5700   -3.2910   -3.3410 hc        1 MIM      0.054700
     53 H7B1        1.3310   -2.3920   -4.7320 hc        1 MIM      0.046700
     54 H7B2        0.1720   -1.3510   -5.6460 hc        1 MIM      0.046700
     55 H6B1        0.0530   -4.4430   -5.4560 hc        1 MIM      0.051700
     56 H6B2       -1.0890   -3.3950   -6.3870 hc        1 MIM      0.051700
     57 H2B         2.5740   -4.2390   -6.0080 ha        1 MIM      0.134500
     58 H1B         4.1450   -4.3010   -7.9360 ha        1 MIM      0.138500
     59 H5B         1.0080   -2.8330  -10.5300 ha        1 MIM      0.138500
     60 H4B        -0.5590   -2.7780   -8.6040 ha        1 MIM      0.134500
     61 HAB1        4.6740   -3.4210  -10.1460 hc        1 MIM      0.084200
     62 HAB2        3.3720   -2.7690  -11.2290 hc        1 MIM      0.084200
     63 HNS         1.5750   -5.0980  -11.1940 hn        1 MIM      0.335500
     64 HAS         3.3160   -6.9910  -12.6850 h1        1 MIM      0.111700
     65 HBS1        1.5580   -8.7080  -12.4790 h1        1 MIM      0.041200
     66 HBS2        2.0630   -8.1520  -10.8110 h1        1 MIM      0.041200
     67 HOGS       -0.2390   -8.2320  -11.1390 ho        1 MIM      0.410000
     68 HNK         1.9670   -8.0130  -14.5860 hn        1 MIM      0.318500
     69 HAK         0.2980   -5.9330  -15.8740 h1        1 MIM      0.100700
     70 HBK1        0.7920   -7.0850  -18.0720 hc        1 MIM      0.053700
     71 HBK2        2.0750   -8.0820  -17.2750 hc        1 MIM      0.053700
     72 HGK1        2.0160   -4.9810  -17.3000 hc        1 MIM      0.051200
     73 HGK2        3.3380   -6.0280  -16.6550 hc        1 MIM      0.051200
     74 HDK1        2.3590   -5.9370  -19.5950 hc        1 MIM      0.046200
     75 HDK2        3.6470   -7.0340  -18.9590 hc        1 MIM      0.046200
     76 HEK1        3.6760   -3.9360  -18.7660 h1        1 MIM      0.026200
     77 HEK2        4.9880   -5.0500  -18.1890 h1        1 MIM      0.026200
     78 HNZ1        4.1840   -4.9330  -21.0080 hn        1 MIM      0.348300
     79 HNZ2        5.4540   -4.1480  -20.3510 hn        1 MIM      0.348300
     80 HNY        -1.6550   -6.8110  -16.8690 hn        1 MIM      0.311500
     81 HAY1       -2.3170   -9.6320  -16.1750 h1        1 MIM      0.062700
     82 HAY2       -3.5070   -8.2530  -16.0410 h1        1 MIM      0.062700
     83 HBY1       -2.2050   -9.2810  -18.6740 hc        1 MIM      0.044200
     84 HBY2       -3.3380   -7.8790  -18.5390 hc        1 MIM      0.044200
     85 HGY        -4.9840   -9.5310  -17.3480 hc        1 MIM      0.049700
     86 HKY1       -4.2020   -9.8720  -20.3220 hc        1 MIM      0.041450
     87 HKY2       -5.2920   -8.6040  -19.6300 hc        1 MIM      0.041450
     88 HHY1       -6.5710  -10.5060  -20.6430 hc        1 MIM      0.039700
     89 HHY2       -6.9030  -10.3170  -18.8750 hc        1 MIM      0.039700
     90 HZY1       -5.0140  -12.3710  -20.2120 hc        1 MIM      0.039700
     91 HZY2       -6.6040  -12.7040  -19.4170 hc        1 MIM      0.039700
     92 HEY1       -5.7250  -11.9910  -17.2240 hc        1 MIM      0.039700
     93 HEY2       -4.6440  -13.2530  -17.9370 hc        1 MIM      0.039700
     94 HDY1       -3.0430  -11.5290  -18.7000 hc        1 MIM      0.041450
     95 HDY2       -3.3530  -11.3620  -16.9250 hc        1 MIM      0.041450
@<TRIPOS>BOND
     1    1    3 1   
     2    1   44 1   
     3    1   45 1   
     4    1   46 1   
     5    2    3 2   
     6    2    6 1   
     7    3    4 1   
     8    4    5 1   
     9    4    7 1   
    10    5    6 2   
    11    5   47 1   
    12    6   48 1   
    13    7    8 1   
    14    7   49 1   
    15    7   50 1   
    16    8    9 1   
    17    8   51 1   
    18    8   52 1   
    19    9   10 1   
    20    9   53 1   
    21    9   54 1   
    22   10   11 1   
    23   10   55 1   
    24   10   56 1   
    25   11   12 ar  
    26   11   16 ar  
    27   12   13 ar  
    28   12   57 1   
    29   13   14 ar  
    30   13   58 1   
    31   14   15 ar  
    32   14   17 1   
    33   15   16 ar  
    34   15   59 1   
    35   16   60 1   
    36   17   18 1   
    37   17   61 1   
    38   17   62 1   
    39   18   19 2   
    40   18   20 1   
    41   20   21 1   
    42   20   63 1   
    43   21   22 1   
    44   21   24 1   
    45   21   64 1   
    46   22   23 2   
    47   22   26 1   
    48   24   25 1   
    49   24   65 1   
    50   24   66 1   
    51   25   67 1   
    52   26   27 1   
    53   26   68 1   
    54   27   28 1   
    55   27   30 1   
    56   27   69 1   
    57   28   29 2   
    58   28   35 1   
    59   30   31 1   
    60   30   70 1   
    61   30   71 1   
    62   31   32 1   
    63   31   72 1   
    64   31   73 1   
    65   32   33 1   
    66   32   74 1   
    67   32   75 1   
    68   33   34 1   
    69   33   76 1   
    70   33   77 1   
    71   34   78 1   
    72   34   79 1   
    73   35   36 1   
    74   35   80 1   
    75   36   37 1   
    76   36   81 1   
    77   36   82 1   
    78   37   38 1   
    79   37   83 1   
    80   37   84 1   
    81   38   39 1   
    82   38   43 1   
    83   38   85 1   
    84   39   40 1   
    85   39   86 1   
    86   39   87 1   
    87   40   41 1   
    88   40   88 1   
    89   40   89 1   
    90   41   42 1   
    91   41   90 1   
    92   41   91 1   
    93   42   43 1   
    94   42   92 1   
    95   42   93 1   
    96   43   94 1   
    97   43   95 1   
@<TRIPOS>SUBSTRUCTURE
     1 MIM         1 TEMP              0 ****  ****    0 ROOT
