@<TRIPOS>MOLECULE
MIM
   95    97     1     0     0
SMALL
bcc


@<TRIPOS>ATOM
      1 CIB         4.2760   -2.0240   10.0510 c3        1 MIM     -0.121400
      2 NGB         4.9450   -0.1750   11.6580 nc        1 MIM     -0.666000
      3 CBB         4.0970   -0.7280   10.7520 cd        1 MIM      0.397800
      4 NAB         2.9640    0.0980   10.5660 na        1 MIM     -0.204900
      5 CEB         3.1420    1.2180   11.3820 cd        1 MIM     -0.257600
      6 CDB         4.3640    1.0260   12.0510 cc        1 MIM      0.292200
      7 C9B         1.8800   -0.1210    9.6560 c3        1 MIM      0.039300
      8 C8B         2.0960    0.4520    8.2520 c3        1 MIM     -0.103400
      9 C7B         0.8800    0.1740    7.3950 c3        1 MIM     -0.076400
     10 C6B         1.0720    0.7220    5.9930 c3        1 MIM     -0.037100
     11 C3B        -0.1270    0.4860    5.1430 ca        1 MIM     -0.076300
     12 C2B        -1.2840    1.2520    5.3280 ca        1 MIM     -0.124000
     13 C1B        -2.4050    1.0410    4.5310 ca        1 MIM     -0.120500
     14 C0B        -2.3890    0.0600    3.5320 ca        1 MIM     -0.093300
     15 C5B        -1.2320   -0.7070    3.3470 ca        1 MIM     -0.120500
     16 C4B        -0.1110   -0.4950    4.1460 ca        1 MIM     -0.124000
     17 CAB        -3.5930   -0.1780    2.6960 c3        1 MIM     -0.107100
     18 CB         -3.6290    0.6250    1.4050 c         1 MIM      0.665100
     19 OB         -4.7050    1.0880    0.9760 o         1 MIM     -0.616100
     20 NS         -2.4370    0.8340    0.7370 n         1 MIM     -0.540900
     21 CAS        -2.3970    1.3650   -0.5970 c3        1 MIM      0.037700
     22 CS         -2.0730    0.2730   -1.6500 c         1 MIM      0.645100
     23 OS         -1.6450   -0.8530   -1.3330 o         1 MIM     -0.601100
     24 CBS        -1.3630    2.5040   -0.7440 c3        1 MIM      0.120400
     25 OGS        -0.0740    1.9540   -0.5470 oh        1 MIM     -0.597800
     26 NK         -2.3520    0.6000   -2.9680 n         1 MIM     -0.542900
     27 CAK        -1.8850   -0.2150   -4.0620 c3        1 MIM      0.030700
     28 CK         -0.7180    0.4820   -4.8150 c         1 MIM      0.634100
     29 OK         -0.6690    1.7260   -4.9120 o         1 MIM     -0.625100
     30 CBK        -2.9710   -0.4970   -5.1130 c3        1 MIM     -0.082400
     31 CGK        -4.0780   -1.3670   -4.5590 c3        1 MIM     -0.079400
     32 CDK        -5.0700   -1.7290   -5.6440 c3        1 MIM     -0.083400
     33 CEK        -6.1810   -2.6050   -5.0680 c3        1 MIM      0.158800
     34 NZK        -7.1390   -3.0370   -6.0580 n3        1 MIM     -0.916800
     35 NY          0.2480   -0.3320   -5.3560 n         1 MIM     -0.560900
     36 CAY         1.3410    0.1670   -6.1460 c3        1 MIM      0.085000
     37 CBY         1.3590   -0.3560   -7.5840 c3        1 MIM     -0.099400
     38 CGY         2.5770    0.1600   -8.3340 c3        1 MIM     -0.060700
     39 CKY         2.8280   -0.7000   -9.5670 c3        1 MIM     -0.074400
     40 CHY         4.0230   -0.2010  -10.3520 c3        1 MIM     -0.076400
     41 CZY         3.8610    1.2550  -10.7390 c3        1 MIM     -0.077400
     42 CEY         3.5980    2.1170   -9.5220 c3        1 MIM     -0.076400
     43 CDY         2.4010    1.6170   -8.7400 c3        1 MIM     -0.074400
     44 HIB1        5.2800   -2.4550   10.2890 hc        1 MIM      0.055700
     45 HIB2        3.4880   -2.7480   10.3770 hc        1 MIM      0.055700
     46 HIB3        4.1990   -1.8790    8.9450 hc        1 MIM      0.055700
     47 HEB         2.4140    2.0240   11.4300 h4        1 MIM      0.174000
     48 HDB         4.8430    1.6760   12.7810 h4        1 MIM      0.040100
     49 H9B1        1.7150   -1.2340    9.5720 h1        1 MIM      0.060200
     50 H9B2        0.9510    0.3410   10.0980 h1        1 MIM      0.060200
     51 H8B1        2.2770    1.5570    8.3110 hc        1 MIM      0.054700
     52 H8B2        3.0050   -0.0120    7.7860 hc        1 MIM      0.054700
     53 H7B1        0.6940   -0.9310    7.3440 hc        1 MIM      0.046700
     54 H7B2       -0.0290    0.6430    7.8570 hc        1 MIM      0.046700
     55 H6B1        1.2750    1.8260    6.0500 hc        1 MIM      0.051700
     56 H6B2        1.9750    0.2430    5.5270 hc        1 MIM      0.051700
     57 H2B        -1.3040    2.0270    6.1090 ha        1 MIM      0.134500
     58 H1B        -3.3100    1.6500    4.6850 ha        1 MIM      0.139000
     59 H5B        -1.2080   -1.4850    2.5680 ha        1 MIM      0.139000
     60 H4B         0.7930   -1.1020    3.9870 ha        1 MIM      0.134500
     61 HAB1       -3.6600   -1.2630    2.4100 hc        1 MIM      0.084200
     62 HAB2       -4.5240    0.0810    3.2710 hc        1 MIM      0.084200
     63 HNS        -1.6160    0.3580    1.0400 hn        1 MIM      0.335500
     64 HAS        -3.4170    1.8030   -0.8320 h1        1 MIM      0.111700
     65 HBS1       -1.4450    2.9510   -1.7710 h1        1 MIM      0.041200
     66 HBS2       -1.5630    3.3020    0.0200 h1        1 MIM      0.041200
     67 HOGS        0.5580    2.6690   -0.6890 ho        1 MIM      0.410000
     68 HNK        -2.5200    1.5550   -3.1940 hn        1 MIM      0.318500
     69 HAK        -1.5330   -1.2020   -3.6300 h1        1 MIM      0.101700
     70 HBK1       -3.3950    0.4680   -5.4950 hc        1 MIM      0.053700
     71 HBK2       -2.4840   -1.0180   -5.9790 hc        1 MIM      0.053700
     72 HGK1       -3.6410   -2.3020   -4.1200 hc        1 MIM      0.051700
     73 HGK2       -4.6080   -0.8280   -3.7290 hc        1 MIM      0.051700
     74 HDK1       -5.5070   -0.7930   -6.0830 hc        1 MIM      0.045700
     75 HDK2       -4.5460   -2.2740   -6.4730 hc        1 MIM      0.045700
     76 HEK1       -5.7180   -3.5330   -4.6240 h1        1 MIM      0.026700
     77 HEK2       -6.6640   -2.0390   -4.2160 h1        1 MIM      0.026700
     78 HNZ1       -7.8990   -3.5170   -5.6190 hn        1 MIM      0.348800
     79 HNZ2       -7.4970   -2.2600   -6.5770 hn        1 MIM      0.348800
     80 HNY         0.1380   -1.3160   -5.3000 hn        1 MIM      0.311500
     81 HAY1        1.2940    1.2940   -6.1580 h1        1 MIM      0.062700
     82 HAY2        2.3040   -0.1360   -5.6390 h1        1 MIM      0.062700
     83 HBY1        1.3790   -1.4780   -7.5770 hc        1 MIM      0.045200
     84 HBY2        0.4260   -0.0410   -8.1190 hc        1 MIM      0.045200
     85 HGY         3.4790    0.0840   -7.6630 hc        1 MIM      0.048700
     86 HKY1        3.0050   -1.7620   -9.2540 hc        1 MIM      0.041450
     87 HKY2        1.9160   -0.6870  -10.2190 hc        1 MIM      0.041450
     88 HHY1        4.9520   -0.3220   -9.7360 hc        1 MIM      0.039700
     89 HHY2        4.1480   -0.8240  -11.2760 hc        1 MIM      0.039700
     90 HZY1        4.7880    1.6110  -11.2590 hc        1 MIM      0.039700
     91 HZY2        3.0090    1.3570  -11.4610 hc        1 MIM      0.039700
     92 HEY1        4.5040    2.1170   -8.8610 hc        1 MIM      0.039700
     93 HEY2        3.4170    3.1760   -9.8440 hc        1 MIM      0.039700
     94 HDY1        1.4750    1.7200   -9.3650 hc        1 MIM      0.041450
     95 HDY2        2.2630    2.2490   -7.8250 hc        1 MIM      0.041450
@<TRIPOS>BOND
     1    1    3 1   
     2    1   44 1   
     3    1   45 1   
     4    1   46 1   
     5    2    3 2   
     6    2    6 1   
     7    3    4 1   
     8    4    5 1   
     9    4    7 1   
    10    5    6 2   
    11    5   47 1   
    12    6   48 1   
    13    7    8 1   
    14    7   49 1   
    15    7   50 1   
    16    8    9 1   
    17    8   51 1   
    18    8   52 1   
    19    9   10 1   
    20    9   53 1   
    21    9   54 1   
    22   10   11 1   
    23   10   55 1   
    24   10   56 1   
    25   11   12 ar  
    26   11   16 ar  
    27   12   13 ar  
    28   12   57 1   
    29   13   14 ar  
    30   13   58 1   
    31   14   15 ar  
    32   14   17 1   
    33   15   16 ar  
    34   15   59 1   
    35   16   60 1   
    36   17   18 1   
    37   17   61 1   
    38   17   62 1   
    39   18   19 2   
    40   18   20 1   
    41   20   21 1   
    42   20   63 1   
    43   21   22 1   
    44   21   24 1   
    45   21   64 1   
    46   22   23 2   
    47   22   26 1   
    48   24   25 1   
    49   24   65 1   
    50   24   66 1   
    51   25   67 1   
    52   26   27 1   
    53   26   68 1   
    54   27   28 1   
    55   27   30 1   
    56   27   69 1   
    57   28   29 2   
    58   28   35 1   
    59   30   31 1   
    60   30   70 1   
    61   30   71 1   
    62   31   32 1   
    63   31   72 1   
    64   31   73 1   
    65   32   33 1   
    66   32   74 1   
    67   32   75 1   
    68   33   34 1   
    69   33   76 1   
    70   33   77 1   
    71   34   78 1   
    72   34   79 1   
    73   35   36 1   
    74   35   80 1   
    75   36   37 1   
    76   36   81 1   
    77   36   82 1   
    78   37   38 1   
    79   37   83 1   
    80   37   84 1   
    81   38   39 1   
    82   38   43 1   
    83   38   85 1   
    84   39   40 1   
    85   39   86 1   
    86   39   87 1   
    87   40   41 1   
    88   40   88 1   
    89   40   89 1   
    90   41   42 1   
    91   41   90 1   
    92   41   91 1   
    93   42   43 1   
    94   42   92 1   
    95   42   93 1   
    96   43   94 1   
    97   43   95 1   
@<TRIPOS>SUBSTRUCTURE
     1 MIM         1 TEMP              0 ****  ****    0 ROOT
