@<TRIPOS>MOLECULE
MIN
   62    64     1     0     0
SMALL
bcc


@<TRIPOS>ATOM
      1 N13        -2.3210   -1.9540   -0.0990 n3        1 MIN     -0.805200
      2 C15        -2.4470   -0.5110   -0.1750 c3        1 MIN      0.127500
      3 C13        -1.0880    0.2040   -0.3930 c         1 MIN      0.620100
      4 O13        -0.2100   -0.3200   -1.1150 o         1 MIN     -0.637100
      5 C16        -3.3620   -0.0680   -1.3350 c3        1 MIN     -0.029100
      6 C17        -4.7990   -0.2740   -1.0090 ca        1 MIN     -0.083300
      7 C18        -5.5780    0.7980   -0.5580 ca        1 MIN     -0.117500
      8 C22        -5.3880   -1.5340   -1.1640 ca        1 MIN     -0.117500
      9 C19        -6.9290    0.6120   -0.2670 ca        1 MIN     -0.131000
     10 C21        -6.7390   -1.7170   -0.8710 ca        1 MIN     -0.131000
     11 C20        -7.5110   -0.6450   -0.4230 ca        1 MIN     -0.127000
     12 C14        -1.6740   -2.4330    1.0950 c3        1 MIN      0.146100
     13 N9         -0.8360    1.3990    0.2510 n         1 MIN     -0.456800
     14 C9          0.3460    2.2020   -0.0450 c3        1 MIN      0.030700
     15 C8          1.5750    1.7980    0.8060 c         1 MIN      0.651100
     16 O8          2.1480    2.6250    1.5430 o         1 MIN     -0.622100
     17 C10        -0.0370    3.6760    0.2090 c3        1 MIN     -0.088400
     18 C11        -1.3900    3.6560    0.9100 c3        1 MIN     -0.090400
     19 C12        -1.8630    2.1940    0.9000 c3        1 MIN      0.086000
     20 N7          2.0030    0.4970    0.6990 n         1 MIN     -0.558900
     21 C7          3.1820    0.0140    1.3630 c3        1 MIN      0.088000
     22 C4          4.2200   -0.6310    0.4310 c3        1 MIN     -0.085700
     23 C5          4.8650    0.4020   -0.4780 c3        1 MIN     -0.073900
     24 C6          5.9420   -0.2180   -1.3430 c3        1 MIN     -0.074900
     25 C1          7.0190   -0.8840   -0.4710 c3        1 MIN      0.170500
     26 C2          6.3550   -1.9450    0.4200 c3        1 MIN     -0.074900
     27 C3          5.2790   -1.3190    1.2810 c3        1 MIN     -0.073900
     28 N1          8.0840   -1.4570   -1.2810 n3        1 MIN     -0.913800
     29 HN3        -1.8560   -2.3000   -0.9200 hn        1 MIN      0.376800
     30 H15        -2.9020   -0.1640    0.8000 h1        1 MIN      0.081700
     31 H161       -3.1720    1.0200   -1.5390 hc        1 MIN      0.059200
     32 H162       -3.0950   -0.6310   -2.2690 hc        1 MIN      0.059200
     33 H18        -5.1240    1.7920   -0.4350 ha        1 MIN      0.133500
     34 H22        -4.7770   -2.3820   -1.5080 ha        1 MIN      0.133500
     35 H19        -7.5350    1.4590    0.0850 ha        1 MIN      0.131500
     36 H21        -7.1950   -2.7110   -0.9930 ha        1 MIN      0.131500
     37 H20        -8.5770   -0.7910   -0.1940 ha        1 MIN      0.131000
     38 H141       -1.6300   -3.5530    1.0450 h1        1 MIN      0.037033
     39 H142       -0.6290   -2.0380    1.2290 h1        1 MIN      0.037033
     40 H143       -2.2810   -2.1370    1.9910 h1        1 MIN      0.037033
     41 H9          0.6400    2.0520   -1.1270 h1        1 MIN      0.083700
     42 H101        0.7370    4.1860    0.8380 hc        1 MIN      0.075200
     43 H102       -0.1020    4.2140   -0.7680 hc        1 MIN      0.075200
     44 H111       -1.2980    4.0220    1.9620 hc        1 MIN      0.057200
     45 H112       -2.1270    4.3080    0.3810 hc        1 MIN      0.057200
     46 H121       -2.0090    1.8170    1.9510 h1        1 MIN      0.049700
     47 H122       -2.8440    2.0990    0.3560 h1        1 MIN      0.049700
     48 HN7         1.5840   -0.1000    0.0210 hn        1 MIN      0.335500
     49 H71         2.8610   -0.7630    2.1180 h1        1 MIN      0.058200
     50 H72         3.6670    0.8640    1.9240 h1        1 MIN      0.058200
     51 H4          3.7170   -1.4090   -0.2090 hc        1 MIN      0.054700
     52 H51         4.0850    0.8610   -1.1390 hc        1 MIN      0.043950
     53 H52         5.3050    1.2250    0.1450 hc        1 MIN      0.043950
     54 H61         6.4060    0.5780   -1.9810 hc        1 MIN      0.047200
     55 H62         5.4880   -0.9820   -2.0270 hc        1 MIN      0.047200
     56 H1          7.4270   -0.0790    0.2210 h1        1 MIN      0.007700
     57 H21A        5.9100   -2.7490   -0.2220 hc        1 MIN      0.047200
     58 H22A        7.1240   -2.4240    1.0810 hc        1 MIN      0.047200
     59 H31         4.7980   -2.1160    1.9070 hc        1 MIN      0.043950
     60 H32         5.7380   -0.5730    1.9810 hc        1 MIN      0.043950
     61 HN11        8.4960   -0.7520   -1.8580 hn        1 MIN      0.348800
     62 HN12        8.7860   -1.8570   -0.6910 hn        1 MIN      0.348800
@<TRIPOS>BOND
     1    1    2 1   
     2    1   12 1   
     3    1   29 1   
     4    2    3 1   
     5    2    5 1   
     6    2   30 1   
     7    3    4 2   
     8    3   13 1   
     9    5    6 1   
    10    5   31 1   
    11    5   32 1   
    12    6    7 ar  
    13    6    8 ar  
    14    7    9 ar  
    15    7   33 1   
    16    8   10 ar  
    17    8   34 1   
    18    9   11 ar  
    19    9   35 1   
    20   10   11 ar  
    21   10   36 1   
    22   11   37 1   
    23   12   38 1   
    24   12   39 1   
    25   12   40 1   
    26   13   14 1   
    27   13   19 1   
    28   14   15 1   
    29   14   17 1   
    30   14   41 1   
    31   15   16 2   
    32   15   20 1   
    33   17   18 1   
    34   17   42 1   
    35   17   43 1   
    36   18   19 1   
    37   18   44 1   
    38   18   45 1   
    39   19   46 1   
    40   19   47 1   
    41   20   21 1   
    42   20   48 1   
    43   21   22 1   
    44   21   49 1   
    45   21   50 1   
    46   22   23 1   
    47   22   27 1   
    48   22   51 1   
    49   23   24 1   
    50   23   52 1   
    51   23   53 1   
    52   24   25 1   
    53   24   54 1   
    54   24   55 1   
    55   25   26 1   
    56   25   28 1   
    57   25   56 1   
    58   26   27 1   
    59   26   57 1   
    60   26   58 1   
    61   27   59 1   
    62   27   60 1   
    63   28   61 1   
    64   28   62 1   
@<TRIPOS>SUBSTRUCTURE
     1 MIN         1 TEMP              0 ****  ****    0 ROOT
