@<TRIPOS>MOLECULE
MIO
   14    14     1     0     0
SMALL
bcc


@<TRIPOS>ATOM
      1 CAA        -0.0080    0.0040   -0.0220 c3        1 MIO     -0.156400
      2 NAB         4.9010    0.0250    1.2640 n4        1 MIO     -0.776300
      3 CAC         2.3000   -0.0290    1.1840 cc        1 MIO     -0.214600
      4 NAD         2.2730    0.1360   -1.1050 nd        1 MIO     -0.263300
      5 OAE         3.5290    0.1380   -0.7330 os        1 MIO     -0.088100
      6 CAF         1.4650    0.0390   -0.0250 cc        1 MIO      0.354600
      7 CAG         3.5890    0.0360    0.6920 cd        1 MIO      0.210600
      8 HAA        -0.4290    0.1220   -1.0540 hc        1 MIO      0.088367
      9 HAAA       -0.3590   -0.9760    0.3940 hc        1 MIO      0.088367
     10 HAAB       -0.4030    0.8310    0.6210 hc        1 MIO      0.088367
     11 HNAB        4.8270   -0.0770    2.2850 hn        1 MIO      0.485133
     12 HNAA        5.3830    0.9080    1.0340 hn        1 MIO      0.485133
     13 HAC         1.9360   -0.1110    2.2080 ha        1 MIO      0.212000
     14 HAB3        5.4400   -0.7620    0.8710 hn        1 MIO      0.485133
@<TRIPOS>BOND
     1    1    6 1   
     2    1    8 1   
     3    1    9 1   
     4    1   10 1   
     5    2    7 1   
     6    2   11 1   
     7    2   12 1   
     8    2   14 1   
     9    3    6 1   
    10    3    7 2   
    11    3   13 1   
    12    4    5 1   
    13    4    6 2   
    14    5    7 1   
@<TRIPOS>SUBSTRUCTURE
     1 MIO         1 TEMP              0 ****  ****    0 ROOT
