@<TRIPOS>MOLECULE
MIO
   13    13     1     0     0
SMALL
bcc


@<TRIPOS>ATOM
      1 CAA         0.0180    0.0120   -0.0360 c3        1 MIO     -0.133400
      2 NAB         4.8380   -0.2030    1.3380 nv        1 MIO     -0.902500
      3 CAC         2.3000   -0.0090    1.1930 cc        1 MIO     -0.436600
      4 NAD         2.3020   -0.1420   -1.0950 nd        1 MIO     -0.382300
      5 OAE         3.5620   -0.1650   -0.6940 os        1 MIO     -0.146100
      6 CAF         1.4920   -0.0440   -0.0210 cc        1 MIO      0.351600
      7 CAG         3.6110   -0.0940    0.7340 cd        1 MIO      0.473600
      8 HAA        -0.3920   -0.8850    0.4920 hc        1 MIO      0.057033
      9 HAAA       -0.3250    0.9310    0.5010 hc        1 MIO      0.057033
     10 HAAB       -0.3900    0.0320   -1.0770 hc        1 MIO      0.057033
     11 HNAB        4.9140    0.3020    2.1940 hn        1 MIO      0.415300
     12 HNAA        5.6180   -0.1020    0.7250 hn        1 MIO      0.415300
     13 HAC         1.9340    0.0520    2.2100 ha        1 MIO      0.174000
@<TRIPOS>BOND
     1    1    6 1   
     2    1    8 1   
     3    1    9 1   
     4    1   10 1   
     5    2    7 1   
     6    2   11 1   
     7    2   12 1   
     8    3    6 1   
     9    3    7 2   
    10    3   13 1   
    11    4    5 1   
    12    4    6 2   
    13    5    7 1   
@<TRIPOS>SUBSTRUCTURE
     1 MIO         1 TEMP              0 ****  ****    0 ROOT
