@<TRIPOS>MOLECULE
MIO
   13    13     1     0     0
SMALL
bcc


@<TRIPOS>ATOM
      1 CAA         2.5600    0.4760   -0.0260 c3        1 MIO     -0.133400
      2 NAB        -2.4510    0.4970    0.2090 nh        1 MIO     -0.902500
      3 CAC         0.0370    1.0500    0.1160 cc        1 MIO     -0.436600
      4 NAD         0.6320   -1.1420   -0.1900 nd        1 MIO     -0.382300
      5 OAE        -0.6880   -1.0900   -0.1520 os        1 MIO     -0.146100
      6 CAF         1.1340    0.1020   -0.0420 cc        1 MIO      0.351600
      7 CAG        -1.1090    0.2620    0.0470 cd        1 MIO      0.473600
      8 HAA         2.8260    0.8790    0.9830 hc        1 MIO      0.057033
      9 HAAA        3.2250   -0.3940   -0.2490 hc        1 MIO      0.057033
     10 HAAB        2.7430    1.2730   -0.7890 hc        1 MIO      0.057033
     11 HNAB       -2.7500    1.3860   -0.1270 hn        1 MIO      0.415300
     12 HNAA       -3.0440   -0.2640   -0.0440 hn        1 MIO      0.415300
     13 HAC         0.1230    2.1180    0.2670 ha        1 MIO      0.174000
@<TRIPOS>BOND
     1    1    6 1   
     2    1    8 1   
     3    1    9 1   
     4    1   10 1   
     5    2    7 1   
     6    2   11 1   
     7    2   12 1   
     8    3    6 1   
     9    3    7 2   
    10    3   13 1   
    11    4    5 1   
    12    4    6 2   
    13    5    7 1   
@<TRIPOS>SUBSTRUCTURE
     1 MIO         1 TEMP              0 ****  ****    0 ROOT
