@<TRIPOS>MOLECULE
MIO
   13    12     1     0     0
SMALL
bcc


@<TRIPOS>ATOM
      1 CAA        -2.3100    0.0000   -0.4860 c3        1 MIO     -0.034900
      2 NAB         2.6110    0.0060    0.7920 nh        1 MIO     -0.791600
      3 CAC         0.0130    0.0000    0.6300 c1        1 MIO     -0.179800
      4 NAD        -0.0040    0.0000   -1.5780 n2        1 MIO     -0.180700
      5 OAE         1.3180    0.0000   -1.1490 os        1 MIO     -0.081400
      6 CAF        -0.7970    0.0000   -0.4860 ce        1 MIO     -0.056300
      7 CAG         1.3190    0.0000    0.2050 c2        1 MIO      0.149000
      8 HAA        -2.6360    0.7930   -0.0190 hc        1 MIO      0.057367
      9 HAAA       -2.6360   -0.8010   -0.0330 hc        1 MIO      0.057367
     10 HAAB       -2.6360    0.0090   -1.4060 hc        1 MIO      0.057367
     11 HNAB        3.1170   -0.7530    0.7870 hn        1 MIO      0.415300
     12 HNAA        2.9300    0.7640    1.1840 hn        1 MIO      0.415300
     13 HAC        -0.2880   -0.0210    1.5580 DU        1 MIO      0.174000
@<TRIPOS>BOND
     1    1    6 1   
     2    1    8 1   
     3    1    9 1   
     4    1   10 1   
     5    2    7 1   
     6    2   11 1   
     7    2   12 1   
     8    3    6 2   
     9    3    7 2   
    10    4    5 1   
    11    4    6 1   
    12    5    7 1   
@<TRIPOS>SUBSTRUCTURE
     1 MIO         1 TEMP              0 ****  ****    0 ROOT
