@<TRIPOS>MOLECULE
MIP
   15    14     1     0     0
SMALL
bcc


@<TRIPOS>ATOM
      1 P           0.1180   -0.0950   -0.2380 p5        1 MIP      1.885000
      2 OA1         1.5540   -0.0650    0.1480 o         1 MIP     -0.880500
      3 O3         -0.8090   -1.1270    0.3070 o         1 MIP     -0.880500
      4 O2B        -0.4630    1.3960   -0.2810 os        1 MIP     -0.824000
      5 C2B        -1.8780    1.6150   -0.5470 c3        1 MIP      0.240000
      6 C1B        -2.5690    2.4140    0.4270 c2        1 MIP     -0.857000
      7 C3B        -1.9450    2.2690   -1.9370 c3        1 MIP     -0.195000
      8 H2B        -0.7880   -0.8960   -2.0450 ho        1 MIP      0.194000
      9 H1B1       -2.3190    0.5710   -0.6210 h1        1 MIP      0.008000
     10 H1B2       -2.9080    1.9510    1.3500 ha        1 MIP      0.028000
     11 H1B3       -2.4080    3.4890    0.4530 ha        1 MIP      0.028000
     12 H3B1       -3.0120    2.4450   -2.2100 hc        1 MIP      0.027333
     13 H3B2       -1.4120    3.2480   -1.9160 hc        1 MIP      0.027333
     14 H3B3       -1.4740    1.6280   -2.7210 hc        1 MIP      0.027333
     15 OA2         0.0350   -0.4650   -1.8580 oh        1 MIP     -0.828000
@<TRIPOS>BOND
     1    1    2 1   
     2    1    3 1   
     3    1    4 1   
     4    1   15 1   
     5    4    5 1   
     6    5    6 1   
     7    5    7 1   
     8    5    9 1   
     9    6   10 1   
    10    6   11 1   
    11    7   12 1   
    12    7   13 1   
    13    7   14 1   
    14    8   15 1   
@<TRIPOS>SUBSTRUCTURE
     1 MIP         1 TEMP              0 ****  ****    0 ROOT
