@<TRIPOS>MOLECULE
MIP
   15    14     1     0     0
SMALL
bcc


@<TRIPOS>ATOM
      1 P          -0.7950    2.5770    1.3340 p5        1 MIP      1.312900
      2 OA1        -1.0320    3.9280    0.7170 o         1 MIP     -0.936167
      3 O3         -1.6710    1.4500    0.8530 o         1 MIP     -0.936167
      4 O2B         0.7470    2.1270    0.6520 os        1 MIP     -0.560200
      5 C2B         1.1880    0.8970    1.0780 c3        1 MIP      0.235100
      6 C1B         1.3660   -0.0550   -0.1100 c3        1 MIP     -0.108100
      7 C3B         2.5300    1.0260    1.8080 c3        1 MIP     -0.108100
      8 H2B         0.4390    0.4360    1.7920 h1        1 MIP      0.037700
      9 H1B1        1.7340   -1.0520    0.2340 hc        1 MIP      0.000033
     10 H1B2        0.3830   -0.1790   -0.6210 hc        1 MIP      0.000033
     11 H1B3        2.0990    0.3630   -0.8390 hc        1 MIP      0.000033
     12 H3B1        2.8940    0.0260    2.1460 hc        1 MIP      0.000033
     13 H3B2        2.3940    1.6890    2.6940 hc        1 MIP      0.000033
     14 H3B3        3.2980    1.4760    1.1360 hc        1 MIP      0.000033
     15 OA2        -0.4840    2.5520    2.8090 o         1 MIP     -0.936167
@<TRIPOS>BOND
     1    1    2 1   
     2    1    3 1   
     3    1    4 1   
     4    1   15 1   
     5    4    5 1   
     6    5    6 1   
     7    5    7 1   
     8    5    8 1   
     9    6    9 1   
    10    6   10 1   
    11    6   11 1   
    12    7   12 1   
    13    7   13 1   
    14    7   14 1   
@<TRIPOS>SUBSTRUCTURE
     1 MIP         1 TEMP              0 ****  ****    0 ROOT
