@<TRIPOS>MOLECULE
MIR
   23    22     1     0     0
SMALL
bcc


@<TRIPOS>ATOM
      1 N          -2.9270    1.2340    0.7710 n3        1 MIR     -0.901800
      2 CA         -2.1110    0.8680   -0.3730 c3        1 MIR      0.040500
      3 CB         -0.7200    0.3050   -0.0150 c3        1 MIR      0.146400
      4 OG         -0.0350    1.2200    0.8080 os        1 MIR     -0.579200
      5 P           1.4130    0.7060    1.3430 p5        1 MIR      1.419800
      6 O1P         1.3440   -0.6940    1.8200 o         1 MIR     -0.849000
      7 O2P         2.0390    1.7840    2.1400 o         1 MIR     -0.849000
      8 O3P         2.2250    0.6580   -0.1120 os        1 MIR     -0.565200
      9 C1          3.4960    0.1120    0.0500 c3        1 MIR      0.173400
     10 C2          4.2060    0.0560   -1.2870 c3        1 MIR     -0.090100
     11 C          -2.8220   -0.1620   -1.3040 c         1 MIR      0.913600
     12 O          -3.5010   -1.0940   -0.7820 o         1 MIR     -0.862300
     13 OXT        -2.6970   -0.0090   -2.5540 o         1 MIR     -0.862300
     14 HN         -3.4480    0.4260    1.0650 hn        1 MIR      0.331800
     15 HNA        -2.3230    1.5050    1.5270 hn        1 MIR      0.331800
     16 HA         -1.9460    1.8150   -0.9640 h1        1 MIR      0.046700
     17 HB         -0.8040   -0.6720    0.5340 h1        1 MIR      0.035700
     18 HBA        -0.1230    0.1550   -0.9530 h1        1 MIR      0.035700
     19 H1          4.0740    0.7500    0.7770 h1        1 MIR      0.016200
     20 H1A         3.3960   -0.9220    0.4890 h1        1 MIR      0.016200
     21 H2          3.6170   -0.5600   -2.0060 hc        1 MIR      0.017033
     22 H2A         4.3100    1.0820   -1.7110 hc        1 MIR      0.017033
     23 H2B         5.2200   -0.3930   -1.1630 hc        1 MIR      0.017033
@<TRIPOS>BOND
     1    1    2 1   
     2    1   14 1   
     3    1   15 1   
     4    2    3 1   
     5    2   11 1   
     6    2   16 1   
     7    3    4 1   
     8    3   17 1   
     9    3   18 1   
    10    4    5 1   
    11    5    6 1   
    12    5    7 1   
    13    5    8 1   
    14    8    9 1   
    15    9   10 1   
    16    9   19 1   
    17    9   20 1   
    18   10   21 1   
    19   10   22 1   
    20   10   23 1   
    21   11   12 1   
    22   11   13 1   
@<TRIPOS>SUBSTRUCTURE
     1 MIR         1 TEMP              0 ****  ****    0 ROOT
