@<TRIPOS>MOLECULE
MIS
   26    25     1     0     0
SMALL
bcc


@<TRIPOS>ATOM
      1 N           1.9180    0.4450   -2.1380 n3        1 MIS     -0.901800
      2 CA          1.0170   -0.5160   -1.5250 c3        1 MIS      0.039500
      3 CB         -0.1930    0.1100   -0.8020 c3        1 MIS      0.151400
      4 OG          0.2520    1.0770    0.1180 os        1 MIS     -0.597200
      5 P          -0.9030    1.7010    1.0900 p5        1 MIS      1.422800
      6 O1P        -2.1690    1.9030    0.3590 o         1 MIS     -0.839500
      7 O2P        -0.2420    2.7410    1.9110 o         1 MIS     -0.839500
      8 O3P        -1.1250    0.3900    2.0840 os        1 MIS     -0.572200
      9 C1         -0.0490    0.0550    2.9100 c3        1 MIS      0.200100
     10 C2         -0.4980    0.0890    4.3680 c3        1 MIS     -0.106600
     11 C3          0.4580   -1.3390    2.5570 c3        1 MIS     -0.106600
     12 C           0.4820   -1.5620   -2.5510 c         1 MIS      0.914600
     13 O           0.1570   -1.1710   -3.7110 o         1 MIS     -0.861800
     14 OXT         0.4090   -2.7680   -2.1760 o         1 MIS     -0.861800
     15 H           1.8820    1.3020   -1.6150 hn        1 MIS      0.332300
     16 H2          1.5950    0.6380   -3.0710 hn        1 MIS      0.332300
     17 HA          1.6210   -1.0680   -0.7480 h1        1 MIS      0.040700
     18 HB2        -0.7520   -0.6880   -0.2420 h1        1 MIS      0.031700
     19 HB3        -0.8910    0.6060   -1.5280 h1        1 MIS      0.031700
     20 H1          0.7850    0.8060    2.7650 h1        1 MIS      0.050700
     21 H21         0.3400   -0.2280    5.0330 hc        1 MIS      0.023033
     22 H22        -0.8120    1.1220    4.6440 hc        1 MIS      0.023033
     23 H23        -1.3630   -0.5990    4.5200 hc        1 MIS      0.023033
     24 H31        -0.3530   -2.0920    2.6970 hc        1 MIS      0.023033
     25 H32         0.7790   -1.3650    1.4860 hc        1 MIS      0.023033
     26 H33         1.3210   -1.6080    3.2090 hc        1 MIS      0.023033
@<TRIPOS>BOND
     1    1    2 1   
     2    1   15 1   
     3    1   16 1   
     4    2    3 1   
     5    2   12 1   
     6    2   17 1   
     7    3    4 1   
     8    3   18 1   
     9    3   19 1   
    10    4    5 1   
    11    5    6 1   
    12    5    7 1   
    13    5    8 1   
    14    8    9 1   
    15    9   10 1   
    16    9   11 1   
    17    9   20 1   
    18   10   21 1   
    19   10   22 1   
    20   10   23 1   
    21   11   24 1   
    22   11   25 1   
    23   11   26 1   
    24   12   13 1   
    25   12   14 1   
@<TRIPOS>SUBSTRUCTURE
     1 MIS         1 TEMP              0 ****  ****    0 ROOT
