@<TRIPOS>MOLECULE
MIT
   71    73     1     0     0
SMALL
bcc


@<TRIPOS>ATOM
      1 S           1.6830   -1.4870    0.7120 sy        1 MIT      1.537200
      2 O1          2.3650   -1.7140    1.9390 o         1 MIT     -0.699300
      3 O2          2.4610   -1.8360   -0.4430 o         1 MIT     -0.699300
      4 C1         -1.0810   -2.2900    4.2040 c3        1 MIT      0.216800
      5 C2         -2.5700   -2.4210    3.8650 c3        1 MIT     -0.079700
      6 C3         -2.7520   -3.4600    2.7700 c3        1 MIT     -0.027100
      7 C4         -1.8590   -3.2010    1.6070 ca        1 MIT     -0.175300
      8 C5         -2.2300   -3.6250    0.3480 ca        1 MIT     -0.022000
      9 C6         -1.3900   -3.4190   -0.7610 ca        1 MIT     -0.210000
     10 C7         -0.1920   -2.7670   -0.5860 ca        1 MIT      0.007000
     11 C8          0.2390   -2.2950    0.6750 ca        1 MIT     -0.512500
     12 C9         -0.6010   -2.5310    1.8020 ca        1 MIT      0.346600
     13 N          -0.2410   -2.1040    3.0510 nh        1 MIT     -0.765600
     14 N1          1.3030    0.0680    0.5690 n3        1 MIT     -0.931100
     15 CA          1.3890    1.0460    1.6100 c3        1 MIT      0.201500
     16 C           0.0980    1.8930    1.7450 c         1 MIT      0.636100
     17 O          -0.4860    1.7820    2.8480 o         1 MIT     -0.629100
     18 CB          2.5810    2.0130    1.5930 c3        1 MIT     -0.121400
     19 CG          3.9330    1.3620    1.4010 c3        1 MIT     -0.094400
     20 CD          4.4940    1.5640   -0.0130 c3        1 MIT      0.022300
     21 NE          4.0990    0.5320   -0.9420 nh        1 MIT     -0.388100
     22 CZ          3.6390    0.7310   -2.2220 cz        1 MIT      0.526300
     23 NH1         3.8460    1.9440   -2.8900 nh        1 MIT     -0.448700
     24 NH2         3.2070   -0.3840   -2.9530 nh        1 MIT     -0.448700
     25 N2         -0.3430    2.8340    0.8190 n         1 MIT     -0.403800
     26 C11        -0.2020    2.8180   -0.6350 c3        1 MIT     -0.009300
     27 C21        -1.3110    1.9880   -1.3020 c3        1 MIT     -0.088400
     28 C31        -2.6960    2.5060   -0.9420 c3        1 MIT     -0.067700
     29 C41        -2.8310    2.7490    0.5550 c3        1 MIT     -0.100400
     30 C51        -1.6230    3.4710    1.1530 c3        1 MIT      0.062000
     31 C61         1.1580    2.5040   -1.2820 c         1 MIT      0.918600
     32 O11         2.0980    3.3450   -1.2100 o         1 MIT     -0.862800
     33 O21         1.2950    1.4420   -1.9790 o         1 MIT     -0.862800
     34 C71        -3.0430    3.7520   -1.7300 c3        1 MIT     -0.091100
     35 HN          0.6960   -1.8090    3.2320 hn        1 MIT      0.468800
     36 H1A        -0.7500   -3.2150    4.7630 h1        1 MIT      0.051200
     37 H2         -2.9430   -1.4270    3.4860 hc        1 MIT      0.072700
     38 H3         -2.5260   -4.4810    3.1830 hc        1 MIT      0.053200
     39 H3A        -3.8240   -3.4650    2.4390 hc        1 MIT      0.053200
     40 H5         -3.1950   -4.1380    0.2050 ha        1 MIT      0.134000
     41 H6         -1.6990   -3.7770   -1.7530 ha        1 MIT      0.140000
     42 H7          0.4720   -2.6060   -1.4550 ha        1 MIT      0.145000
     43 H           0.9670    0.4250   -0.3050 hn        1 MIT      0.488800
     44 HA          1.4600    0.4690    2.5920 h1        1 MIT      0.078700
     45 HB2         2.4220    2.8130    0.8210 hc        1 MIT      0.085200
     46 HB3         2.5660    2.5250    2.5950 hc        1 MIT      0.085200
     47 HG2         4.6670    1.8490    2.0990 hc        1 MIT      0.060700
     48 HG3         3.8970    0.2750    1.6820 hc        1 MIT      0.060700
     49 HD2         4.1690    2.5850   -0.3710 h1        1 MIT      0.075700
     50 HD3         5.6220    1.5470    0.0380 h1        1 MIT      0.075700
     51 HE          4.0090   -0.3920   -0.5560 hn        1 MIT      0.319700
     52 HH11        3.7880    2.7620   -2.2980 hn        1 MIT      0.294200
     53 HH12        3.2740    2.0550   -3.7050 hn        1 MIT      0.294200
     54 HH21        2.5280   -0.1780   -3.6570 hn        1 MIT      0.294200
     55 HH22        3.0110   -1.2170   -2.4270 hn        1 MIT      0.294200
     56 H11        -0.3660    3.9040   -0.9420 h1        1 MIT      0.074700
     57 H21        -1.1590    2.0320   -2.4110 hc        1 MIT      0.055200
     58 H22        -1.2150    0.9150   -0.9960 hc        1 MIT      0.055200
     59 H31        -3.4420    1.7080   -1.2270 hc        1 MIT      0.042700
     60 H41        -3.7450    3.3640    0.7590 hc        1 MIT      0.048700
     61 H42        -2.9600    1.7640    1.0760 hc        1 MIT      0.048700
     62 H51        -1.7400    3.5240    2.2710 h1        1 MIT      0.066700
     63 H52        -1.5820    4.5270    0.7600 h1        1 MIT      0.066700
     64 H71        -2.9350    3.5620   -2.8250 hc        1 MIT      0.033700
     65 H72        -4.0980    4.0580   -1.5270 hc        1 MIT      0.033700
     66 H73        -2.3730    4.6010   -1.4510 hc        1 MIT      0.033700
     67 C10        -3.3480   -2.7940    5.1060 c3        1 MIT     -0.091100
     68 H10        -3.2080   -2.0190    5.8980 hc        1 MIT      0.040367
     69 H10A       -4.4360   -2.8670    4.8670 hc        1 MIT      0.040367
     70 H10B       -3.0080   -3.7790    5.5080 hc        1 MIT      0.040367
     71 H1         -0.9340   -1.4010    4.8830 h1        1 MIT      0.051200
@<TRIPOS>BOND
     1    1    2 2   
     2    1    3 2   
     3    1   11 1   
     4    1   14 1   
     5    4    5 1   
     6    4   13 1   
     7    4   36 1   
     8    4   71 1   
     9    5    6 1   
    10    5   37 1   
    11    5   67 1   
    12    6    7 1   
    13    6   38 1   
    14    6   39 1   
    15    7    8 ar  
    16    7   12 ar  
    17    8    9 ar  
    18    8   40 1   
    19    9   10 ar  
    20    9   41 1   
    21   10   11 ar  
    22   10   42 1   
    23   11   12 ar  
    24   12   13 1   
    25   13   35 1   
    26   14   15 1   
    27   14   43 1   
    28   15   16 1   
    29   15   18 1   
    30   15   44 1   
    31   16   17 2   
    32   16   25 1   
    33   18   19 1   
    34   18   45 1   
    35   18   46 1   
    36   19   20 1   
    37   19   47 1   
    38   19   48 1   
    39   20   21 1   
    40   20   49 1   
    41   20   50 1   
    42   21   22 2   
    43   21   51 1   
    44   22   23 1   
    45   22   24 1   
    46   23   52 1   
    47   23   53 1   
    48   24   54 1   
    49   24   55 1   
    50   25   26 1   
    51   25   30 1   
    52   26   27 1   
    53   26   31 1   
    54   26   56 1   
    55   27   28 1   
    56   27   57 1   
    57   27   58 1   
    58   28   29 1   
    59   28   34 1   
    60   28   59 1   
    61   29   30 1   
    62   29   60 1   
    63   29   61 1   
    64   30   62 1   
    65   30   63 1   
    66   31   32 1   
    67   31   33 1   
    68   34   64 1   
    69   34   65 1   
    70   34   66 1   
    71   67   68 1   
    72   67   69 1   
    73   67   70 1   
@<TRIPOS>SUBSTRUCTURE
     1 MIT         1 TEMP              0 ****  ****    0 ROOT
