@<TRIPOS>MOLECULE
MIT
   71    68     1     0     0
SMALL
bcc


@<TRIPOS>ATOM
      1 S           0.2930    1.9490    0.3480 ss        1 MIT      2.874000
      2 O1          1.0710    2.7320   -0.5910 o         1 MIT     -0.950000
      3 O2          1.2790    1.6330    1.3320 o         1 MIT     -0.950000
      4 C1          0.6970    4.6860    3.8850 c3        1 MIT     -0.045000
      5 C2         -0.1910    5.8750    4.0280 c3        1 MIT     -0.130000
      6 C3         -1.5810    5.6670    3.7940 c3        1 MIT     -0.113000
      7 C4         -1.9420    4.6180    2.7000 c2        1 MIT     -0.154000
      8 C5         -3.2330    4.4330    2.2480 c1        1 MIT     -0.032000
      9 C6         -3.4960    3.5050    1.1980 c2        1 MIT     -0.192000
     10 C7         -2.4140    2.7550    0.6050 c1        1 MIT      0.002000
     11 C8         -1.0720    2.9420    1.0690 c1        1 MIT     -0.898000
     12 C9         -0.8130    3.8370    2.0830 c2        1 MIT      0.196000
     13 C10        -0.0160    6.4500    5.5590 c3        1 MIT     -0.208000
     14 N           0.6050    3.9840    2.7220 n3        1 MIT     -0.314000
     15 N1         -0.3170    0.5580   -0.3750 n2        1 MIT     -0.884000
     16 CA          0.5830   -0.4730   -0.8250 c3        1 MIT      0.030000
     17 C           0.1330   -0.9860   -2.1850 c2        1 MIT      0.330000
     18 O          -1.0350   -0.8950   -2.5110 o         1 MIT     -0.416000
     19 CB          0.5830   -1.6110    0.1670 c3        1 MIT     -0.181000
     20 CG         -0.9150   -2.0380    0.4830 c3        1 MIT     -0.162000
     21 CD         -0.9240   -3.1270    1.6040 c3        1 MIT     -0.050000
     22 NE         -1.8440   -4.1870    1.2410 n3        1 MIT     -0.282000
     23 CZ         -1.9130   -5.3910    2.0640 c2        1 MIT      0.390000
     24 NH1        -0.7080   -6.1690    2.3170 n3        1 MIT     -0.288000
     25 NH2        -3.1200   -5.7910    2.6020 n2        1 MIT     -0.319000
     26 N2          1.1110   -1.6510   -3.0980 n         1 MIT     -0.284000
     27 C11         0.7170   -2.2200   -4.4190 c3        1 MIT     -0.044000
     28 C21         1.6570   -1.6500   -5.5100 c3        1 MIT     -0.168000
     29 C31         3.1130   -1.8050   -5.1660 c3        1 MIT     -0.105000
     30 C41         3.4360   -1.2710   -3.8480 c3        1 MIT     -0.183000
     31 C51         2.5420   -1.7950   -2.7710 c3        1 MIT     -0.047000
     32 C61        -0.7660   -1.9910   -4.7380 c2        1 MIT      0.335000
     33 O11        -1.1310   -0.9280   -5.3220 o         1 MIT     -0.599000
     34 O21        -1.6200   -2.8900   -4.4630 o         1 MIT     -0.599000
     35 C71         3.4820   -3.3380   -5.1980 c3        1 MIT     -0.209000
     36 HN          0.9770    3.1540    2.8360 hn        1 MIT      0.240000
     37 H1          0.5000    4.0750    4.6190 h1        1 MIT      0.093000
     38 H1A         1.6130    4.9860    3.9800 h1        1 MIT      0.093000
     39 H2          0.1230    6.5680    3.4020 hc        1 MIT      0.102000
     40 H3         -1.9670    6.5280    3.5160 hc        1 MIT      0.094500
     41 H3A        -1.9760    5.3680    4.6280 hc        1 MIT      0.094500
     42 H5         -3.9840    4.9500    2.6560 DU        1 MIT      0.191500
     43 H6         -4.4360    3.3720    0.8710 ha        1 MIT      0.143000
     44 H7         -2.6030    2.0880   -0.0900 ha        1 MIT      0.160000
     45 H10        -0.4160    5.8090    6.2020 hc        1 MIT      0.079333
     46 H10A       -0.4690    7.3170    5.6370 hc        1 MIT      0.079333
     47 H10B        0.9440    6.5610    5.7590 hc        1 MIT      0.079333
     48 H          -1.2050    0.4260   -0.4140 hn        1 MIT      0.250000
     49 HA          1.4970   -0.1000   -0.8990 h1        1 MIT      0.132000
     50 HB2         1.0210   -1.3240    0.9920 hc        1 MIT      0.122000
     51 HB3         1.0660   -2.3750   -0.2110 hc        1 MIT      0.122000
     52 HG2        -1.3330   -2.4040   -0.3370 hc        1 MIT      0.092500
     53 HG3        -1.4220   -1.2520    0.7870 hc        1 MIT      0.092500
     54 HD2        -0.0190   -3.4980    1.7080 h1        1 MIT      0.109500
     55 HD3        -1.2120   -2.7190    2.4550 h1        1 MIT      0.109500
     56 HE         -2.4740   -4.0450    0.5810 hn        1 MIT      0.241000
     57 HH11       -0.7770   -7.0130    2.6490 hn        1 MIT      0.240000
     58 HH12        0.1130   -5.8640    1.9990 hn        1 MIT      0.240000
     59 HH21       -3.8880   -5.2970    2.4420 DU        1 MIT      0.191500
     60 HH22       -3.1650   -6.5590    3.1270 hn        1 MIT      0.267000
     61 H11         0.7570   -3.2050   -4.4030 h1        1 MIT      0.114000
     62 H21         1.4580   -0.6820   -5.6330 hc        1 MIT      0.098000
     63 H22         1.4810   -2.1190   -6.3550 hc        1 MIT      0.098000
     64 H31         3.6540   -1.3310   -5.8430 hc        1 MIT      0.082000
     65 H41         4.3690   -1.5100   -3.6290 hc        1 MIT      0.085000
     66 H42         3.3580   -0.2920   -3.8750 hc        1 MIT      0.085000
     67 H51         2.7310   -1.3040   -1.9310 h1        1 MIT      0.103500
     68 H52         2.7430   -2.7610   -2.6310 h1        1 MIT      0.103500
     69 H71         3.8830   -3.5640   -6.0780 hc        1 MIT      0.073667
     70 H72         4.1320   -3.5350   -4.4800 hc        1 MIT      0.073667
     71 H73         2.6770   -3.8690   -5.0630 hc        1 MIT      0.073667
@<TRIPOS>BOND
     1    1    2 1   
     2    1    3 1   
     3    4    5 1   
     4    4   14 1   
     5    4   37 1   
     6    4   38 1   
     7    5    6 1   
     8    5   13 1   
     9    5   39 1   
    10    6    7 1   
    11    6   40 1   
    12    6   41 1   
    13    7    8 1   
    14    7   12 1   
    15    8    9 1   
    16    9   10 1   
    17    9   43 1   
    18   10   44 1   
    19   11   12 1   
    20   12   14 1   
    21   13   45 1   
    22   13   46 1   
    23   13   47 1   
    24   14   36 1   
    25   15   16 1   
    26   15   48 1   
    27   16   17 1   
    28   16   19 1   
    29   16   49 1   
    30   17   18 1   
    31   17   26 1   
    32   19   20 1   
    33   19   50 1   
    34   19   51 1   
    35   20   21 1   
    36   20   52 1   
    37   20   53 1   
    38   21   22 1   
    39   21   54 1   
    40   21   55 1   
    41   22   23 1   
    42   22   56 1   
    43   23   24 1   
    44   23   25 1   
    45   24   57 1   
    46   24   58 1   
    47   25   60 1   
    48   26   27 1   
    49   26   31 1   
    50   27   28 1   
    51   27   32 1   
    52   27   61 1   
    53   28   29 1   
    54   28   62 1   
    55   28   63 1   
    56   29   30 1   
    57   29   35 1   
    58   29   64 1   
    59   30   31 1   
    60   30   65 1   
    61   30   66 1   
    62   31   67 1   
    63   31   68 1   
    64   32   33 1   
    65   32   34 1   
    66   35   69 1   
    67   35   70 1   
    68   35   71 1   
@<TRIPOS>SUBSTRUCTURE
     1 MIT         1 TEMP              0 ****  ****    0 ROOT
