@<TRIPOS>MOLECULE
MIU
   66    67     1     0     0
SMALL
bcc


@<TRIPOS>ATOM
      1 C1         -0.1450   -3.1160    0.0290 ca        1 MIU     -0.378500
      2 S11        -1.2760   -2.4690   -1.0560 sy        1 MIU      1.517200
      3 O24        -0.5980   -2.1180   -2.2440 o         1 MIU     -0.650300
      4 O25        -2.3430   -3.3830   -1.1590 o         1 MIU     -0.650300
      5 C2         -0.5570   -3.9670    1.0620 ca        1 MIU      0.013000
      6 C3          0.3650   -4.5140    1.9520 ca        1 MIU     -0.156000
      7 C4          1.7210   -4.2180    1.8190 ca        1 MIU     -0.022000
      8 C5          2.1430   -3.3780    0.7840 ca        1 MIU     -0.195300
      9 C6          3.6260   -3.0680    0.6190 c3        1 MIU      0.690200
     10 F61         4.3430   -3.0830    1.7910 f         1 MIU     -0.234967
     11 F1          4.2980   -3.9450   -0.1960 f         1 MIU     -0.234967
     12 F6          3.8920   -1.8330    0.0780 f         1 MIU     -0.234967
     13 C10         1.2180   -2.8330   -0.1060 ca        1 MIU      0.029000
     14 N12        -1.7920   -1.1370   -0.3050 n3        1 MIU     -0.907100
     15 C13        -1.3560    0.2020   -0.5950 c3        1 MIU      0.186500
     16 C14        -0.7970    0.8970    0.6760 c         1 MIU      0.644100
     17 O15        -1.1700    0.5260    1.8090 o         1 MIU     -0.616100
     18 C16        -2.4630    1.0970   -1.1790 c3        1 MIU     -0.088400
     19 C17        -3.6770    1.2080   -0.2840 c3        1 MIU     -0.105400
     20 C18        -4.6230    2.2860   -0.8220 c3        1 MIU      0.137800
     21 N19        -5.7670    2.5810   -0.0180 n2        1 MIU     -0.717900
     22 C20        -6.8220    1.7900    0.0280 c2        1 MIU      0.748100
     23 N22        -7.9930    2.2520    0.7210 nh        1 MIU     -0.904300
     24 N21        -6.9260    0.4860   -0.5420 nh        1 MIU     -0.904300
     25 N26         0.0920    1.9450    0.5520 n         1 MIU     -0.468800
     26 C27         0.6280    2.5900    1.7330 c3        1 MIU      0.090000
     27 C28         2.1610    2.7550    1.6860 c3        1 MIU      0.149300
     28 N29         2.6320    3.3520    0.4430 n3        1 MIU     -0.728600
     29 C30         2.1040    2.6720   -0.7300 c3        1 MIU      0.149300
     30 C31         0.5690    2.4980   -0.6910 c3        1 MIU      0.090000
     31 C32         4.0850    3.4700    0.4260 c3        1 MIU      0.168800
     32 C33         4.6240    4.2900   -0.7450 c3        1 MIU     -0.085400
     33 C8          6.1140    4.5510   -0.5230 c3        1 MIU      0.158800
     34 N9          6.7370    5.2450   -1.6250 n3        1 MIU     -0.915800
     35 H2         -1.6290   -4.2180    1.1610 ha        1 MIU      0.160000
     36 H3          0.0250   -5.1800    2.7600 ha        1 MIU      0.152000
     37 H4          2.4590   -4.6380    2.5220 ha        1 MIU      0.156000
     38 H10         1.5650   -2.1820   -0.9300 ha        1 MIU      0.169000
     39 H12        -2.4140   -1.1730    0.4720 hn        1 MIU      0.467800
     40 H13        -0.5330    0.1150   -1.3700 h1        1 MIU      0.084700
     41 H161       -2.0230    2.1150   -1.3520 hc        1 MIU      0.055700
     42 H162       -2.7670    0.6890   -2.1790 hc        1 MIU      0.055700
     43 H171       -4.2090    0.2220   -0.2340 hc        1 MIU      0.060700
     44 H172       -3.3550    1.4660    0.7600 hc        1 MIU      0.060700
     45 H181       -4.0520    3.2600   -0.8730 h1        1 MIU      0.036200
     46 H182       -4.8990    2.0110   -1.8830 h1        1 MIU      0.036200
     47 H221       -7.8430    3.1270    1.1830 hn        1 MIU      0.395050
     48 H222       -8.3530    1.5670    1.3530 hn        1 MIU      0.395050
     49 H211       -6.3210    0.3400   -1.3210 hn        1 MIU      0.395050
     50 H212       -7.8540    0.1700   -0.7170 hn        1 MIU      0.395050
     51 H271        0.1510    3.6080    1.8280 h1        1 MIU      0.061700
     52 H272        0.3680    1.9870    2.6480 h1        1 MIU      0.061700
     53 H281        2.4510    3.4430    2.5290 h1        1 MIU      0.043200
     54 H282        2.6420    1.7520    1.8770 h1        1 MIU      0.043200
     55 H301        2.3440    3.3030   -1.6310 h1        1 MIU      0.043200
     56 H302        2.5800    1.6590   -0.8780 h1        1 MIU      0.043200
     57 H311        0.2830    1.8540   -1.5660 h1        1 MIU      0.061700
     58 H312        0.0870    3.5100   -0.8340 h1        1 MIU      0.061700
     59 H321        4.3850    3.9790    1.3870 h1        1 MIU      0.035200
     60 H322        4.5840    2.4560    0.4100 h1        1 MIU      0.035200
     61 H331        4.4770    3.7340   -1.7070 hc        1 MIU      0.054700
     62 H332        4.0710    5.2620   -0.8260 hc        1 MIU      0.054700
     63 H8C1        6.2310    5.1030    0.4580 h1        1 MIU      0.025200
     64 H8C2        6.6440    3.5620   -0.4090 h1        1 MIU      0.025200
     65 H9N1        6.2340    6.0770   -1.8580 hn        1 MIU      0.350300
     66 H9N2        7.6810    5.4830   -1.3960 hn        1 MIU      0.350300
@<TRIPOS>BOND
     1    1    2 1   
     2    1    5 ar  
     3    1   13 ar  
     4    2    3 2   
     5    2    4 2   
     6    2   14 1   
     7    5    6 ar  
     8    5   35 1   
     9    6    7 ar  
    10    6   36 1   
    11    7    8 ar  
    12    7   37 1   
    13    8    9 1   
    14    8   13 ar  
    15    9   10 1   
    16    9   11 1   
    17    9   12 1   
    18   13   38 1   
    19   14   15 1   
    20   14   39 1   
    21   15   16 1   
    22   15   18 1   
    23   15   40 1   
    24   16   17 2   
    25   16   25 1   
    26   18   19 1   
    27   18   41 1   
    28   18   42 1   
    29   19   20 1   
    30   19   43 1   
    31   19   44 1   
    32   20   21 1   
    33   20   45 1   
    34   20   46 1   
    35   21   22 2   
    36   22   23 1   
    37   22   24 1   
    38   23   47 1   
    39   23   48 1   
    40   24   49 1   
    41   24   50 1   
    42   25   26 1   
    43   25   30 1   
    44   26   27 1   
    45   26   51 1   
    46   26   52 1   
    47   27   28 1   
    48   27   53 1   
    49   27   54 1   
    50   28   29 1   
    51   28   31 1   
    52   29   30 1   
    53   29   55 1   
    54   29   56 1   
    55   30   57 1   
    56   30   58 1   
    57   31   32 1   
    58   31   59 1   
    59   31   60 1   
    60   32   33 1   
    61   32   61 1   
    62   32   62 1   
    63   33   34 1   
    64   33   63 1   
    65   33   64 1   
    66   34   65 1   
    67   34   66 1   
@<TRIPOS>SUBSTRUCTURE
     1 MIU         1 TEMP              0 ****  ****    0 ROOT
