@<TRIPOS>MOLECULE
MIX
   60    62     1     0     0
SMALL
bcc


@<TRIPOS>ATOM
      1 OAC         7.4570    4.5080    1.2430 oh        1 MIX     -0.599300
      2 CAK         7.8970    3.9900   -0.0030 c3        1 MIX      0.127400
      3 CAM         7.1880    2.6480   -0.2130 c3        1 MIX      0.164300
      4 NAS         5.7590    2.7920   -0.4080 n3        1 MIX     -0.819200
      5 CAO         5.0560    1.5270   -0.3370 c3        1 MIX      0.153800
      6 CAQ         3.5320    1.7180   -0.5120 c3        1 MIX      0.189800
      7 NAU         2.8250    0.4580   -0.4970 nh        1 MIX     -0.740600
      8 CAY         1.4410    0.4570   -0.3330 ca        1 MIX      0.179600
      9 CAI         0.6850    1.6230   -0.6560 ca        1 MIX     -0.137000
     10 CAJ        -0.6850    1.6260   -0.6150 ca        1 MIX     -0.137000
     11 CBE         0.7230   -0.7020    0.0450 ca        1 MIX     -0.170600
     12 CBA         1.4250   -1.9510    0.4020 c         1 MIX      0.615300
     13 OAA         2.5590   -1.9700    0.9150 o         1 MIX     -0.584600
     14 CBC         0.7140   -3.2120    0.1170 ca        1 MIX     -0.190600
     15 CAW         1.3910   -4.4010   -0.1710 ca        1 MIX      0.158100
     16 OAE         2.7510   -4.5470   -0.2220 oh        1 MIX     -0.499100
     17 CAG         0.6660   -5.5860   -0.4670 ca        1 MIX     -0.114000
     18 CAH        -0.7080   -5.5810   -0.4210 ca        1 MIX     -0.114000
     19 CAX        -1.4020   -4.3910   -0.0790 ca        1 MIX      0.158100
     20 OAF        -2.7640   -4.5270   -0.0400 oh        1 MIX     -0.499100
     21 CBD        -0.7000   -3.2070    0.1630 ca        1 MIX     -0.190600
     22 CBB        -1.3800   -1.9400    0.4930 c         1 MIX      0.615300
     23 OAB        -2.4790   -1.9500    1.0780 o         1 MIX     -0.584600
     24 CBF        -0.6930   -0.6970    0.0880 ca        1 MIX     -0.170600
     25 CAZ        -1.4260    0.4650   -0.2470 ca        1 MIX      0.179600
     26 NAV        -2.8190    0.4760   -0.3310 nh        1 MIX     -0.740600
     27 CAR        -3.5150    1.7400   -0.2610 c3        1 MIX      0.189800
     28 CAP        -5.0240    1.5530    0.0160 c3        1 MIX      0.153800
     29 NAT        -5.7120    2.8260    0.0760 n3        1 MIX     -0.819200
     30 CAN        -7.1320    2.6860    0.3200 c3        1 MIX      0.164300
     31 CAL        -7.8450    4.0190    0.5830 c3        1 MIX      0.127400
     32 OAD        -8.1140    4.6110   -0.6750 oh        1 MIX     -0.599300
     33 HAC         7.8570    5.3790    1.3390 ho        1 MIX      0.401000
     34 HAK1        7.6590    4.7110   -0.8290 h1        1 MIX      0.028200
     35 HAK2        9.0060    3.8150    0.0270 h1        1 MIX      0.028200
     36 HAM1        7.6150    2.1710   -1.1400 h1        1 MIX      0.042950
     37 HAM2        7.4360    1.9830    0.6660 h1        1 MIX      0.042950
     38 HAS         5.3840    3.4450    0.2570 hn        1 MIX      0.362800
     39 HAO1        5.4450    0.8740   -1.1690 h1        1 MIX      0.039450
     40 HAO2        5.2480    0.9840    0.6360 h1        1 MIX      0.039450
     41 HAQ1        3.1530    2.4070    0.2990 h1        1 MIX      0.046450
     42 HAQ2        3.3360    2.2150   -1.5060 h1        1 MIX      0.046450
     43 HAU         3.3150   -0.2770   -0.0300 hn        1 MIX      0.430800
     44 HAI         1.2050    2.5480   -0.9540 ha        1 MIX      0.145000
     45 HAJ        -1.2170    2.5540   -0.8830 ha        1 MIX      0.145000
     46 HAE         3.1800   -3.7380    0.0990 ho        1 MIX      0.451500
     47 HAG         1.2300   -6.4980   -0.7180 ha        1 MIX      0.161000
     48 HAH        -1.2930   -6.4890   -0.6350 ha        1 MIX      0.161000
     49 HAF        -3.1650   -3.7140    0.3050 ho        1 MIX      0.451500
     50 HAV        -3.2830   -0.2700    0.1470 hn        1 MIX      0.430800
     51 HAR1       -3.0710    2.4040    0.5380 h1        1 MIX      0.046450
     52 HAR2       -3.3890    2.2630   -1.2520 h1        1 MIX      0.046450
     53 HAP1       -5.4820    0.9560   -0.8230 h1        1 MIX      0.039450
     54 HAP2       -5.1540    0.9530    0.9670 h1        1 MIX      0.039450
     55 HAT        -5.2880    3.4280    0.7570 hn        1 MIX      0.362800
     56 HAN1       -7.5880    2.2170   -0.5990 h1        1 MIX      0.042950
     57 HAN2       -7.3490    2.0110    1.2000 h1        1 MIX      0.042950
     58 HAL1       -8.8150    3.8110    1.1120 h1        1 MIX      0.028200
     59 HAL2       -7.2270    4.7060    1.2200 h1        1 MIX      0.028200
     60 HAD        -8.4290    5.5050   -0.4990 ho        1 MIX      0.401000
@<TRIPOS>BOND
     1    1    2 1   
     2    1   33 1   
     3    2    3 1   
     4    2   34 1   
     5    2   35 1   
     6    3    4 1   
     7    3   36 1   
     8    3   37 1   
     9    4    5 1   
    10    4   38 1   
    11    5    6 1   
    12    5   39 1   
    13    5   40 1   
    14    6    7 1   
    15    6   41 1   
    16    6   42 1   
    17    7    8 1   
    18    7   43 1   
    19    8    9 ar  
    20    8   11 ar  
    21    9   10 ar  
    22    9   44 1   
    23   10   25 ar  
    24   10   45 1   
    25   11   12 1   
    26   11   24 ar  
    27   12   13 2   
    28   12   14 1   
    29   14   15 ar  
    30   14   21 ar  
    31   15   16 1   
    32   15   17 ar  
    33   16   46 1   
    34   17   18 ar  
    35   17   47 1   
    36   18   19 ar  
    37   18   48 1   
    38   19   20 1   
    39   19   21 ar  
    40   20   49 1   
    41   21   22 1   
    42   22   23 2   
    43   22   24 1   
    44   24   25 ar  
    45   25   26 1   
    46   26   27 1   
    47   26   50 1   
    48   27   28 1   
    49   27   51 1   
    50   27   52 1   
    51   28   29 1   
    52   28   53 1   
    53   28   54 1   
    54   29   30 1   
    55   29   55 1   
    56   30   31 1   
    57   30   56 1   
    58   30   57 1   
    59   31   32 1   
    60   31   58 1   
    61   31   59 1   
    62   32   60 1   
@<TRIPOS>SUBSTRUCTURE
     1 MIX         1 TEMP              0 ****  ****    0 ROOT
