@<TRIPOS>MOLECULE
MIX
   62    64     1     0     0
SMALL
bcc


@<TRIPOS>ATOM
      1 OAC         0.0850    1.3370    1.6620 oh        1 MIX     -0.634300
      2 CAK         0.9650    0.8510    0.6660 c3        1 MIX      0.108400
      3 CAM         2.1030    0.1180    1.3900 c3        1 MIX      0.097300
      4 NAS         1.5870   -0.8620    2.3930 ny        1 MIX     -0.755500
      5 CAO         2.6900   -1.5550    3.1150 c3        1 MIX      0.095300
      6 CAQ         2.1460   -2.5510    4.1650 c3        1 MIX      0.150300
      7 NAU         3.2500   -3.1100    4.9260 nu        1 MIX     -0.692600
      8 CAY         2.8720   -4.1380    5.8400 ca        1 MIX      0.117100
      9 CAI         2.8100   -5.4680    5.3700 ca        1 MIX     -0.094500
     10 CAJ         2.5960   -6.5220    6.2440 ca        1 MIX     -0.094500
     11 CBE         2.6560   -3.8960    7.2160 ca        1 MIX     -0.143600
     12 CBA         2.6500   -2.5070    7.7530 c         1 MIX      0.606300
     13 OAA         2.2950   -1.5490    7.0550 o         1 MIX     -0.535100
     14 CBC         3.0770   -2.3690    9.1550 ca        1 MIX     -0.147600
     15 CAW         3.6790   -1.1930    9.6240 ca        1 MIX      0.155600
     16 OAE         3.9020   -0.1900    8.7170 oh        1 MIX     -0.477100
     17 CAG         4.0640   -1.0760   10.9800 ca        1 MIX     -0.141000
     18 CAH         3.8530   -2.1250   11.8500 ca        1 MIX     -0.141000
     19 CAX         3.2520   -3.3180   11.3850 ca        1 MIX      0.155600
     20 OAF         3.0550   -4.3980   12.2070 oh        1 MIX     -0.477100
     21 CBD         2.8610   -3.4430   10.0450 ca        1 MIX     -0.147600
     22 CBB         2.2170   -4.6670    9.5430 c         1 MIX      0.606300
     23 OAB         1.5210   -5.4060   10.2520 o         1 MIX     -0.535100
     24 CBF         2.4410   -4.9640    8.1010 ca        1 MIX     -0.143600
     25 CAZ         2.4360   -6.2960    7.6280 ca        1 MIX      0.117100
     26 NAV         2.3750   -7.4250    8.4980 nu        1 MIX     -0.692600
     27 CAR         1.0400   -7.9680    8.6790 c3        1 MIX      0.150300
     28 CAP         1.1150   -9.2700    9.5090 c3        1 MIX      0.095300
     29 NAT        -0.2410   -9.7510    9.8960 ny        1 MIX     -0.755500
     30 CAN        -0.1810  -11.0120   10.6960 c3        1 MIX      0.097300
     31 CAL        -1.5810  -11.5510   11.0230 c3        1 MIX      0.108400
     32 OAD        -2.2990  -11.6000    9.8040 oh        1 MIX     -0.634300
     33 HAC        -0.3640    2.1190    1.3120 ho        1 MIX      0.458000
     34 HAK1        1.4170    1.6810    0.0590 h1        1 MIX      0.078950
     35 HAK2        0.4040    0.1540   -0.0140 h1        1 MIX      0.078950
     36 HAM1        2.7350   -0.4310    0.6370 hx        1 MIX      0.115200
     37 HAM2        2.7440    0.8650    1.9420 hx        1 MIX      0.115200
     38 HAS         0.9940   -0.3490    3.0650 hn        1 MIX      0.461550
     39 HAO1        3.3230   -2.0990    2.3560 hx        1 MIX      0.115200
     40 HAO2        3.3230   -0.7660    3.6140 hx        1 MIX      0.115200
     41 HAQ1        1.6160   -3.3980    3.6430 h1        1 MIX      0.065700
     42 HAQ2        1.4030   -2.0190    4.8320 h1        1 MIX      0.065700
     43 HAU         3.7370   -2.3740    5.4160 hn        1 MIX      0.397300
     44 HAI         2.9630   -5.6790    4.2980 ha        1 MIX      0.160500
     45 HAJ         2.5830   -7.5530    5.8510 ha        1 MIX      0.160500
     46 HAE         4.2680    0.5740    9.1920 ho        1 MIX      0.438500
     47 HAG         4.5310   -0.1420   11.3350 ha        1 MIX      0.163500
     48 HAH         4.1490   -2.0410   12.9080 ha        1 MIX      0.163500
     49 HAF         3.3250   -4.1490   13.1060 ho        1 MIX      0.438500
     50 HAV         2.7750   -7.1900    9.3940 hn        1 MIX      0.397300
     51 HAR1        0.6130   -8.1970    7.6620 h1        1 MIX      0.065700
     52 HAR2        0.3550   -7.2310    9.1980 h1        1 MIX      0.065700
     53 HAP1        1.6210  -10.0800    8.9100 hx        1 MIX      0.115200
     54 HAP2        1.7020   -9.1030   10.4580 hx        1 MIX      0.115200
     55 HAT        -0.8050   -9.9340    9.0520 hn        1 MIX      0.461550
     56 HAN1        0.3850  -11.7750   10.0880 hx        1 MIX      0.115200
     57 HAN2        0.3770  -10.8090   11.6530 hx        1 MIX      0.115200
     58 HAL1       -1.4620  -12.5680   11.4830 h1        1 MIX      0.078950
     59 HAL2       -2.1170  -10.8740   11.7430 h1        1 MIX      0.078950
     60 HAD        -2.9940  -12.2650    9.8920 ho        1 MIX      0.458000
     61 HAS2        0.9920   -1.5500    1.9200 hn        1 MIX      0.461550
     62 HAT2       -0.7240   -9.0260   10.4400 hn        1 MIX      0.461550
@<TRIPOS>BOND
     1    1    2 1   
     2    1   33 1   
     3    2    3 1   
     4    2   34 1   
     5    2   35 1   
     6    3    4 1   
     7    3   36 1   
     8    3   37 1   
     9    4    5 1   
    10    4   38 1   
    11    4   61 1   
    12    5    6 1   
    13    5   39 1   
    14    5   40 1   
    15    6    7 1   
    16    6   41 1   
    17    6   42 1   
    18    7    8 1   
    19    7   43 1   
    20    8    9 ar  
    21    8   11 ar  
    22    9   10 ar  
    23    9   44 1   
    24   10   25 ar  
    25   10   45 1   
    26   11   12 1   
    27   11   24 ar  
    28   12   13 2   
    29   12   14 1   
    30   14   15 ar  
    31   14   21 ar  
    32   15   16 1   
    33   15   17 ar  
    34   16   46 1   
    35   17   18 ar  
    36   17   47 1   
    37   18   19 ar  
    38   18   48 1   
    39   19   20 1   
    40   19   21 ar  
    41   20   49 1   
    42   21   22 1   
    43   22   23 2   
    44   22   24 1   
    45   24   25 ar  
    46   25   26 1   
    47   26   27 1   
    48   26   50 1   
    49   27   28 1   
    50   27   51 1   
    51   27   52 1   
    52   28   29 1   
    53   28   53 1   
    54   28   54 1   
    55   29   30 1   
    56   29   55 1   
    57   29   62 1   
    58   30   31 1   
    59   30   56 1   
    60   30   57 1   
    61   31   32 1   
    62   31   58 1   
    63   31   59 1   
    64   32   60 1   
@<TRIPOS>SUBSTRUCTURE
     1 MIX         1 TEMP              0 ****  ****    0 ROOT
