@<TRIPOS>MOLECULE
MIX
   62    64     1     0     0
SMALL
bcc


@<TRIPOS>ATOM
      1 OAC         0.1220    1.2980    1.6110 oh        1 MIX     -0.634300
      2 CAK         1.0060    0.8050    0.6230 c3        1 MIX      0.108400
      3 CAM         2.1400    0.0760    1.3580 c3        1 MIX      0.097300
      4 NAS         1.6170   -0.8960    2.3660 n4        1 MIX     -0.755500
      5 CAO         2.7160   -1.5860    3.0980 c3        1 MIX      0.095300
      6 CAQ         2.1650   -2.5740    4.1520 c3        1 MIX      0.150300
      7 NAU         3.2650   -3.1290    4.9230 nh        1 MIX     -0.692600
      8 CAY         2.8810   -4.1500    5.8420 ca        1 MIX      0.117100
      9 CAI         2.8190   -5.4830    5.3800 ca        1 MIX     -0.094500
     10 CAJ         2.6000   -6.5310    6.2600 ca        1 MIX     -0.094500
     11 CBE         2.6590   -3.8990    7.2150 ca        1 MIX     -0.143600
     12 CBA         2.6520   -2.5060    7.7430 c         1 MIX      0.606300
     13 OAA         2.3020   -1.5520    7.0360 o         1 MIX     -0.535100
     14 CBC         3.0720   -2.3590    9.1460 ca        1 MIX     -0.147600
     15 CAW         3.6740   -1.1810    9.6100 ca        1 MIX      0.155600
     16 OAE         3.9030   -0.1840    8.6970 oh        1 MIX     -0.477100
     17 CAG         4.0520   -1.0550   10.9670 ca        1 MIX     -0.141000
     18 CAH         3.8350   -2.0980   11.8420 ca        1 MIX     -0.141000
     19 CAX         3.2350   -3.2940   11.3830 ca        1 MIX      0.155600
     20 OAF         3.0320   -4.3670   12.2110 oh        1 MIX     -0.477100
     21 CBD         2.8500   -3.4270   10.0420 ca        1 MIX     -0.147600
     22 CBB         2.2060   -4.6530    9.5440 c         1 MIX      0.606300
     23 OAB         1.5060   -5.3870   10.2550 o         1 MIX     -0.535100
     24 CBF         2.4370   -4.9610    8.1060 ca        1 MIX     -0.143600
     25 CAZ         2.4320   -6.2950    7.6410 ca        1 MIX      0.117100
     26 NAV         2.3660   -7.4180    8.5200 nh        1 MIX     -0.692600
     27 CAR         1.0280   -7.9570    8.6980 c3        1 MIX      0.150300
     28 CAP         1.0960   -9.2530    9.5390 c3        1 MIX      0.095300
     29 NAT        -0.2630   -9.7280    9.9230 n4        1 MIX     -0.755500
     30 CAN        -0.2090  -10.9820   10.7330 c3        1 MIX      0.097300
     31 CAL        -1.6120  -11.5140   11.0600 c3        1 MIX      0.108400
     32 OAD        -2.3250  -11.5710    9.8380 oh        1 MIX     -0.634300
     33 HAC        -0.3240    2.0790    1.2530 ho        1 MIX      0.458000
     34 HAK1        0.4480    0.1030   -0.0550 h1        1 MIX      0.078950
     35 HAK2        1.4620    1.6300    0.0130 h1        1 MIX      0.078950
     36 HAM1        2.7750   -0.4790    0.6120 hx        1 MIX      0.115200
     37 HAM2        2.7780    0.8260    1.9080 hx        1 MIX      0.115200
     38 HAS         1.0220   -0.3780    3.0310 hn        1 MIX      0.461550
     39 HAO1        3.3530   -2.1350    2.3460 hx        1 MIX      0.115200
     40 HAO2        3.3480   -0.7940    3.5950 hx        1 MIX      0.115200
     41 HAQ1        1.6370   -3.4230    3.6340 h1        1 MIX      0.065700
     42 HAQ2        1.4200   -2.0350    4.8110 h1        1 MIX      0.065700
     43 HAU         3.7500   -2.3900    5.4100 hn        1 MIX      0.397300
     44 HAI         2.9770   -5.7020    4.3110 ha        1 MIX      0.160500
     45 HAJ         2.5870   -7.5640    5.8740 ha        1 MIX      0.160500
     46 HAE         4.2680    0.5820    9.1680 ho        1 MIX      0.438500
     47 HAG         4.5190   -0.1200   11.3170 ha        1 MIX      0.163500
     48 HAH         4.1260   -2.0070   12.9020 ha        1 MIX      0.163500
     49 HAF         3.2970   -4.1140   13.1100 ho        1 MIX      0.438500
     50 HAV         2.7610   -7.1780    9.4160 hn        1 MIX      0.397300
     51 HAR1        0.6050   -8.1930    7.6800 h1        1 MIX      0.065700
     52 HAR2        0.3430   -7.2150    9.2080 h1        1 MIX      0.065700
     53 HAP1        1.6030  -10.0690    8.9470 hx        1 MIX      0.115200
     54 HAP2        1.6800   -9.0800   10.4880 hx        1 MIX      0.115200
     55 HAT        -0.7460   -8.9970   10.4590 hn        1 MIX      0.461550
     56 HAN1        0.3450  -10.7730   11.6910 hx        1 MIX      0.115200
     57 HAN2        0.3570  -11.7520   10.1340 hx        1 MIX      0.115200
     58 HAL1       -1.4980  -12.5280   11.5280 h1        1 MIX      0.078950
     59 HAL2       -2.1490  -10.8300   11.7720 h1        1 MIX      0.078950
     60 HAD        -3.0230  -12.2340    9.9290 ho        1 MIX      0.458000
     61 HAS2        1.0240   -1.5870    1.8940 hn        1 MIX      0.461550
     62 HAT2       -0.8240   -9.9160    9.0790 hn        1 MIX      0.461550
@<TRIPOS>BOND
     1    1    2 1   
     2    1   33 1   
     3    2    3 1   
     4    2   34 1   
     5    2   35 1   
     6    3    4 1   
     7    3   36 1   
     8    3   37 1   
     9    4    5 1   
    10    4   38 1   
    11    4   61 1   
    12    5    6 1   
    13    5   39 1   
    14    5   40 1   
    15    6    7 1   
    16    6   41 1   
    17    6   42 1   
    18    7    8 1   
    19    7   43 1   
    20    8    9 ar  
    21    8   11 ar  
    22    9   10 ar  
    23    9   44 1   
    24   10   25 ar  
    25   10   45 1   
    26   11   12 1   
    27   11   24 ar  
    28   12   13 2   
    29   12   14 1   
    30   14   15 ar  
    31   14   21 ar  
    32   15   16 1   
    33   15   17 ar  
    34   16   46 1   
    35   17   18 ar  
    36   17   47 1   
    37   18   19 ar  
    38   18   48 1   
    39   19   20 1   
    40   19   21 ar  
    41   20   49 1   
    42   21   22 1   
    43   22   23 2   
    44   22   24 1   
    45   24   25 ar  
    46   25   26 1   
    47   26   27 1   
    48   26   50 1   
    49   27   28 1   
    50   27   51 1   
    51   27   52 1   
    52   28   29 1   
    53   28   53 1   
    54   28   54 1   
    55   29   30 1   
    56   29   55 1   
    57   29   62 1   
    58   30   31 1   
    59   30   56 1   
    60   30   57 1   
    61   31   32 1   
    62   31   58 1   
    63   31   59 1   
    64   32   60 1   
@<TRIPOS>SUBSTRUCTURE
     1 MIX         1 TEMP              0 ****  ****    0 ROOT
