@<TRIPOS>MOLECULE
MIX
   64    66     1     0     0
SMALL
bcc


@<TRIPOS>ATOM
      1 OAC        -0.1410   -0.1650    0.1340 oh        1 MIX     -0.653800
      2 CAK         1.2150    0.1230   -0.1470 c3        1 MIX      0.110400
      3 CAM         1.9650    0.0670    1.1960 c3        1 MIX      0.099800
      4 NAS         1.6280   -1.2010    1.9460 n4        1 MIX     -0.762000
      5 CAO         2.1880   -1.1990    3.3190 c3        1 MIX      0.076800
      6 CAQ         1.7870   -2.4520    4.1430 c3        1 MIX      0.084800
      7 NAU         2.3620   -2.3800    5.5150 n4        1 MIX     -0.645400
      8 CAY         2.0740   -3.4870    6.4460 ca        1 MIX      0.036600
      9 CAI         1.2820   -4.5680    6.0480 ca        1 MIX     -0.080000
     10 CAJ         1.0140   -5.6110    6.9380 ca        1 MIX     -0.080000
     11 CBE         2.6170   -3.4390    7.7660 ca        1 MIX     -0.065600
     12 CBA         3.4720   -2.2770    8.2040 c         1 MIX      0.608300
     13 OAA         3.6900   -1.3620    7.3840 o         1 MIX     -0.577100
     14 CBC         4.0030   -2.2640    9.5440 ca        1 MIX     -0.200600
     15 CAW         4.8010   -1.1870    9.9660 ca        1 MIX      0.243100
     16 OAE         5.0370   -0.1960    9.0760 oh        1 MIX     -0.439100
     17 CAG         5.3400   -1.1550   11.2950 ca        1 MIX     -0.112000
     18 CAH         5.0790   -2.1730   12.1640 ca        1 MIX     -0.112000
     19 CAX         4.2660   -3.2800   11.7510 ca        1 MIX      0.243100
     20 OAF         3.9850   -4.3100   12.5830 oh        1 MIX     -0.439100
     21 CBD         3.7300   -3.3290   10.4520 ca        1 MIX     -0.200600
     22 CBB         2.9160   -4.4520   10.0580 c         1 MIX      0.608300
     23 OAB         2.6580   -5.4000   10.8250 o         1 MIX     -0.577100
     24 CBF         2.3480   -4.4890    8.6610 ca        1 MIX     -0.065600
     25 CAZ         1.5360   -5.5840    8.2340 ca        1 MIX      0.036600
     26 NAV         1.2610   -6.6800    9.1820 n4        1 MIX     -0.645400
     27 CAR         0.4110   -7.8100    8.7160 c3        1 MIX      0.084800
     28 CAP         0.2440   -8.8660    9.8420 c3        1 MIX      0.076800
     29 NAT        -0.5790  -10.0300    9.4320 n4        1 MIX     -0.762000
     30 CAN        -0.6550  -11.0780   10.5180 c3        1 MIX      0.099800
     31 CAL        -1.3470  -12.3510   10.0000 c3        1 MIX      0.110400
     32 OAD        -0.7240  -12.6820    8.7750 oh        1 MIX     -0.653800
     33 HAC        -0.6940    0.2810   -0.5260 ho        1 MIX      0.483000
     34 HAK1        1.6150   -0.6410   -0.8690 h1        1 MIX      0.102700
     35 HAK2        1.3570    1.1540   -0.5740 h1        1 MIX      0.102700
     36 HAM1        3.0760    0.1000    1.0150 hx        1 MIX      0.125200
     37 HAM2        1.6510    0.9380    1.8390 hx        1 MIX      0.125200
     38 HAS         0.5950   -1.2680    1.9690 hn        1 MIX      0.476300
     39 HAO1        3.3150   -1.1330    3.2310 hx        1 MIX      0.136700
     40 HAO2        1.8210   -0.2610    3.8380 hx        1 MIX      0.136700
     41 HAQ1        2.1730   -3.3870    3.6420 hx        1 MIX      0.126200
     42 HAQ2        0.6620   -2.5140    4.2300 hx        1 MIX      0.126200
     43 HAU         3.4020   -2.2990    5.4570 hn        1 MIX      0.499800
     44 HAI         0.8450   -4.6410    5.0350 ha        1 MIX      0.184000
     45 HAJ         0.3820   -6.4400    6.5720 ha        1 MIX      0.184000
     46 HAE         5.6010    0.4900    9.4850 ho        1 MIX      0.475000
     47 HAG         5.9650   -0.2930   11.6000 ha        1 MIX      0.202000
     48 HAH         5.4870   -2.1620   13.1930 ha        1 MIX      0.202000
     49 HAF         4.4110   -4.1610   13.4500 ho        1 MIX      0.475000
     50 HAV         2.1870   -7.0420    9.4980 hn        1 MIX      0.499800
     51 HAR1       -0.5980   -7.3990    8.4150 hx        1 MIX      0.126200
     52 HAR2        0.9040   -8.2810    7.8150 hx        1 MIX      0.126200
     53 HAP1        1.2590   -9.2570   10.1580 hx        1 MIX      0.136700
     54 HAP2       -0.2490   -8.3970   10.7470 hx        1 MIX      0.136700
     55 HAT        -1.5350   -9.7350    9.1950 hn        1 MIX      0.476300
     56 HAN1       -1.2290  -10.6590   11.3920 hx        1 MIX      0.125200
     57 HAN2        0.4000  -11.3240   10.8310 hx        1 MIX      0.125200
     58 HAL1       -2.4440  -12.1760    9.8240 h1        1 MIX      0.102700
     59 HAL2       -1.2160  -13.1520   10.7800 h1        1 MIX      0.102700
     60 HAD        -0.7800  -13.6420    8.6490 ho        1 MIX      0.483000
     61 HAS2        1.9840   -2.0020    1.4090 hn        1 MIX      0.476300
     62 HAU2        2.0460   -1.5030    5.9850 hn        1 MIX      0.499800
     63 HAV2        0.8340   -6.2440   10.0290 hn        1 MIX      0.499800
     64 HAT2       -0.1730  -10.4920    8.5990 hn        1 MIX      0.476300
@<TRIPOS>BOND
     1    1    2 1   
     2    1   33 1   
     3    2    3 1   
     4    2   34 1   
     5    2   35 1   
     6    3    4 1   
     7    3   36 1   
     8    3   37 1   
     9    4    5 1   
    10    4   38 1   
    11    4   61 1   
    12    5    6 1   
    13    5   39 1   
    14    5   40 1   
    15    6    7 1   
    16    6   41 1   
    17    6   42 1   
    18    7    8 1   
    19    7   43 1   
    20    7   62 1   
    21    8    9 ar  
    22    8   11 ar  
    23    9   10 ar  
    24    9   44 1   
    25   10   25 ar  
    26   10   45 1   
    27   11   12 1   
    28   11   24 ar  
    29   12   13 2   
    30   12   14 1   
    31   14   15 ar  
    32   14   21 ar  
    33   15   16 1   
    34   15   17 ar  
    35   16   46 1   
    36   17   18 ar  
    37   17   47 1   
    38   18   19 ar  
    39   18   48 1   
    40   19   20 1   
    41   19   21 ar  
    42   20   49 1   
    43   21   22 1   
    44   22   23 2   
    45   22   24 1   
    46   24   25 ar  
    47   25   26 1   
    48   26   27 1   
    49   26   50 1   
    50   26   63 1   
    51   27   28 1   
    52   27   51 1   
    53   27   52 1   
    54   28   29 1   
    55   28   53 1   
    56   28   54 1   
    57   29   30 1   
    58   29   55 1   
    59   29   64 1   
    60   30   31 1   
    61   30   56 1   
    62   30   57 1   
    63   31   32 1   
    64   31   58 1   
    65   31   59 1   
    66   32   60 1   
@<TRIPOS>SUBSTRUCTURE
     1 MIX         1 TEMP              0 ****  ****    0 ROOT
