@<TRIPOS>MOLECULE
MIY
   60    63     1     0     0
SMALL
bcc


@<TRIPOS>ATOM
      1 O8        168.4210  125.1300   24.9350 o         1 MIY     -0.683100
      2 C21       169.4080  125.6590   25.5150 c         1 MIY      0.697300
      3 N2        170.1910  126.5290   24.8100 n         1 MIY     -0.647000
      4 C2        169.6880  125.3690   26.9390 ce        1 MIY     -0.414400
      5 C1        170.7590  126.0690   27.6500 c         1 MIY      0.588300
      6 O1        171.8170  126.4340   27.1240 o         1 MIY     -0.535100
      7 C3        168.9740  124.4160   27.6190 c2        1 MIY      0.268900
      8 O2        167.9970  123.6290   27.1380 oh        1 MIY     -0.474100
      9 C4        169.1960  124.1560   29.1060 c3        1 MIY      0.215700
     10 N1        170.1590  123.0920   29.3590 n3        1 MIY     -0.730600
     11 C20       170.5280  122.9710   30.7520 c3        1 MIY      0.151600
     12 C19       171.2880  123.0180   28.4620 c3        1 MIY      0.151600
     13 C5        169.4160  125.5320   29.7790 c3        1 MIY     -0.084700
     14 C18       170.5890  126.3020   29.1660 c3        1 MIY      0.116000
     15 O7        171.7630  125.8200   29.8180 oh        1 MIY     -0.586800
     16 C17       170.4930  127.8040   29.4290 c2        1 MIY      0.169900
     17 O6        171.6680  128.3780   29.0530 oh        1 MIY     -0.500100
     18 C16       169.4300  128.4330   29.9980 ce        1 MIY     -0.305400
     19 C7        168.2300  127.6550   30.4190 c3        1 MIY      0.001500
     20 C6        168.1250  126.3290   29.6860 c3        1 MIY     -0.082400
     21 C15       169.4160  129.8700   30.2930 c         1 MIY      0.623900
     22 O5        170.3950  130.5930   30.0010 o         1 MIY     -0.629100
     23 C14       168.2310  130.4470   30.9530 ca        1 MIY     -0.244600
     24 C9        166.9960  129.7630   30.8950 ca        1 MIY      0.010700
     25 C8        166.9510  128.4520   30.1920 c3        1 MIY     -0.041100
     26 C13       168.2990  131.6850   31.6200 ca        1 MIY      0.199100
     27 O4        169.4180  132.4540   31.7710 oh        1 MIY     -0.502100
     28 C12       167.1470  132.2300   32.2270 ca        1 MIY     -0.174000
     29 C11       165.9420  131.5650   32.1380 ca        1 MIY     -0.094000
     30 C10       165.8350  130.3230   31.4670 ca        1 MIY      0.049600
     31 N7        164.5930  129.6140   31.4000 nh        1 MIY     -0.633000
     32 CN7       163.9080  129.7620   30.1330 c3        1 MIY      0.163600
     33 C71       163.7260  129.7960   32.5410 c3        1 MIY      0.163600
     34 HN21      171.0330  126.8920   25.1840 hn        1 MIY      0.326500
     35 HN22      169.9880  126.6750   23.8510 hn        1 MIY      0.326500
     36 HO2       167.8290  123.7910   26.1860 ho        1 MIY      0.485000
     37 H4        168.2180  123.7490   29.5220 h1        1 MIY      0.093700
     38 H201      171.0160  121.9700   30.8930 h1        1 MIY      0.042033
     39 H202      169.6060  123.0130   31.3890 h1        1 MIY      0.042033
     40 H203      171.2440  123.7720   31.0900 h1        1 MIY      0.042033
     41 H191      171.9170  122.1350   28.7520 h1        1 MIY      0.042033
     42 H192      171.9370  123.9380   28.4780 h1        1 MIY      0.042033
     43 H193      170.9100  122.8590   27.4170 h1        1 MIY      0.042033
     44 H5        169.6580  125.3640   30.8670 hc        1 MIY      0.094700
     45 HO7       172.5210  126.2720   29.4150 ho        1 MIY      0.440000
     46 HO6       171.6610  129.3400   29.2020 ho        1 MIY      0.472000
     47 H7        168.3270  127.4480   31.5260 hc        1 MIY      0.066700
     48 H61       167.2880  125.7310   30.1360 hc        1 MIY      0.059200
     49 H62       167.8690  126.5120   28.6090 hc        1 MIY      0.059200
     50 H81       166.0860  127.8290   30.5430 hc        1 MIY      0.070700
     51 H82       166.8070  128.6370   29.0920 hc        1 MIY      0.070700
     52 HO4       170.1670  132.0690   31.2900 ho        1 MIY      0.457000
     53 H12       167.2310  133.1920   32.7540 ha        1 MIY      0.157000
     54 H11       165.0500  132.0160   32.6030 ha        1 MIY      0.140000
     55 HN71      163.0680  129.0190   30.0990 h1        1 MIY      0.036533
     56 HN72      164.6260  129.5410   29.3000 h1        1 MIY      0.036533
     57 HN73      163.4830  130.7910   29.9780 h1        1 MIY      0.036533
     58 H711      162.9660  128.9710   32.5280 h1        1 MIY      0.036533
     59 H712      163.1790  130.7790   32.5370 h1        1 MIY      0.036533
     60 H713      164.3270  129.7220   33.4850 h1        1 MIY      0.036533
@<TRIPOS>BOND
     1    1    2 2   
     2    2    3 1   
     3    2    4 1   
     4    3   34 1   
     5    3   35 1   
     6    4    5 1   
     7    4    7 2   
     8    5    6 2   
     9    5   14 1   
    10    7    8 1   
    11    7    9 1   
    12    8   36 1   
    13    9   10 1   
    14    9   13 1   
    15    9   37 1   
    16   10   11 1   
    17   10   12 1   
    18   11   38 1   
    19   11   39 1   
    20   11   40 1   
    21   12   41 1   
    22   12   42 1   
    23   12   43 1   
    24   13   14 1   
    25   13   20 1   
    26   13   44 1   
    27   14   15 1   
    28   14   16 1   
    29   15   45 1   
    30   16   17 1   
    31   16   18 2   
    32   17   46 1   
    33   18   19 1   
    34   18   21 1   
    35   19   20 1   
    36   19   25 1   
    37   19   47 1   
    38   20   48 1   
    39   20   49 1   
    40   21   22 2   
    41   21   23 1   
    42   23   24 ar  
    43   23   26 ar  
    44   24   25 1   
    45   24   30 ar  
    46   25   50 1   
    47   25   51 1   
    48   26   27 1   
    49   26   28 ar  
    50   27   52 1   
    51   28   29 ar  
    52   28   53 1   
    53   29   30 ar  
    54   29   54 1   
    55   30   31 1   
    56   31   32 1   
    57   31   33 1   
    58   32   55 1   
    59   32   56 1   
    60   32   57 1   
    61   33   58 1   
    62   33   59 1   
    63   33   60 1   
@<TRIPOS>SUBSTRUCTURE
     1 MIY         1 TEMP              0 ****  ****    0 ROOT
