@<TRIPOS>MOLECULE
MIY
   62    65     1     0     0
SMALL
bcc


@<TRIPOS>ATOM
      1 O8          0.9420   -1.1410    0.2450 o         1 MIY     -0.458100
      2 C21         1.3100   -0.0800   -0.2600 c         1 MIY      0.578300
      3 N2          0.9230    1.1450    0.5080 n4        1 MIY     -0.734400
      4 C2          2.0740    0.0630   -1.4970 ce        1 MIY     -0.403400
      5 C1          2.3180    1.4020   -2.0770 c         1 MIY      0.570300
      6 O1          1.6010    2.3590   -1.7690 o         1 MIY     -0.498100
      7 C3          2.5090   -1.0570   -2.1670 c2        1 MIY      0.273900
      8 O2          2.2480   -2.3420   -1.8900 oh        1 MIY     -0.457100
      9 C4          3.4400   -0.9870   -3.3780 c3        1 MIY      0.156700
     10 N1          2.7080   -1.2960   -4.6650 n4        1 MIY     -0.666400
     11 C20         3.4670   -0.8560   -5.8700 c3        1 MIY      0.072100
     12 C19         1.3120   -0.7880   -4.7210 c3        1 MIY      0.072100
     13 C5          4.2740    0.3020   -3.3190 c3        1 MIY     -0.078700
     14 C18         3.4290    1.5660   -3.1250 c3        1 MIY      0.147000
     15 O7          2.7860    1.8130   -4.3690 oh        1 MIY     -0.624800
     16 C17         4.3000    2.7480   -2.7180 c2        1 MIY      0.082900
     17 O6          3.5670    3.8870   -2.8880 oh        1 MIY     -0.517100
     18 C16         5.5720    2.6440   -2.2700 ce        1 MIY     -0.238400
     19 C7          6.2770    1.3330   -2.2280 c3        1 MIY     -0.014500
     20 C6          5.3050    0.1630   -2.2020 c3        1 MIY     -0.084400
     21 C15         6.3640    3.8340   -1.8570 c         1 MIY      0.610900
     22 O5          5.8160    4.9460   -1.7980 o         1 MIY     -0.527100
     23 C14         7.7730    3.6140   -1.5170 ca        1 MIY     -0.211600
     24 C9          8.2170    2.3510   -1.0730 ca        1 MIY     -0.020300
     25 C8          7.2230    1.2420   -1.0350 c3        1 MIY     -0.027100
     26 C13         8.6880    4.6810   -1.6030 ca        1 MIY      0.196100
     27 O4          8.2240    5.8700   -2.0880 oh        1 MIY     -0.467100
     28 C12        10.0310    4.4930   -1.2230 ca        1 MIY     -0.203000
     29 C11        10.4460    3.2610   -0.7550 ca        1 MIY     -0.072000
     30 C10         9.5530    2.1630   -0.6680 ca        1 MIY      0.070600
     31 N7          9.9860    0.8720   -0.2300 nh        1 MIY     -0.641000
     32 CN7         9.6710    0.5990    1.1580 c3        1 MIY      0.156600
     33 C71        11.3540    0.5440   -0.5750 c3        1 MIY      0.156600
     34 HN21        0.3540    0.8820    1.3270 hn        1 MIY      0.492800
     35 HN22        1.7650    1.6460    0.8210 hn        1 MIY      0.492800
     36 HO2         1.7410   -2.4800   -1.0600 ho        1 MIY      0.509000
     37 H4          4.1840   -1.8500   -3.2600 hx        1 MIY      0.146700
     38 H201        3.4390    0.2680   -5.9450 hx        1 MIY      0.119033
     39 H202        2.9760   -1.2990   -6.7800 hx        1 MIY      0.119033
     40 H203        4.5270   -1.2190   -5.8030 hx        1 MIY      0.119033
     41 H191        0.7150   -1.2520   -3.8910 hx        1 MIY      0.119033
     42 H192        0.8600   -1.0830   -5.7090 hx        1 MIY      0.119033
     43 H193        1.2990    0.3330   -4.6370 hx        1 MIY      0.119033
     44 H5          4.8420    0.4320   -4.2880 hc        1 MIY      0.124700
     45 HO7         2.5670    2.7610   -4.4260 ho        1 MIY      0.483000
     46 HO6         4.1190    4.6850   -2.7520 ho        1 MIY      0.500000
     47 H7          6.9030    1.2600   -3.1690 hc        1 MIY      0.090700
     48 H61         5.8880   -0.7880   -2.3330 hc        1 MIY      0.062200
     49 H62         4.7900    0.1160   -1.2080 hc        1 MIY      0.062200
     50 H81         6.6430    1.3000   -0.0750 hc        1 MIY      0.070200
     51 H82         7.7320    0.2410   -1.0620 hc        1 MIY      0.070200
     52 HO4         8.9430    6.5230   -2.0460 ho        1 MIY      0.442000
     53 H12        10.7410    5.3320   -1.2910 ha        1 MIY      0.161000
     54 H11        11.4990    3.1360   -0.4460 ha        1 MIY      0.159000
     55 HN71        9.8890   -0.4830    1.3600 h1        1 MIY      0.044033
     56 HN72       10.2660    1.2240    1.8770 h1        1 MIY      0.044033
     57 HN73        8.5800    0.7930    1.3310 h1        1 MIY      0.044033
     58 H711       11.5560    0.8370   -1.6380 h1        1 MIY      0.044033
     59 H712       12.1130    1.0400    0.0890 h1        1 MIY      0.044033
     60 H713       11.4720   -0.5680   -0.4760 h1        1 MIY      0.044033
     61 H23         0.3860    1.7870   -0.1030 hn        1 MIY      0.492800
     62 H111        2.6470   -2.3290   -4.6980 hn        1 MIY      0.461800
@<TRIPOS>BOND
     1    1    2 2   
     2    2    3 1   
     3    2    4 1   
     4    3   34 1   
     5    3   35 1   
     6    3   61 1   
     7    4    5 1   
     8    4    7 2   
     9    5    6 2   
    10    5   14 1   
    11    7    8 1   
    12    7    9 1   
    13    8   36 1   
    14    9   10 1   
    15    9   13 1   
    16    9   37 1   
    17   10   11 1   
    18   10   12 1   
    19   10   62 1   
    20   11   38 1   
    21   11   39 1   
    22   11   40 1   
    23   12   41 1   
    24   12   42 1   
    25   12   43 1   
    26   13   14 1   
    27   13   20 1   
    28   13   44 1   
    29   14   15 1   
    30   14   16 1   
    31   15   45 1   
    32   16   17 1   
    33   16   18 2   
    34   17   46 1   
    35   18   19 1   
    36   18   21 1   
    37   19   20 1   
    38   19   25 1   
    39   19   47 1   
    40   20   48 1   
    41   20   49 1   
    42   21   22 2   
    43   21   23 1   
    44   23   24 ar  
    45   23   26 ar  
    46   24   25 1   
    47   24   30 ar  
    48   25   50 1   
    49   25   51 1   
    50   26   27 1   
    51   26   28 ar  
    52   27   52 1   
    53   28   29 ar  
    54   28   53 1   
    55   29   30 ar  
    56   29   54 1   
    57   30   31 1   
    58   31   32 1   
    59   31   33 1   
    60   32   55 1   
    61   32   56 1   
    62   32   57 1   
    63   33   58 1   
    64   33   59 1   
    65   33   60 1   
@<TRIPOS>SUBSTRUCTURE
     1 MIY         1 TEMP              0 ****  ****    0 ROOT
