@<TRIPOS>MOLECULE
MIY
   63    66     1     0     0
SMALL
bcc


@<TRIPOS>ATOM
      1 O8         -0.1530   -1.3910   -0.5210 o         1 MIY     -0.443100
      2 C21         0.5550   -0.3850   -0.5230 c         1 MIY      0.577300
      3 N2          0.1720    0.6460    0.4930 n4        1 MIY     -0.733400
      4 C2          1.6900   -0.1360   -1.4110 ce        1 MIY     -0.392400
      5 C1          2.4790    1.1040   -1.2900 c         1 MIY      0.577300
      6 O1          2.5010    1.7720   -0.2560 o         1 MIY     -0.494100
      7 C3          2.0340   -1.0620   -2.3690 c2        1 MIY      0.281900
      8 O2          1.4120   -2.2260   -2.6250 oh        1 MIY     -0.480100
      9 C4          3.2840   -0.9640   -3.2540 c3        1 MIY      0.169700
     10 N1          2.9470   -1.2900   -4.6990 n4        1 MIY     -0.678400
     11 C20         4.1670   -1.6800   -5.4600 c3        1 MIY      0.080100
     12 C19         2.2060   -0.2120   -5.4080 c3        1 MIY      0.080100
     13 C5          4.0910    0.3350   -3.0710 c3        1 MIY     -0.077700
     14 C18         3.2420    1.5100   -2.5570 c3        1 MIY      0.134000
     15 O7          2.2880    1.7960   -3.5670 oh        1 MIY     -0.612800
     16 C17         4.1360    2.7090   -2.2690 c2        1 MIY      0.154900
     17 O6          3.3600    3.8230   -2.2570 oh        1 MIY     -0.507100
     18 C16         5.4750    2.6220   -2.0720 ce        1 MIY     -0.285400
     19 C7          6.2090    1.3310   -2.1870 c3        1 MIY      0.004500
     20 C6          5.2750    0.1240   -2.1300 c3        1 MIY     -0.087400
     21 C15         6.2990    3.8160   -1.7980 c         1 MIY      0.605900
     22 O5          5.7940    4.9460   -1.7520 o         1 MIY     -0.495100
     23 C14         7.7400    3.6070   -1.5600 ca        1 MIY     -0.202600
     24 C9          8.2380    2.3630   -1.1430 ca        1 MIY      0.027700
     25 C8          7.2910    1.2070   -1.1120 c3        1 MIY     -0.049100
     26 C13         8.6140    4.7150   -1.6970 ca        1 MIY      0.257100
     27 O4          8.0780    5.8670   -2.1620 oh        1 MIY     -0.428100
     28 C12         9.9810    4.5840   -1.3690 ca        1 MIY     -0.198000
     29 C11        10.4560    3.3810   -0.8910 ca        1 MIY     -0.023000
     30 C10         9.5920    2.2670   -0.7570 ca        1 MIY     -0.114400
     31 N7         10.1520    1.0310   -0.1850 n4        1 MIY     -0.540800
     32 CN7        10.7010    1.2700    1.1830 c3        1 MIY      0.086100
     33 C71        11.1940    0.4430   -1.0750 c3        1 MIY      0.086100
     34 HN21       -0.5750    0.2740    1.1030 hn        1 MIY      0.494800
     35 HN22        0.9930    0.9080    1.0640 hn        1 MIY      0.494800
     36 HO2         0.6190   -2.4010   -2.0700 ho        1 MIY      0.523000
     37 H4          3.9430   -1.8310   -2.9040 hx        1 MIY      0.140700
     38 H201        3.8560   -1.9970   -6.4970 hx        1 MIY      0.118533
     39 H202        4.6760   -2.5410   -4.9490 hx        1 MIY      0.118533
     40 H203        4.8700   -0.8100   -5.5420 hx        1 MIY      0.118533
     41 H191        1.8910   -0.5960   -6.4180 hx        1 MIY      0.118533
     42 H192        2.8600    0.6930   -5.5370 hx        1 MIY      0.118533
     43 H193        1.3010    0.0750   -4.8080 hx        1 MIY      0.118533
     44 H5          4.5050    0.6630   -4.0720 hc        1 MIY      0.113700
     45 HO7         2.0500    2.7390   -3.5340 ho        1 MIY      0.481000
     46 HO6         3.8820    4.6360   -2.0890 ho        1 MIY      0.511000
     47 H7          6.7260    1.3290   -3.1940 hc        1 MIY      0.081700
     48 H61         5.8470   -0.7920   -2.4320 hc        1 MIY      0.067700
     49 H62         4.9080   -0.0280   -1.0810 hc        1 MIY      0.067700
     50 H81         7.8210    0.2340   -1.2970 hc        1 MIY      0.065700
     51 H82         6.8130    1.1560   -0.0950 hc        1 MIY      0.065700
     52 HO4         8.7590    6.5660   -2.1810 ho        1 MIY      0.467000
     53 H12        10.6610    5.4470   -1.4800 ha        1 MIY      0.192000
     54 H11        11.5240    3.3070   -0.6160 ha        1 MIY      0.170000
     55 HN71       11.0140    0.2850    1.6240 hx        1 MIY      0.110533
     56 HN72       11.5920    1.9510    1.1240 hx        1 MIY      0.110533
     57 HN73        9.9120    1.7480    1.8220 hx        1 MIY      0.110533
     58 H711       12.0530    1.1590   -1.1780 hx        1 MIY      0.110533
     59 H712       10.7510    0.2500   -2.0870 hx        1 MIY      0.110533
     60 H713       11.5620   -0.5180   -0.6230 hx        1 MIY      0.110533
     61 H23        -0.1690    1.4960    0.0230 hn        1 MIY      0.494800
     62 H111        2.3280   -2.1220   -4.6700 hn        1 MIY      0.475800
     63 H71         9.3910    0.3460   -0.0910 hn        1 MIY      0.439800
@<TRIPOS>BOND
     1    1    2 2   
     2    2    3 1   
     3    2    4 1   
     4    3   34 1   
     5    3   35 1   
     6    3   61 1   
     7    4    5 1   
     8    4    7 2   
     9    5    6 2   
    10    5   14 1   
    11    7    8 1   
    12    7    9 1   
    13    8   36 1   
    14    9   10 1   
    15    9   13 1   
    16    9   37 1   
    17   10   11 1   
    18   10   12 1   
    19   10   62 1   
    20   11   38 1   
    21   11   39 1   
    22   11   40 1   
    23   12   41 1   
    24   12   42 1   
    25   12   43 1   
    26   13   14 1   
    27   13   20 1   
    28   13   44 1   
    29   14   15 1   
    30   14   16 1   
    31   15   45 1   
    32   16   17 1   
    33   16   18 2   
    34   17   46 1   
    35   18   19 1   
    36   18   21 1   
    37   19   20 1   
    38   19   25 1   
    39   19   47 1   
    40   20   48 1   
    41   20   49 1   
    42   21   22 2   
    43   21   23 1   
    44   23   24 ar  
    45   23   26 ar  
    46   24   25 1   
    47   24   30 ar  
    48   25   50 1   
    49   25   51 1   
    50   26   27 1   
    51   26   28 ar  
    52   27   52 1   
    53   28   29 ar  
    54   28   53 1   
    55   29   30 ar  
    56   29   54 1   
    57   30   31 1   
    58   31   32 1   
    59   31   33 1   
    60   31   63 1   
    61   32   55 1   
    62   32   56 1   
    63   32   57 1   
    64   33   58 1   
    65   33   59 1   
    66   33   60 1   
@<TRIPOS>SUBSTRUCTURE
     1 MIY         1 TEMP              0 ****  ****    0 ROOT
