@<TRIPOS>MOLECULE
MIY
   62    65     1     0     0
SMALL
bcc


@<TRIPOS>ATOM
      1 O8          0.9980   -1.2450    0.2720 o         1 MIY     -0.458100
      2 C21         1.3510   -0.1710   -0.2180 c         1 MIY      0.578300
      3 N2          0.9550    1.0360    0.5750 nz        1 MIY     -0.734400
      4 C2          2.1030    0.0030   -1.4570 ce        1 MIY     -0.403400
      5 C1          2.3270    1.3550   -2.0150 c         1 MIY      0.570300
      6 O1          1.6010    2.2970   -1.6850 o         1 MIY     -0.498100
      7 C3          2.5460   -1.1000   -2.1510 c2        1 MIY      0.273900
      8 O2          2.3030   -2.3930   -1.8940 oh        1 MIY     -0.457100
      9 C4          3.4670   -0.9970   -3.3670 c3        1 MIY      0.156700
     10 N1          2.7300   -1.2930   -4.6530 nx        1 MIY     -0.666400
     11 C20         3.4740   -0.8220   -5.8560 c3        1 MIY      0.072100
     12 C19         1.3270   -0.8020   -4.6910 c3        1 MIY      0.072100
     13 C5          4.2850    0.3010   -3.2920 c3        1 MIY     -0.078700
     14 C18         3.4280    1.5510   -3.0690 c3        1 MIY      0.147000
     15 O7          2.7720    1.8110   -4.3030 oh        1 MIY     -0.624800
     16 C17         4.2870    2.7360   -2.6480 c2        1 MIY      0.082900
     17 O6          3.5390    3.8690   -2.7930 oh        1 MIY     -0.517100
     18 C16         5.5630    2.6400   -2.2120 ce        1 MIY     -0.238400
     19 C7          6.2850    1.3370   -2.1980 c3        1 MIY     -0.014500
     20 C6          5.3280    0.1550   -2.1850 c3        1 MIY     -0.084400
     21 C15         6.3440    3.8330   -1.7840 c         1 MIY      0.610900
     22 O5          5.7840    4.9360   -1.7020 o         1 MIY     -0.527100
     23 C14         7.7580    3.6240   -1.4590 ca        1 MIY     -0.211600
     24 C9          8.2210    2.3590   -1.0400 ca        1 MIY     -0.020300
     25 C8          7.2420    1.2370   -1.0140 c3        1 MIY     -0.027100
     26 C13         8.6600    4.7030   -1.5340 ca        1 MIY      0.196100
     27 O4          8.1780    5.8950   -1.9940 oh        1 MIY     -0.467100
     28 C12        10.0080    4.5250   -1.1670 ca        1 MIY     -0.203000
     29 C11        10.4410    3.2910   -0.7230 ca        1 MIY     -0.072000
     30 C10         9.5620    2.1800   -0.6490 ca        1 MIY      0.070600
     31 N7         10.0150    0.8870   -0.2370 nh        1 MIY     -0.641000
     32 CN7         9.7140    0.5860    1.1490 c3        1 MIY      0.156600
     33 C71        11.3840    0.5820   -0.5980 c3        1 MIY      0.156600
     34 HN21        1.7920    1.5410    0.8910 hn        1 MIY      0.492800
     35 HN22        0.4050    1.6810   -0.0210 hn        1 MIY      0.492800
     36 HO2         1.8030   -2.5510   -1.0630 ho        1 MIY      0.509000
     37 H4          4.2220   -1.8520   -3.2690 hx        1 MIY      0.146700
     38 H201        3.4320    0.3020   -5.9120 hx        1 MIY      0.119033
     39 H202        4.5390   -1.1740   -5.8040 hx        1 MIY      0.119033
     40 H203        2.9820   -1.2560   -6.7710 hx        1 MIY      0.119033
     41 H191        1.3010    0.3180   -4.5870 hx        1 MIY      0.119033
     42 H192        0.7420   -1.2860   -3.8650 hx        1 MIY      0.119033
     43 H193        0.8710   -1.0850   -5.6810 hx        1 MIY      0.119033
     44 H5          4.8450    0.4550   -4.2620 hc        1 MIY      0.124700
     45 HO7         2.5400    2.7570   -4.3430 ho        1 MIY      0.483000
     46 HO6         4.0820    4.6710   -2.6470 ho        1 MIY      0.500000
     47 H7          6.9040    1.2880   -3.1440 hc        1 MIY      0.090700
     48 H61         4.8200    0.0840   -1.1880 hc        1 MIY      0.062200
     49 H62         5.9200   -0.7870   -2.3370 hc        1 MIY      0.062200
     50 H81         6.6680    1.2720   -0.0480 hc        1 MIY      0.070200
     51 H82         7.7620    0.2430   -1.0620 hc        1 MIY      0.070200
     52 HO4         8.8890    6.5560   -1.9460 ho        1 MIY      0.442000
     53 H12        10.7070    5.3740   -1.2260 ha        1 MIY      0.161000
     54 H11        11.4980    3.1730   -0.4250 ha        1 MIY      0.159000
     55 HN71       10.3070    1.2070    1.8750 h1        1 MIY      0.044033
     56 HN72        8.6220    0.7640    1.3330 h1        1 MIY      0.044033
     57 HN73        9.9470   -0.4960    1.3310 h1        1 MIY      0.044033
     58 H711       11.5730    0.8960   -1.6570 h1        1 MIY      0.044033
     59 H712       11.5150   -0.5300   -0.5190 h1        1 MIY      0.044033
     60 H713       12.1420    1.0760    0.0690 h1        1 MIY      0.044033
     61 H23         0.3950    0.7510    1.3930 hn        1 MIY      0.492800
     62 H111        2.6820   -2.3260   -4.7040 hn        1 MIY      0.461800
@<TRIPOS>BOND
     1    1    2 2   
     2    2    3 1   
     3    2    4 1   
     4    3   34 1   
     5    3   35 1   
     6    3   61 1   
     7    4    5 1   
     8    4    7 2   
     9    5    6 2   
    10    5   14 1   
    11    7    8 1   
    12    7    9 1   
    13    8   36 1   
    14    9   10 1   
    15    9   13 1   
    16    9   37 1   
    17   10   11 1   
    18   10   12 1   
    19   10   62 1   
    20   11   38 1   
    21   11   39 1   
    22   11   40 1   
    23   12   41 1   
    24   12   42 1   
    25   12   43 1   
    26   13   14 1   
    27   13   20 1   
    28   13   44 1   
    29   14   15 1   
    30   14   16 1   
    31   15   45 1   
    32   16   17 1   
    33   16   18 2   
    34   17   46 1   
    35   18   19 1   
    36   18   21 1   
    37   19   20 1   
    38   19   25 1   
    39   19   47 1   
    40   20   48 1   
    41   20   49 1   
    42   21   22 2   
    43   21   23 1   
    44   23   24 ar  
    45   23   26 ar  
    46   24   25 1   
    47   24   30 ar  
    48   25   50 1   
    49   25   51 1   
    50   26   27 1   
    51   26   28 ar  
    52   27   52 1   
    53   28   29 ar  
    54   28   53 1   
    55   29   30 ar  
    56   29   54 1   
    57   30   31 1   
    58   31   32 1   
    59   31   33 1   
    60   32   55 1   
    61   32   56 1   
    62   32   57 1   
    63   33   58 1   
    64   33   59 1   
    65   33   60 1   
@<TRIPOS>SUBSTRUCTURE
     1 MIY         1 TEMP              0 ****  ****    0 ROOT
