@<TRIPOS>MOLECULE
MIZ
   34    35     1     0     0
SMALL
bcc


@<TRIPOS>ATOM
      1 CAA         1.0380    2.5070    0.6580 c3        1 MIZ     -0.091300
      2 CAE         1.7110    1.2090    0.3530 ca        1 MIZ      0.046400
      3 CAD         3.0920    1.2060    0.1110 ca        1 MIZ     -0.173500
      4 CAC         3.7680    0.0110   -0.1720 ca        1 MIZ      0.063700
      5 CAB         5.2250   -0.0000   -0.4130 c3        1 MIZ     -0.092800
      6 CAF         3.0200   -1.1730   -0.2100 ca        1 MIZ     -0.173500
      7 CAG         1.6380   -1.1580    0.0350 ca        1 MIZ      0.046400
      8 CAN         0.8880   -2.4490   -0.0060 c3        1 MIZ     -0.091300
      9 NAH         0.9940    0.0290    0.3220 na        1 MIZ      0.009900
     10 CAI        -0.4520    0.0330    0.5820 c3        1 MIZ     -0.014700
     11 CAJ        -1.3060    0.2050   -0.6800 c3        1 MIZ     -0.094700
     12 CAK        -2.7350    0.0520   -0.3430 cc        1 MIZ      0.246600
     13 CAO        -3.7890    0.8890   -0.7690 cd        1 MIZ     -0.213600
     14 NAP        -4.9560    0.3320   -0.2590 na        1 MIZ     -0.305900
     15 CAM        -4.5850   -0.8140    0.4560 cd        1 MIZ      0.416400
     16 NAL        -3.2510   -1.0060    0.4210 nc        1 MIZ     -0.682000
     17 HAA         0.1300    2.6580    0.0200 hc        1 MIZ      0.091033
     18 HAAA        0.7320    2.5420    1.7360 hc        1 MIZ      0.091033
     19 HAAB        1.7440    3.3540    0.4670 hc        1 MIZ      0.091033
     20 HAD         3.6430    2.1610    0.1460 ha        1 MIZ      0.188500
     21 HAB         5.7640   -0.1410    0.5610 hc        1 MIZ      0.084033
     22 HABA        5.5150   -0.8380   -1.0960 hc        1 MIZ      0.084033
     23 HABB        5.5670    0.9650   -0.8640 hc        1 MIZ      0.084033
     24 HAF         3.5120   -2.1350   -0.4340 ha        1 MIZ      0.188500
     25 HAN         0.5840   -2.7530    1.0300 hc        1 MIZ      0.091033
     26 HANA       -0.0340   -2.3730   -0.6380 hc        1 MIZ      0.091033
     27 HANB        1.5390   -3.2530   -0.4310 hc        1 MIZ      0.091033
     28 HAI        -0.7150   -0.9400    1.0940 h1        1 MIZ      0.107200
     29 HAIA       -0.6830    0.8640    1.3080 h1        1 MIZ      0.107200
     30 HAJ        -1.1350    1.2180   -1.1310 hc        1 MIZ      0.063200
     31 HAJA       -1.0220   -0.5640   -1.4500 hc        1 MIZ      0.063200
     32 HAO        -3.7840    1.7930   -1.3760 h4        1 MIZ      0.188000
     33 HNAP       -5.8720    0.6760   -0.3890 hn        1 MIZ      0.318700
     34 HAM        -5.3110   -1.4570    0.9700 h5        1 MIZ      0.079100
@<TRIPOS>BOND
     1    1    2 1   
     2    1   17 1   
     3    1   18 1   
     4    1   19 1   
     5    2    3 ar  
     6    2    9 2   
     7    3    4 ar  
     8    3   20 1   
     9    4    5 1   
    10    4    6 ar  
    11    5   21 1   
    12    5   22 1   
    13    5   23 1   
    14    6    7 ar  
    15    6   24 1   
    16    7    8 1   
    17    7    9 1   
    18    8   25 1   
    19    8   26 1   
    20    8   27 1   
    21    9   10 1   
    22   10   11 1   
    23   10   28 1   
    24   10   29 1   
    25   11   12 1   
    26   11   30 1   
    27   11   31 1   
    28   12   13 2   
    29   12   16 1   
    30   13   14 1   
    31   13   32 1   
    32   14   15 1   
    33   14   33 1   
    34   15   16 2   
    35   15   34 1   
@<TRIPOS>SUBSTRUCTURE
     1 MIZ         1 TEMP              0 ****  ****    0 ROOT
