@<TRIPOS>MOLECULE
MIZ
   34    35     1     0     0
SMALL
bcc


@<TRIPOS>ATOM
      1 CAA        -0.0180   -0.0760    0.2430 c3        1 MIZ     -0.091300
      2 CAE         1.4700   -0.0390    0.1190 ca        1 MIZ      0.046400
      3 CAD         2.2440   -0.0830    1.2870 ca        1 MIZ     -0.173500
      4 CAC         3.6440   -0.0570    1.2200 ca        1 MIZ      0.063700
      5 CAB         4.4650   -0.0900    2.4470 c3        1 MIZ     -0.092800
      6 CAF         4.2400    0.0140   -0.0460 ca        1 MIZ     -0.173500
      7 CAG         3.4540    0.0570   -1.2080 ca        1 MIZ      0.046400
      8 CAN         4.1380    0.1220   -2.5340 c3        1 MIZ     -0.091300
      9 NAH         2.0760    0.0220   -1.1200 na        1 MIZ      0.009900
     10 CAI         1.2640    0.0590   -2.3430 c3        1 MIZ     -0.014700
     11 CAJ         0.9120    1.4760   -2.8090 c3        1 MIZ     -0.094700
     12 CAK         0.2220    1.4190   -4.1120 cc        1 MIZ      0.246600
     13 CAO        -0.9450    2.1270   -4.4730 cd        1 MIZ     -0.213600
     14 NAP        -1.1950    1.8080   -5.8030 na        1 MIZ     -0.305900
     15 CAM        -0.1870    0.9250   -6.2100 cd        1 MIZ      0.416400
     16 NAL         0.6810    0.6740   -5.2100 nc        1 MIZ     -0.682000
     17 HAA        -0.3140    0.0510    1.3150 hc        1 MIZ      0.091033
     18 HAAA       -0.4140   -1.0620   -0.1150 hc        1 MIZ      0.091033
     19 HAAB       -0.5000    0.7430   -0.3510 hc        1 MIZ      0.091033
     20 HAD         1.7360   -0.1390    2.2650 ha        1 MIZ      0.188500
     21 HAB         4.6490    0.9580    2.8030 hc        1 MIZ      0.084367
     22 HABA        5.4570   -0.5720    2.2570 hc        1 MIZ      0.084367
     23 HABB        3.9460   -0.6490    3.2660 hc        1 MIZ      0.084367
     24 HAF         5.3390    0.0370   -0.1430 ha        1 MIZ      0.188500
     25 HAN         5.2280    0.3280   -2.3900 hc        1 MIZ      0.091033
     26 HANA        4.0330   -0.8570   -3.0720 hc        1 MIZ      0.091033
     27 HANB        3.7100    0.9300   -3.1820 hc        1 MIZ      0.091033
     28 HAI         0.3150   -0.5230   -2.1600 h1        1 MIZ      0.107200
     29 HAIA        1.8350   -0.4820   -3.1550 h1        1 MIZ      0.107200
     30 HAJ         1.8450    2.0960   -2.9100 hc        1 MIZ      0.062700
     31 HAJA        0.2480    1.9800   -2.0570 hc        1 MIZ      0.062700
     32 HAO        -1.5760    2.8060   -3.9010 h4        1 MIZ      0.188000
     33 HNAP       -1.9380    2.1520   -6.3560 hn        1 MIZ      0.318700
     34 HAM        -0.1340    0.5070   -7.2230 h5        1 MIZ      0.079100
@<TRIPOS>BOND
     1    1    2 1   
     2    1   17 1   
     3    1   18 1   
     4    1   19 1   
     5    2    3 ar  
     6    2    9 2   
     7    3    4 ar  
     8    3   20 1   
     9    4    5 1   
    10    4    6 ar  
    11    5   21 1   
    12    5   22 1   
    13    5   23 1   
    14    6    7 ar  
    15    6   24 1   
    16    7    8 1   
    17    7    9 1   
    18    8   25 1   
    19    8   26 1   
    20    8   27 1   
    21    9   10 1   
    22   10   11 1   
    23   10   28 1   
    24   10   29 1   
    25   11   12 1   
    26   11   30 1   
    27   11   31 1   
    28   12   13 2   
    29   12   16 1   
    30   13   14 1   
    31   13   32 1   
    32   14   15 1   
    33   14   33 1   
    34   15   16 2   
    35   15   34 1   
@<TRIPOS>SUBSTRUCTURE
     1 MIZ         1 TEMP              0 ****  ****    0 ROOT
