@<TRIPOS>MOLECULE
MIZ
   34    35     1     0     0
SMALL
bcc


@<TRIPOS>ATOM
      1 CAA        -0.0210   -0.0640    0.2520 c3        1 MIZ     -0.091300
      2 CAE         1.4670   -0.0340    0.1240 ca        1 MIZ      0.046900
      3 CAD         2.2450   -0.0800    1.2900 ca        1 MIZ     -0.173500
      4 CAC         3.6450   -0.0610    1.2190 ca        1 MIZ      0.063700
      5 CAB         4.4690   -0.0960    2.4430 c3        1 MIZ     -0.092800
      6 CAF         4.2370    0.0050   -0.0490 ca        1 MIZ     -0.173500
      7 CAG         3.4480    0.0500   -1.2090 ca        1 MIZ      0.046900
      8 CAN         4.1270    0.1090   -2.5380 c3        1 MIZ     -0.091300
      9 NAH         2.0700    0.0210   -1.1170 na        1 MIZ      0.009900
     10 CAI         1.2540    0.0600   -2.3380 c3        1 MIZ     -0.014700
     11 CAJ         0.9090    1.4790   -2.8060 c3        1 MIZ     -0.094700
     12 CAK         0.2270    1.4230   -4.1130 cc        1 MIZ      0.246600
     13 CAO        -0.9430    2.1240   -4.4780 cd        1 MIZ     -0.213600
     14 NAP        -1.1820    1.8110   -5.8110 na        1 MIZ     -0.305900
     15 CAM        -0.1650    0.9380   -6.2160 cd        1 MIZ      0.416400
     16 NAL         0.6990    0.6880   -5.2120 nc        1 MIZ     -0.682000
     17 HAA        -0.3120    0.0660    1.3250 hc        1 MIZ      0.091033
     18 HAAA       -0.4220   -1.0480   -0.1030 hc        1 MIZ      0.091033
     19 HAAB       -0.5000    0.7560   -0.3420 hc        1 MIZ      0.091033
     20 HAD         1.7390   -0.1320    2.2690 ha        1 MIZ      0.188500
     21 HAB         4.6560    0.9520    2.7990 hc        1 MIZ      0.084367
     22 HABA        5.4590   -0.5800    2.2510 hc        1 MIZ      0.084367
     23 HABB        3.9510   -0.6550    3.2630 hc        1 MIZ      0.084367
     24 HAF         5.3350    0.0220   -0.1500 ha        1 MIZ      0.188500
     25 HAN         5.2190    0.3110   -2.3970 hc        1 MIZ      0.091033
     26 HANA        4.0180   -0.8710   -3.0730 hc        1 MIZ      0.091033
     27 HANB        3.7010    0.9170   -3.1860 hc        1 MIZ      0.091033
     28 HAI         0.3030   -0.5160   -2.1510 h1        1 MIZ      0.107200
     29 HAIA        1.8200   -0.4850   -3.1500 h1        1 MIZ      0.107200
     30 HAJ         1.8440    2.0960   -2.9010 hc        1 MIZ      0.063200
     31 HAJA        0.2420    1.9840   -2.0580 hc        1 MIZ      0.063200
     32 HAO        -1.5830    2.7960   -3.9060 h4        1 MIZ      0.188000
     33 HNAP       -1.9240    2.1520   -6.3660 hn        1 MIZ      0.318700
     34 HAM        -0.1020    0.5260   -7.2310 h5        1 MIZ      0.079100
@<TRIPOS>BOND
     1    1    2 1   
     2    1   17 1   
     3    1   18 1   
     4    1   19 1   
     5    2    3 ar  
     6    2    9 2   
     7    3    4 ar  
     8    3   20 1   
     9    4    5 1   
    10    4    6 ar  
    11    5   21 1   
    12    5   22 1   
    13    5   23 1   
    14    6    7 ar  
    15    6   24 1   
    16    7    8 1   
    17    7    9 1   
    18    8   25 1   
    19    8   26 1   
    20    8   27 1   
    21    9   10 1   
    22   10   11 1   
    23   10   28 1   
    24   10   29 1   
    25   11   12 1   
    26   11   30 1   
    27   11   31 1   
    28   12   13 2   
    29   12   16 1   
    30   13   14 1   
    31   13   32 1   
    32   14   15 1   
    33   14   33 1   
    34   15   16 2   
    35   15   34 1   
@<TRIPOS>SUBSTRUCTURE
     1 MIZ         1 TEMP              0 ****  ****    0 ROOT
