@<TRIPOS>MOLECULE
MJ5
   27    28     1     0     0
SMALL
bcc


@<TRIPOS>ATOM
      1 CAA        -0.2120    0.4720    0.1860 c3        1 MJ5     -0.056800
      2 OAB         2.7790   -0.3430    3.9350 oh        1 MJ5     -0.492100
      3 CAC         8.3520    1.3030    1.5870 ca        1 MJ5     -0.155000
      4 CAD         7.1200    1.9020    1.3250 ca        1 MJ5     -0.103000
      5 CAE         8.4070   -0.0200    2.0310 ca        1 MJ5     -0.103000
      6 CAF         5.9360    1.1880    1.5030 ca        1 MJ5     -0.165500
      7 CAG         7.2380   -0.7530    2.2130 ca        1 MJ5     -0.165500
      8 CAH         2.1930   -0.0850   -0.1800 ca        1 MJ5     -0.158000
      9 CAI         3.4620   -0.4050    0.2920 ca        1 MJ5     -0.103000
     10 CAJ         1.3470    0.0600    2.0880 ca        1 MJ5     -0.154000
     11 OAK         4.8880   -0.9280    2.2090 os        1 MJ5     -0.260200
     12 CAL         1.1350    0.1470    0.7120 ca        1 MJ5     -0.045300
     13 CAM         2.6250   -0.2580    2.5750 ca        1 MJ5      0.135100
     14 CAN         6.0040   -0.1360    1.9490 ca        1 MJ5      0.107100
     15 CAO         3.6790   -0.4900    1.6700 ca        1 MJ5     -0.004900
     16 HAA        -0.1390    1.1810   -0.6760 hc        1 MJ5      0.048367
     17 HAAA       -0.8540    0.9370    0.9740 hc        1 MJ5      0.048367
     18 HAAB       -0.7150   -0.4620   -0.1710 hc        1 MJ5      0.048367
     19 HOAB        3.7060   -0.5710    4.1150 ho        1 MJ5      0.437000
     20 HAD         7.0770    2.9440    0.9760 ha        1 MJ5      0.135000
     21 HAE         9.3800   -0.4900    2.2360 ha        1 MJ5      0.135000
     22 HAF         4.9620    1.6550    1.2960 ha        1 MJ5      0.149500
     23 HAG         7.2640   -1.7950    2.5600 ha        1 MJ5      0.149500
     24 HAH         2.0150   -0.0150   -1.2630 ha        1 MJ5      0.138000
     25 HAI         4.2950   -0.5880   -0.4020 ha        1 MJ5      0.149000
     26 HAJ         0.5310    0.2370    2.8040 ha        1 MJ5      0.154000
     27 HAC         9.2810    1.8730    1.4450 ha        1 MJ5      0.134000
@<TRIPOS>BOND
     1    1   12 1   
     2    1   16 1   
     3    1   17 1   
     4    1   18 1   
     5    2   13 1   
     6    2   19 1   
     7    3    4 ar  
     8    3    5 ar  
     9    3   27 1   
    10    4    6 ar  
    11    4   20 1   
    12    5    7 ar  
    13    5   21 1   
    14    6   14 ar  
    15    6   22 1   
    16    7   14 ar  
    17    7   23 1   
    18    8    9 ar  
    19    8   12 ar  
    20    8   24 1   
    21    9   15 ar  
    22    9   25 1   
    23   10   12 ar  
    24   10   13 ar  
    25   10   26 1   
    26   11   14 1   
    27   11   15 1   
    28   13   15 ar  
@<TRIPOS>SUBSTRUCTURE
     1 MJ5         1 TEMP              0 ****  ****    0 ROOT
