@<TRIPOS>MOLECULE
MJ5
   27    23     1     0     0
SMALL
bcc


@<TRIPOS>ATOM
      1 CAA        -4.2280   -0.0420   -1.9620 c3        1 MJ5     -0.183000
      2 OAB        -1.7550   -0.0140    2.1480 oh        1 MJ5     -0.230000
      3 CAC         4.4670    0.3200    1.1230 c1        1 MJ5     -0.138750
      4 CAD         3.6310    1.4200    1.2280 c1        1 MJ5     -0.138750
      5 CAE         3.9400   -0.9250    0.8190 c1        1 MJ5     -0.138750
      6 CAF         2.2670    1.2750    1.0290 c1        1 MJ5     -0.138750
      7 CAG         2.5760   -1.0700    0.6200 c1        1 MJ5     -0.151000
      8 CAH        -1.7180   -0.1050   -2.0070 c1        1 MJ5     -0.161000
      9 CAI        -0.4900   -0.1540   -1.3660 c1        1 MJ5     -0.097000
     10 CAJ        -2.8290   -0.1450    0.1210 c1        1 MJ5     -0.213000
     11 OAK         0.4080   -0.1360    1.1420 os        1 MJ5     -0.146000
     12 CAL        -2.8880   -0.1000   -1.2630 c1        1 MJ5     -0.028000
     13 CAM        -1.6010   -0.1940    0.7610 c2        1 MJ5      0.086000
     14 CAN         1.7390    0.0300    0.7250 c1        1 MJ5      0.080000
     15 CAO        -0.4310   -0.1990    0.0180 c2        1 MJ5      0.004000
     16 HAA        -4.0980    0.2260   -2.8960 hc        1 MJ5      0.087667
     17 HAAA       -4.6510   -0.9250   -1.9310 hc        1 MJ5      0.087667
     18 HAAB       -4.8030    0.6120   -1.5120 hc        1 MJ5      0.087667
     19 HOAB       -2.2980   -0.6400    2.4700 ho        1 MJ5      0.218000
     20 HAC         5.4280    0.4220    1.2640 ha        1 MJ5      0.134250
     21 HAD         4.0020    2.2970    1.4430 ha        1 MJ5      0.134250
     22 HAE         4.5290   -1.7000    0.7450 ha        1 MJ5      0.134250
     23 HAF         1.6780    2.0500    1.1030 ha        1 MJ5      0.134250
     24 HAG         2.2040   -1.9470    0.4050 ha        1 MJ5      0.149000
     25 HAH        -1.7590   -0.0740   -2.9810 ha        1 MJ5      0.139000
     26 HAI         0.3340   -0.1580   -1.8900 ha        1 MJ5      0.151000
     27 HAJ        -3.6520   -0.1220    0.6450 ha        1 MJ5      0.137000
@<TRIPOS>BOND
     1    1   12 1   
     2    1   16 1   
     3    1   17 1   
     4    1   18 1   
     5    2   13 1   
     6    2   19 1   
     7    3    5 1   
     8    3   20 1   
     9    4    6 1   
    10    4   21 1   
    11    5   22 1   
    12    6   23 1   
    13    7   14 1   
    14    7   24 1   
    15    8   12 1   
    16    8   25 1   
    17    9   15 1   
    18    9   26 1   
    19   10   13 1   
    20   10   27 1   
    21   11   14 1   
    22   11   15 1   
    23   13   15 1   
@<TRIPOS>SUBSTRUCTURE
     1 MJ5         1 TEMP              0 ****  ****    0 ROOT
