@<TRIPOS>MOLECULE
MJ5
   27    28     1     0     0
SMALL
bcc


@<TRIPOS>ATOM
      1 CAA         4.4520    1.6120   -0.3590 c3        1 MJ5     -0.056800
      2 OAB         1.5010   -2.2530   -0.2490 oh        1 MJ5     -0.492100
      3 CAC        -4.1780    0.3880   -0.4910 ca        1 MJ5     -0.155000
      4 CAD        -3.0220    0.8200   -1.1400 ca        1 MJ5     -0.103000
      5 CAE        -4.0820   -0.4040    0.6550 ca        1 MJ5     -0.103000
      6 CAF        -1.7640    0.4660   -0.6530 ca        1 MJ5     -0.165500
      7 CAG        -2.8370   -0.7670    1.1620 ca        1 MJ5     -0.165500
      8 CAH         2.1410    1.7800    0.5670 ca        1 MJ5     -0.158000
      9 CAI         0.9100    1.2220    0.8970 ca        1 MJ5     -0.103000
     10 CAJ         2.9130   -0.3500   -0.3000 ca        1 MJ5     -0.154000
     11 OAK        -0.4840   -0.7830    1.0420 os        1 MJ5     -0.260200
     12 CAL         3.1440    1.0000   -0.0290 ca        1 MJ5     -0.045300
     13 CAM         1.6730   -0.9210    0.0260 ca        1 MJ5      0.135100
     14 CAN        -1.6820   -0.3280    0.4950 ca        1 MJ5      0.107100
     15 CAO         0.6740   -0.1290    0.6260 ca        1 MJ5     -0.004900
     16 HAA         5.0730    1.7030    0.5690 hc        1 MJ5      0.048367
     17 HAAA        5.0150    0.9910   -1.0980 hc        1 MJ5      0.048367
     18 HAAB        4.3130    2.6350   -0.7870 hc        1 MJ5      0.048367
     19 HOAB        0.6050   -2.5020    0.0320 ho        1 MJ5      0.437000
     20 HAD        -3.0980    1.4440   -2.0430 ha        1 MJ5      0.135000
     21 HAE        -4.9950   -0.7440    1.1660 ha        1 MJ5      0.135000
     22 HAF        -0.8490    0.8070   -1.1600 ha        1 MJ5      0.149500
     23 HAG        -2.7450   -1.3890    2.0630 ha        1 MJ5      0.149500
     24 HAH         2.3330    2.8420    0.7770 ha        1 MJ5      0.138000
     25 HAI         0.1200    1.8280    1.3650 ha        1 MJ5      0.149000
     26 HAJ         3.6860   -0.9780   -0.7650 ha        1 MJ5      0.154000
     27 HAC        -5.1660    0.6700   -0.8810 ha        1 MJ5      0.134000
@<TRIPOS>BOND
     1    1   12 1   
     2    1   16 1   
     3    1   17 1   
     4    1   18 1   
     5    2   13 1   
     6    2   19 1   
     7    3    4 ar  
     8    3    5 ar  
     9    3   27 1   
    10    4    6 ar  
    11    4   20 1   
    12    5    7 ar  
    13    5   21 1   
    14    6   14 ar  
    15    6   22 1   
    16    7   14 ar  
    17    7   23 1   
    18    8    9 ar  
    19    8   12 ar  
    20    8   24 1   
    21    9   15 ar  
    22    9   25 1   
    23   10   12 ar  
    24   10   13 ar  
    25   10   26 1   
    26   11   14 1   
    27   11   15 1   
    28   13   15 ar  
@<TRIPOS>SUBSTRUCTURE
     1 MJ5         1 TEMP              0 ****  ****    0 ROOT
