@<TRIPOS>MOLECULE
MJ5
   27    28     1     0     0
SMALL
bcc


@<TRIPOS>ATOM
      1 CAA        -0.2180    0.5140    0.2280 c3        1 MJ5     -0.056800
      2 OAB         2.8000   -0.2620    3.9660 oh        1 MJ5     -0.492100
      3 CAC         8.3660    1.2470    1.5110 ca        1 MJ5     -0.155000
      4 CAD         7.1390    1.8550    1.2460 ca        1 MJ5     -0.103000
      5 CAE         8.4090   -0.0640    1.9900 ca        1 MJ5     -0.103000
      6 CAF         5.9470    1.1620    1.4580 ca        1 MJ5     -0.165500
      7 CAG         7.2330   -0.7770    2.2050 ca        1 MJ5     -0.165500
      8 CAH         2.1690   -0.1060   -0.1470 ca        1 MJ5     -0.158000
      9 CAI         3.4380   -0.4300    0.3180 ca        1 MJ5     -0.103000
     10 CAJ         1.3520    0.1110    2.1260 ca        1 MJ5     -0.154000
     11 OAK         4.8810   -0.9200    2.2320 os        1 MJ5     -0.260200
     12 CAL         1.1240    0.1650    0.7500 ca        1 MJ5     -0.046300
     13 CAM         2.6310   -0.2110    2.6060 ca        1 MJ5      0.135100
     14 CAN         6.0040   -0.1500    1.9380 ca        1 MJ5      0.107100
     15 CAO         3.6720   -0.4810    1.6960 ca        1 MJ5     -0.004900
     16 HAA        -0.1950    1.5320   -0.2360 hc        1 MJ5      0.048367
     17 HAAA       -0.9840    0.5150    1.0420 hc        1 MJ5      0.048367
     18 HAAB       -0.5350   -0.2190   -0.5550 hc        1 MJ5      0.048367
     19 HOAB        3.7250   -0.4980    4.1420 ho        1 MJ5      0.437000
     20 HAD         7.1060    2.8880    0.8690 ha        1 MJ5      0.135000
     21 HAE         9.3780   -0.5420    2.1970 ha        1 MJ5      0.135000
     22 HAF         4.9780    1.6360    1.2480 ha        1 MJ5      0.149500
     23 HAG         7.2490   -1.8090    2.5800 ha        1 MJ5      0.149500
     24 HAH         1.9780   -0.0650   -1.2290 ha        1 MJ5      0.138000
     25 HAI         4.2610   -0.6440   -0.3800 ha        1 MJ5      0.149000
     26 HAJ         0.5460    0.3150    2.8460 ha        1 MJ5      0.154000
     27 HAC         9.3010    1.8000    1.3430 ha        1 MJ5      0.134000
@<TRIPOS>BOND
     1    1   12 1   
     2    1   16 1   
     3    1   17 1   
     4    1   18 1   
     5    2   13 1   
     6    2   19 1   
     7    3    4 ar  
     8    3    5 ar  
     9    3   27 1   
    10    4    6 ar  
    11    4   20 1   
    12    5    7 ar  
    13    5   21 1   
    14    6   14 ar  
    15    6   22 1   
    16    7   14 ar  
    17    7   23 1   
    18    8    9 ar  
    19    8   12 ar  
    20    8   24 1   
    21    9   15 ar  
    22    9   25 1   
    23   10   12 ar  
    24   10   13 ar  
    25   10   26 1   
    26   11   14 1   
    27   11   15 1   
    28   13   15 ar  
@<TRIPOS>SUBSTRUCTURE
     1 MJ5         1 TEMP              0 ****  ****    0 ROOT
