@<TRIPOS>MOLECULE
MJA
   53    54     1     0     0
SMALL
bcc


@<TRIPOS>ATOM
      1 O16         0.0950   -0.1610    0.1290 o         1 MJA     -0.846800
      2 C15         0.8150    0.8490   -0.1410 c         1 MJA      0.909600
      3 O15         0.8850    1.8760    0.5880 o         1 MJA     -0.846800
      4 C14         1.6650    0.8100   -1.4220 c3        1 MJA     -0.234400
      5 C13         0.9240    0.1420   -2.5690 c3        1 MJA      0.170100
      6 O13         0.7470   -1.2510   -2.3410 oh        1 MJA     -0.672800
      7 C12         1.6970    0.2850   -3.8800 c3        1 MJA     -0.122400
      8 C11         0.8660   -0.1270   -5.0910 c3        1 MJA      0.153100
      9 O11         0.7920   -1.5430   -5.2220 oh        1 MJA     -0.634800
     10 C10         1.4920    0.3900   -6.3870 c3        1 MJA     -0.081400
     11 C9          0.5120    0.2880   -7.5380 c3        1 MJA     -0.075400
     12 C1          1.1610    0.4990   -8.8920 c3        1 MJA     -0.033700
     13 C8A         0.1770    0.4510  -10.0730 c3        1 MJA     -0.017500
     14 C2          2.2910   -0.5150   -9.1620 c3        1 MJA     -0.037500
     15 C2M         1.9200   -1.9370   -8.7800 c3        1 MJA     -0.094100
     16 C3          2.7570   -0.4910  -10.5810 c2        1 MJA     -0.140200
     17 C4          2.1350    0.1800  -11.5600 ce        1 MJA     -0.155000
     18 C4A         0.9400    0.9620  -11.2690 ce        1 MJA     -0.069200
     19 C5          0.6400    2.0920  -11.9290 c2        1 MJA     -0.177200
     20 C6         -0.4800    2.9990  -11.5540 c3        1 MJA     -0.024500
     21 C6M        -0.0620    4.4500  -11.6720 c3        1 MJA     -0.086100
     22 C7         -0.9740    2.7010  -10.1430 c3        1 MJA     -0.111400
     23 C8         -1.1600    1.1950   -9.9940 c3        1 MJA      0.152100
     24 O8         -1.8440    0.8430   -8.8050 oh        1 MJA     -0.583800
     25 H14         1.9440    1.8540   -1.7070 hc        1 MJA      0.036200
     26 H14A        2.6010    0.2410   -1.1980 hc        1 MJA      0.036200
     27 H13        -0.0950    0.6140   -2.6760 h1        1 MJA      0.028700
     28 HO13        0.4090   -1.3410   -1.4310 ho        1 MJA      0.464000
     29 H12         2.6190   -0.3480   -3.8340 hc        1 MJA      0.048200
     30 H12A        2.0060    1.3550   -3.9890 hc        1 MJA      0.048200
     31 H11        -0.1820    0.2760   -4.9870 h1        1 MJA      0.033700
     32 HO11        0.6040   -1.8960   -4.3410 ho        1 MJA      0.436000
     33 H10         2.4170   -0.2080   -6.5900 hc        1 MJA      0.038700
     34 H10A        1.7990    1.4590   -6.2460 hc        1 MJA      0.038700
     35 H9         -0.0090   -0.7050   -7.5110 hc        1 MJA      0.062200
     36 H9A        -0.2750    1.0760   -7.3860 hc        1 MJA      0.062200
     37 H1          1.6310    1.5250   -8.8820 hc        1 MJA      0.040700
     38 H8A        -0.0850   -0.6350  -10.2400 hc        1 MJA      0.069700
     39 H2          3.1710   -0.2040   -8.5230 hc        1 MJA      0.057700
     40 H2M         2.7440   -2.6360   -9.0610 hc        1 MJA      0.044033
     41 H2MA        0.9880   -2.2590   -9.3020 hc        1 MJA      0.044033
     42 H2MB        1.7500   -2.0130   -7.6760 hc        1 MJA      0.044033
     43 H3          3.6670   -1.0780  -10.7820 ha        1 MJA      0.118000
     44 H4          2.5110    0.1930  -12.5930 ha        1 MJA      0.121000
     45 H5          1.2420    2.4180  -12.7910 ha        1 MJA      0.120000
     46 H6         -1.3300    2.8140  -12.2750 hc        1 MJA      0.046700
     47 H6M         0.8030    4.6660  -11.0000 hc        1 MJA      0.034367
     48 H6MA       -0.9090    5.1180  -11.3850 hc        1 MJA      0.034367
     49 H6MB        0.2380    4.6840  -12.7220 hc        1 MJA      0.034367
     50 H7         -0.2360    3.0650   -9.3840 hc        1 MJA      0.050700
     51 H7A        -1.9430    3.2310   -9.9600 hc        1 MJA      0.050700
     52 H8         -1.7870    0.8340  -10.8680 h1        1 MJA      0.021700
     53 HO8        -2.6350    1.3950   -8.7660 ho        1 MJA      0.395000
@<TRIPOS>BOND
     1    1    2 1   
     2    2    3 1   
     3    2    4 1   
     4    4    5 1   
     5    4   25 1   
     6    4   26 1   
     7    5    6 1   
     8    5    7 1   
     9    5   27 1   
    10    6   28 1   
    11    7    8 1   
    12    7   29 1   
    13    7   30 1   
    14    8    9 1   
    15    8   10 1   
    16    8   31 1   
    17    9   32 1   
    18   10   11 1   
    19   10   33 1   
    20   10   34 1   
    21   11   12 1   
    22   11   35 1   
    23   11   36 1   
    24   12   13 1   
    25   12   14 1   
    26   12   37 1   
    27   13   18 1   
    28   13   23 1   
    29   13   38 1   
    30   14   15 1   
    31   14   16 1   
    32   14   39 1   
    33   15   40 1   
    34   15   41 1   
    35   15   42 1   
    36   16   17 2   
    37   16   43 1   
    38   17   18 1   
    39   17   44 1   
    40   18   19 2   
    41   19   20 1   
    42   19   45 1   
    43   20   21 1   
    44   20   22 1   
    45   20   46 1   
    46   21   47 1   
    47   21   48 1   
    48   21   49 1   
    49   22   23 1   
    50   22   50 1   
    51   22   51 1   
    52   23   24 1   
    53   23   52 1   
    54   24   53 1   
@<TRIPOS>SUBSTRUCTURE
     1 MJA         1 TEMP              0 ****  ****    0 ROOT
