@<TRIPOS>MOLECULE
MJA
   53    54     1     0     0
SMALL
bcc


@<TRIPOS>ATOM
      1 O16         0.1100   -0.1110    0.1370 o         1 MJA     -0.846800
      2 C15         0.8530    0.8800   -0.1420 c         1 MJA      0.909600
      3 O15         0.9500    1.9090    0.5820 o         1 MJA     -0.846800
      4 C14         1.6950    0.8160   -1.4260 c3        1 MJA     -0.234400
      5 C13         0.9330    0.1600   -2.5670 c3        1 MJA      0.170100
      6 O13         0.7250   -1.2270   -2.3310 oh        1 MJA     -0.672800
      7 C12         1.7030    0.2790   -3.8820 c3        1 MJA     -0.122400
      8 C11         0.8580   -0.1180   -5.0870 c3        1 MJA      0.153100
      9 O11         0.7500   -1.5330   -5.2110 oh        1 MJA     -0.634800
     10 C10         1.4900    0.3780   -6.3880 c3        1 MJA     -0.081400
     11 C9          0.5020    0.2930   -7.5340 c3        1 MJA     -0.075400
     12 C1          1.1500    0.4860   -8.8920 c3        1 MJA     -0.033700
     13 C8A         0.1600    0.4550  -10.0690 c3        1 MJA     -0.017500
     14 C2          2.2570   -0.5530   -9.1640 c3        1 MJA     -0.037500
     15 C2M         1.8570   -1.9650   -8.7760 c3        1 MJA     -0.094100
     16 C3          2.7170   -0.5430  -10.5840 c2        1 MJA     -0.140200
     17 C4          2.1050    0.1390  -11.5630 ce        1 MJA     -0.155000
     18 C4A         0.9280    0.9470  -11.2690 ce        1 MJA     -0.069200
     19 C5          0.6500    2.0800  -11.9320 c2        1 MJA     -0.177200
     20 C6         -0.4490    3.0120  -11.5540 c3        1 MJA     -0.024500
     21 C6M        -0.0010    4.4540  -11.6790 c3        1 MJA     -0.086100
     22 C7         -0.9430    2.7290  -10.1410 c3        1 MJA     -0.111400
     23 C8         -1.1610    1.2280   -9.9860 c3        1 MJA      0.152100
     24 O8         -1.8470    0.8940   -8.7930 oh        1 MJA     -0.583800
     25 H14         1.9980    1.8510   -1.7180 hc        1 MJA      0.036200
     26 H14A        2.6190    0.2260   -1.2040 hc        1 MJA      0.036200
     27 H13        -0.0750    0.6560   -2.6720 h1        1 MJA      0.028700
     28 HO13        0.3890   -1.3050   -1.4190 ho        1 MJA      0.464000
     29 H12         2.0370    1.3410   -3.9970 hc        1 MJA      0.048200
     30 H12A        2.6110   -0.3760   -3.8370 hc        1 MJA      0.048200
     31 H11        -0.1800    0.3090   -4.9800 h1        1 MJA      0.033700
     32 HO11        0.5570   -1.8780   -4.3270 ho        1 MJA      0.436000
     33 H10         2.4000   -0.2430   -6.5920 hc        1 MJA      0.038700
     34 H10A        1.8220    1.4390   -6.2540 hc        1 MJA      0.038700
     35 H9         -0.2670    1.0980   -7.3820 hc        1 MJA      0.062200
     36 H9A        -0.0390   -0.6890   -7.5010 hc        1 MJA      0.062200
     37 H1          1.6420    1.5020   -8.8870 hc        1 MJA      0.040700
     38 H8A        -0.1250   -0.6250  -10.2310 hc        1 MJA      0.069700
     39 H2          3.1460   -0.2590   -8.5300 hc        1 MJA      0.057700
     40 H2M         2.6650   -2.6830   -9.0590 hc        1 MJA      0.044033
     41 H2MA        1.6900   -2.0350   -7.6710 hc        1 MJA      0.044033
     42 H2MB        0.9170   -2.2690   -9.2940 hc        1 MJA      0.044033
     43 H3          3.6140   -1.1490  -10.7880 ha        1 MJA      0.118000
     44 H4          2.4770    0.1410  -12.5980 ha        1 MJA      0.121000
     45 H5          1.2550    2.3910  -12.7970 ha        1 MJA      0.120000
     46 H6         -1.3060    2.8440  -12.2710 hc        1 MJA      0.046700
     47 H6M         0.3000    4.6790  -12.7300 hc        1 MJA      0.034367
     48 H6MA        0.8710    4.6540  -11.0110 hc        1 MJA      0.034367
     49 H6MB       -0.8330    5.1400  -11.3900 hc        1 MJA      0.034367
     50 H7         -1.9000    3.2800   -9.9550 hc        1 MJA      0.050700
     51 H7A        -0.1940    3.0800   -9.3860 hc        1 MJA      0.050700
     52 H8         -1.7980    0.8780  -10.8560 h1        1 MJA      0.021700
     53 HO8        -2.6250    1.4620   -8.7520 ho        1 MJA      0.395000
@<TRIPOS>BOND
     1    1    2 1   
     2    2    3 1   
     3    2    4 1   
     4    4    5 1   
     5    4   25 1   
     6    4   26 1   
     7    5    6 1   
     8    5    7 1   
     9    5   27 1   
    10    6   28 1   
    11    7    8 1   
    12    7   29 1   
    13    7   30 1   
    14    8    9 1   
    15    8   10 1   
    16    8   31 1   
    17    9   32 1   
    18   10   11 1   
    19   10   33 1   
    20   10   34 1   
    21   11   12 1   
    22   11   35 1   
    23   11   36 1   
    24   12   13 1   
    25   12   14 1   
    26   12   37 1   
    27   13   18 1   
    28   13   23 1   
    29   13   38 1   
    30   14   15 1   
    31   14   16 1   
    32   14   39 1   
    33   15   40 1   
    34   15   41 1   
    35   15   42 1   
    36   16   17 2   
    37   16   43 1   
    38   17   18 1   
    39   17   44 1   
    40   18   19 2   
    41   19   20 1   
    42   19   45 1   
    43   20   21 1   
    44   20   22 1   
    45   20   46 1   
    46   21   47 1   
    47   21   48 1   
    48   21   49 1   
    49   22   23 1   
    50   22   50 1   
    51   22   51 1   
    52   23   24 1   
    53   23   52 1   
    54   24   53 1   
@<TRIPOS>SUBSTRUCTURE
     1 MJA         1 TEMP              0 ****  ****    0 ROOT
