@<TRIPOS>MOLECULE
MJA
   53    54     1     0     0
SMALL
bcc


@<TRIPOS>ATOM
      1 O16         6.8600    1.1140    0.2290 o         1 MJA     -0.846800
      2 C15         6.4560    1.0710   -0.9740 c         1 MJA      0.909600
      3 O15         6.9920    1.7140   -1.9180 o         1 MJA     -0.846800
      4 C14         5.2550    0.1690   -1.3030 c3        1 MJA     -0.234400
      5 C13         4.2050    0.2080   -0.2050 c3        1 MJA      0.170100
      6 O13         4.6680   -0.4130    0.9880 oh        1 MJA     -0.672800
      7 C12         2.9370   -0.5330   -0.6300 c3        1 MJA     -0.122400
      8 C11         1.7730   -0.2850    0.3230 c3        1 MJA      0.153100
      9 O11         1.8930   -1.0570    1.5130 oh        1 MJA     -0.634800
     10 C10         0.4450   -0.6910   -0.3170 c3        1 MJA     -0.081400
     11 C9         -0.7250   -0.1360    0.4710 c3        1 MJA     -0.075400
     12 C1         -2.0540   -0.7450    0.0690 c3        1 MJA     -0.033700
     13 C8A        -3.2640   -0.1610    0.8190 c3        1 MJA     -0.017500
     14 C2         -2.0720   -2.2770    0.2420 c3        1 MJA     -0.037500
     15 C2M        -1.4630   -2.7350    1.5560 c3        1 MJA     -0.094100
     16 C3         -3.4410   -2.8560    0.1050 c2        1 MJA     -0.140200
     17 C4         -4.5600   -2.1200    0.0440 ce        1 MJA     -0.155000
     18 C4A        -4.4850   -0.6650    0.0920 ce        1 MJA     -0.069200
     19 C5         -5.3540    0.1230   -0.5610 c2        1 MJA     -0.177200
     20 C6         -5.2140    1.6010   -0.6670 c3        1 MJA     -0.024500
     21 C6M        -5.5660    2.0790   -2.0620 c3        1 MJA     -0.086100
     22 C7         -3.8040    2.0440   -0.2930 c3        1 MJA     -0.111400
     23 C8         -3.3990    1.3540    1.0040 c3        1 MJA      0.152100
     24 O8         -2.2080    1.8850    1.5580 oh        1 MJA     -0.583800
     25 H14         4.8040    0.4990   -2.2710 hc        1 MJA      0.036200
     26 H14A        5.6320   -0.8770   -1.4250 hc        1 MJA      0.036200
     27 H13         3.9550    1.2830    0.0310 h1        1 MJA      0.028700
     28 HO13        5.5580   -0.0540    1.1590 ho        1 MJA      0.464000
     29 H12         2.6570   -0.1850   -1.6570 hc        1 MJA      0.048200
     30 H12A        3.1500   -1.6320   -0.6730 hc        1 MJA      0.048200
     31 H11         1.7410    0.8060    0.6070 h1        1 MJA      0.033700
     32 HO11        2.8110   -0.9730    1.8100 ho        1 MJA      0.436000
     33 H10         0.4090   -0.3040   -1.3680 hc        1 MJA      0.038700
     34 H10A        0.4070   -1.8090   -0.3620 hc        1 MJA      0.038700
     35 H9         -0.5510   -0.2820    1.5690 hc        1 MJA      0.062200
     36 H9A        -0.7640    0.9720    0.2880 hc        1 MJA      0.062200
     37 H1         -2.2010   -0.5340   -1.0300 hc        1 MJA      0.040700
     38 H8A        -3.2480   -0.5980    1.8600 hc        1 MJA      0.069700
     39 H2         -1.4480   -2.7100   -0.5960 hc        1 MJA      0.057700
     40 H2M        -1.9730   -2.2490    2.4220 hc        1 MJA      0.044033
     41 H2MA       -1.5650   -3.8420    1.6600 hc        1 MJA      0.044033
     42 H2MB       -0.3750   -2.4730    1.5950 hc        1 MJA      0.044033
     43 H3         -3.4800   -3.9560    0.0600 ha        1 MJA      0.118000
     44 H4         -5.5550   -2.5730   -0.0730 ha        1 MJA      0.121000
     45 H5         -6.2230   -0.3070   -1.0820 ha        1 MJA      0.120000
     46 H6         -5.9390    2.0700    0.0620 hc        1 MJA      0.046700
     47 H6M        -6.6210    1.8100   -2.3100 hc        1 MJA      0.034367
     48 H6MA       -5.4540    3.1870   -2.1270 hc        1 MJA      0.034367
     49 H6MB       -4.8940    1.6090   -2.8190 hc        1 MJA      0.034367
     50 H7         -3.0810    1.7750   -1.1050 hc        1 MJA      0.050700
     51 H7A        -3.7770    3.1560   -0.1660 hc        1 MJA      0.050700
     52 H8         -4.2290    1.5180    1.7590 h1        1 MJA      0.021700
     53 HO8        -2.3150    2.8430    1.5790 ho        1 MJA      0.395000
@<TRIPOS>BOND
     1    1    2 1   
     2    2    3 1   
     3    2    4 1   
     4    4    5 1   
     5    4   25 1   
     6    4   26 1   
     7    5    6 1   
     8    5    7 1   
     9    5   27 1   
    10    6   28 1   
    11    7    8 1   
    12    7   29 1   
    13    7   30 1   
    14    8    9 1   
    15    8   10 1   
    16    8   31 1   
    17    9   32 1   
    18   10   11 1   
    19   10   33 1   
    20   10   34 1   
    21   11   12 1   
    22   11   35 1   
    23   11   36 1   
    24   12   13 1   
    25   12   14 1   
    26   12   37 1   
    27   13   18 1   
    28   13   23 1   
    29   13   38 1   
    30   14   15 1   
    31   14   16 1   
    32   14   39 1   
    33   15   40 1   
    34   15   41 1   
    35   15   42 1   
    36   16   17 2   
    37   16   43 1   
    38   17   18 1   
    39   17   44 1   
    40   18   19 2   
    41   19   20 1   
    42   19   45 1   
    43   20   21 1   
    44   20   22 1   
    45   20   46 1   
    46   21   47 1   
    47   21   48 1   
    48   21   49 1   
    49   22   23 1   
    50   22   50 1   
    51   22   51 1   
    52   23   24 1   
    53   23   52 1   
    54   24   53 1   
@<TRIPOS>SUBSTRUCTURE
     1 MJA         1 TEMP              0 ****  ****    0 ROOT
