@<TRIPOS>MOLECULE
MJF
   37    38     1     0     0
SMALL
bcc


@<TRIPOS>ATOM
      1 O18         0.0930    0.9990   -0.4770 o         1 MJF     -0.573100
      2 C8          1.0560    0.2420   -0.2840 c         1 MJF      0.588700
      3 C2          1.9080    0.4500    0.9320 ca        1 MJF     -0.155600
      4 C3          1.8590    1.6800    1.5990 ca        1 MJF     -0.080500
      5 C4          2.6390    1.9090    2.7300 ca        1 MJF     -0.152000
      6 C5          3.4710    0.8900    3.1990 ca        1 MJF      0.022400
      7 Cl7         4.4290    1.1620    4.5910 cl        1 MJF     -0.148400
      8 C6          3.5310   -0.3430    2.5480 ca        1 MJF     -0.152000
      9 C1          2.7490   -0.5610    1.4120 ca        1 MJF     -0.080500
     10 C9          1.4510   -0.9170   -1.1260 c3        1 MJF     -0.200400
     11 C10         0.7770   -1.0740   -2.4930 c3        1 MJF      0.032600
     12 C11         0.6570   -2.5810   -2.7660 c3        1 MJF     -0.269700
     13 C15        -0.0790   -2.9110   -4.0780 c         1 MJF      0.923100
     14 O17        -1.1360   -3.6110   -3.9700 o         1 MJF     -0.874550
     15 O16         0.3070   -2.4720   -5.2000 o         1 MJF     -0.874550
     16 C12         1.9850   -3.3130   -2.4940 c         1 MJF      0.923100
     17 O14         2.2540   -3.5690   -1.2680 o         1 MJF     -0.874550
     18 O13         2.7970   -3.6340   -3.4070 o         1 MJF     -0.874550
     19 C19         1.5030   -0.2370   -3.5040 ca        1 MJF     -0.040300
     20 C24         1.3550    1.1570   -3.4510 ca        1 MJF     -0.098000
     21 C23         2.0320    1.9840   -4.3470 ca        1 MJF     -0.169500
     22 C22         2.8620    1.4260   -5.3170 ca        1 MJF     -0.167000
     23 C21         2.9990    0.0400   -5.3890 ca        1 MJF     -0.169500
     24 C20         2.3240   -0.7930   -4.4970 ca        1 MJF     -0.098000
     25 H91C        2.5660   -0.9110   -1.2760 hc        1 MJF      0.111200
     26 H92C        1.2280   -1.8520   -0.5210 hc        1 MJF      0.111200
     27 H3          1.1890    2.4670    1.2160 ha        1 MJF      0.174500
     28 H1          2.8030   -1.5400    0.8930 ha        1 MJF      0.174500
     29 H4          2.5970    2.8790    3.2450 ha        1 MJF      0.134500
     30 H6          4.1900   -1.1420    2.9190 ha        1 MJF      0.134500
     31 H10        -0.2740   -0.6670   -2.4250 hc        1 MJF      0.046700
     32 H11        -0.0390   -2.9660   -1.9580 hc        1 MJF      0.038700
     33 H24         0.6910    1.5990   -2.6930 ha        1 MJF      0.181000
     34 H20         2.3890   -1.9040   -4.5820 ha        1 MJF      0.181000
     35 H23         1.9050    3.0730   -4.2890 ha        1 MJF      0.096500
     36 H22         3.3960    2.0740   -6.0240 ha        1 MJF      0.084000
     37 H21         3.6340   -0.4080   -6.1660 ha        1 MJF      0.096500
@<TRIPOS>BOND
     1    1    2 2   
     2    2    3 1   
     3    2   10 1   
     4    3    4 ar  
     5    3    9 ar  
     6    4    5 ar  
     7    4   27 1   
     8    5    6 ar  
     9    5   29 1   
    10    6    7 1   
    11    6    8 ar  
    12    8    9 ar  
    13    8   30 1   
    14    9   28 1   
    15   10   11 1   
    16   10   25 1   
    17   10   26 1   
    18   11   12 1   
    19   11   19 1   
    20   11   31 1   
    21   12   13 1   
    22   12   16 1   
    23   12   32 1   
    24   13   14 1   
    25   13   15 1   
    26   16   17 1   
    27   16   18 1   
    28   19   20 ar  
    29   19   24 ar  
    30   20   21 ar  
    31   20   33 1   
    32   21   22 ar  
    33   21   35 1   
    34   22   23 ar  
    35   22   36 1   
    36   23   24 ar  
    37   23   37 1   
    38   24   34 1   
@<TRIPOS>SUBSTRUCTURE
     1 MJF         1 TEMP              0 ****  ****    0 ROOT
