@<TRIPOS>MOLECULE
MJF
   37    38     1     0     0
SMALL
bcc


@<TRIPOS>ATOM
      1 O18         0.8940    0.0100    2.7740 o         1 MJF     -0.587100
      2 C8          0.9680    0.2570    1.5590 c         1 MJF      0.601700
      3 C2          2.2280   -0.0450    0.8270 ca        1 MJF     -0.164600
      4 C3          3.4090   -0.1860    1.5730 ca        1 MJF     -0.078500
      5 C4          4.6230   -0.4470    0.9470 ca        1 MJF     -0.159000
      6 C5          4.6500   -0.5840   -0.4450 ca        1 MJF      0.027400
      7 CL7         6.1440   -0.9010   -1.2220 cl        1 MJF     -0.161400
      8 C6          3.4840   -0.4650   -1.2000 ca        1 MJF     -0.159000
      9 C1          2.2680   -0.1930   -0.5640 ca        1 MJF     -0.078500
     10 C9         -0.1410    0.9450    0.8220 c3        1 MJF     -0.195400
     11 C10        -1.3890    0.0650    0.6600 c3        1 MJF      0.020600
     12 C11        -1.2140   -0.9190   -0.5000 c3        1 MJF     -0.260700
     13 C15        -2.0870   -2.1760   -0.3190 c         1 MJF      0.931100
     14 O17        -1.8050   -3.2040   -1.0030 o         1 MJF     -0.872300
     15 O16        -2.9760   -2.2060    0.5900 o         1 MJF     -0.872300
     16 C12        -1.2810   -0.1940   -1.8530 c         1 MJF      0.931100
     17 O14        -0.2360    0.4780   -2.1880 o         1 MJF     -0.872300
     18 O13        -2.2910   -0.2160   -2.6000 o         1 MJF     -0.872300
     19 C19        -2.5970    0.9450    0.5400 ca        1 MJF     -0.008300
     20 C24        -3.7960    0.5510    1.1550 ca        1 MJF     -0.110000
     21 C23        -4.9020    1.3980    1.1480 ca        1 MJF     -0.158000
     22 C22        -4.8360    2.6390    0.5140 ca        1 MJF     -0.171000
     23 C21        -3.6670    3.0120   -0.1470 ca        1 MJF     -0.158000
     24 C20        -2.5570    2.1670   -0.1440 ca        1 MJF     -0.110000
     25 H91C       -0.4080    1.8590    1.4190 hc        1 MJF      0.077200
     26 H92C        0.1910    1.2750   -0.2030 hc        1 MJF      0.077200
     27 H3          3.3610   -0.0950    2.6700 ha        1 MJF      0.201000
     28 H1          1.3340   -0.0980   -1.1870 ha        1 MJF      0.201000
     29 H4          5.5430   -0.5520    1.5370 ha        1 MJF      0.135000
     30 H6          3.5020   -0.5860   -2.2930 ha        1 MJF      0.135000
     31 H10        -1.5120   -0.5530    1.5990 hc        1 MJF      0.068700
     32 H11        -0.1570   -1.3150   -0.4220 hc        1 MJF      0.024700
     33 H24        -3.8520   -0.4690    1.5820 ha        1 MJF      0.169500
     34 H20        -1.6590    2.4270   -0.7270 ha        1 MJF      0.169500
     35 H23        -5.8350    1.0790    1.6300 ha        1 MJF      0.095500
     36 H22        -5.7070    3.3070    0.5140 ha        1 MJF      0.086000
     37 H21        -3.6230    3.9650   -0.6910 ha        1 MJF      0.095500
@<TRIPOS>BOND
     1    1    2 2   
     2    2    3 1   
     3    2   10 1   
     4    3    4 ar  
     5    3    9 ar  
     6    4    5 ar  
     7    4   27 1   
     8    5    6 ar  
     9    5   29 1   
    10    6    7 1   
    11    6    8 ar  
    12    8    9 ar  
    13    8   30 1   
    14    9   28 1   
    15   10   11 1   
    16   10   25 1   
    17   10   26 1   
    18   11   12 1   
    19   11   19 1   
    20   11   31 1   
    21   12   13 1   
    22   12   16 1   
    23   12   32 1   
    24   13   14 1   
    25   13   15 1   
    26   16   17 1   
    27   16   18 1   
    28   19   20 ar  
    29   19   24 ar  
    30   20   21 ar  
    31   20   33 1   
    32   21   22 ar  
    33   21   35 1   
    34   22   23 ar  
    35   22   36 1   
    36   23   24 ar  
    37   23   37 1   
    38   24   34 1   
@<TRIPOS>SUBSTRUCTURE
     1 MJF         1 TEMP              0 ****  ****    0 ROOT
