@<TRIPOS>MOLECULE
MJF
   37    38     1     0     0
SMALL
bcc


@<TRIPOS>ATOM
      1 O18         0.1060    0.9970   -0.4550 o         1 MJF     -0.573100
      2 C8          1.0600    0.2270   -0.2740 c         1 MJF      0.588700
      3 C2          1.9120    0.4010    0.9470 ca        1 MJF     -0.155600
      4 C3          1.8760    1.6190    1.6370 ca        1 MJF     -0.080500
      5 C4          2.6560    1.8180    2.7730 ca        1 MJF     -0.152000
      6 C5          3.4770    0.7810    3.2240 ca        1 MJF      0.022400
      7 CL7         4.4350    1.0150    4.6220 cl        1 MJF     -0.148400
      8 C6          3.5230   -0.4410    2.5500 ca        1 MJF     -0.152000
      9 C1          2.7410   -0.6280    1.4090 ca        1 MJF     -0.080500
     10 C9          1.4440   -0.9210   -1.1380 c3        1 MJF     -0.200400
     11 C10         0.7710   -1.0450   -2.5080 c3        1 MJF      0.032600
     12 C11         0.6340   -2.5440   -2.8100 c3        1 MJF     -0.269700
     13 C15        -0.1020   -2.8410   -4.1300 c         1 MJF      0.923100
     14 O17        -1.1670   -3.5310   -4.0370 o         1 MJF     -0.874550
     15 O16         0.2910   -2.3850   -5.2420 o         1 MJF     -0.874550
     16 C12         1.9540   -3.2960   -2.5500 c         1 MJF      0.923100
     17 O14         2.2170   -3.5790   -1.3290 o         1 MJF     -0.874550
     18 O13         2.7640   -3.6080   -3.4670 o         1 MJF     -0.874550
     19 C19         1.5070   -0.1960   -3.5020 ca        1 MJF     -0.040300
     20 C24         1.3750    1.1980   -3.4230 ca        1 MJF     -0.098000
     21 C23         2.0630    2.0340   -4.3010 ca        1 MJF     -0.169500
     22 C22         2.8880    1.4860   -5.2800 ca        1 MJF     -0.167000
     23 C21         3.0100    0.1000   -5.3790 ca        1 MJF     -0.169500
     24 C20         2.3240   -0.7420   -4.5030 ca        1 MJF     -0.098000
     25 H91C        1.2100   -1.8650   -0.5500 hc        1 MJF      0.111200
     26 H92C        2.5590   -0.9250   -1.2860 hc        1 MJF      0.111200
     27 H3          1.2160    2.4210    1.2670 ha        1 MJF      0.174500
     28 H1          2.7850   -1.5970    0.8720 ha        1 MJF      0.174500
     29 H4          2.6250    2.7780    3.3070 ha        1 MJF      0.134500
     30 H6          4.1730   -1.2530    2.9070 ha        1 MJF      0.134500
     31 H10        -0.2760   -0.6270   -2.4340 hc        1 MJF      0.046700
     32 H11        -0.0670   -2.9370   -2.0110 hc        1 MJF      0.038700
     33 H24         0.7140    1.6330   -2.6580 ha        1 MJF      0.181000
     34 H20         2.3780   -1.8520   -4.6090 ha        1 MJF      0.181000
     35 H23         1.9470    3.1230   -4.2230 ha        1 MJF      0.096500
     36 H22         3.4310    2.1420   -5.9740 ha        1 MJF      0.084000
     37 H21         3.6420   -0.3400   -6.1620 ha        1 MJF      0.096500
@<TRIPOS>BOND
     1    1    2 2   
     2    2    3 1   
     3    2   10 1   
     4    3    4 ar  
     5    3    9 ar  
     6    4    5 ar  
     7    4   27 1   
     8    5    6 ar  
     9    5   29 1   
    10    6    7 1   
    11    6    8 ar  
    12    8    9 ar  
    13    8   30 1   
    14    9   28 1   
    15   10   11 1   
    16   10   25 1   
    17   10   26 1   
    18   11   12 1   
    19   11   19 1   
    20   11   31 1   
    21   12   13 1   
    22   12   16 1   
    23   12   32 1   
    24   13   14 1   
    25   13   15 1   
    26   16   17 1   
    27   16   18 1   
    28   19   20 ar  
    29   19   24 ar  
    30   20   21 ar  
    31   20   33 1   
    32   21   22 ar  
    33   21   35 1   
    34   22   23 ar  
    35   22   36 1   
    36   23   24 ar  
    37   23   37 1   
    38   24   34 1   
@<TRIPOS>SUBSTRUCTURE
     1 MJF         1 TEMP              0 ****  ****    0 ROOT
