@<TRIPOS>MOLECULE
MJF
   37    33     1     0     0
SMALL
bcc


@<TRIPOS>ATOM
      1 O18        -1.8210   -0.8390    1.0990 o         1 MJF     -0.321000
      2 C8         -0.6110   -0.8270    1.2030 c1        1 MJF      0.276000
      3 C2          0.0550   -1.5360    2.3620 c1        1 MJF     -0.120000
      4 C3         -0.7180   -2.1680    3.3240 c2        1 MJF     -0.090000
      5 C4         -0.1080   -2.8640    4.3550 c1        1 MJF     -0.152000
      6 C5          1.2750   -2.9290    4.4250 c1        1 MJF     -0.059000
      7 CL7         2.0410   -3.8590    5.6860 cl        1 MJF     -0.069000
      8 C6          2.0470   -2.2970    3.4640 c1        1 MJF     -0.142000
      9 C1          1.4380   -1.6010    2.4320 c1        1 MJF     -0.076000
     10 C9          0.2330   -0.1370    0.1530 c3        1 MJF     -0.224000
     11 C10        -0.6590    0.3610   -0.9640 c3        1 MJF     -0.050000
     12 C11        -0.5780   -0.5920   -2.1360 c3        1 MJF     -0.201000
     13 C15        -1.3290   -0.0090   -3.3120 c2        1 MJF      0.347500
     14 O17        -0.7450    0.1520   -4.4150 o         1 MJF     -0.610250
     15 O16        -2.5450    0.2940   -3.1940 o         1 MJF     -0.610250
     16 C12        -1.1940   -1.9190   -1.7510 c2        1 MJF      0.347500
     17 O14        -2.4300   -1.9970   -1.5270 o         1 MJF     -0.610250
     18 O13        -0.4760   -2.9500   -1.6850 o         1 MJF     -0.610250
     19 C19        -0.2020    1.7360   -1.3990 c2        1 MJF     -0.005000
     20 C24        -1.0680    2.8140   -1.3070 c2        1 MJF     -0.114000
     21 C23        -0.6480    4.0750   -1.7010 c1        1 MJF     -0.149000
     22 C22         0.6370    4.2580   -2.1870 c1        1 MJF     -0.164000
     23 C21         1.5030    3.1790   -2.2790 c1        1 MJF     -0.164000
     24 C20         1.0830    1.9180   -1.8850 c1        1 MJF     -0.154000
     25 H91C        0.8860   -0.7690   -0.2090 hc        1 MJF      0.151500
     26 H92C        0.7020    0.6200    0.5570 hc        1 MJF      0.151500
     27 H3         -1.6920   -2.1220    3.2750 ha        1 MJF      0.150000
     28 H1          1.9820   -1.1560    1.7550 ha        1 MJF      0.171000
     29 H4         -0.6520   -3.3100    5.0320 ha        1 MJF      0.129000
     30 H6          3.0210   -2.3370    3.5160 ha        1 MJF      0.138000
     31 H10        -1.5810    0.4090   -0.6470 hc        1 MJF      0.149000
     32 H11         0.3580   -0.7270   -2.3820 hc        1 MJF      0.080000
     33 H24        -1.9730    2.6860   -0.9650 ha        1 MJF      0.207000
     34 H20         1.6880    1.1560   -1.9610 ha        1 MJF      0.112000
     35 H23        -1.2580    4.8350   -1.6370 ha        1 MJF      0.103000
     36 H22         0.9290    5.1440   -2.4740 ha        1 MJF      0.091500
     37 H21         2.4080    3.3070   -2.6210 ha        1 MJF      0.091500
@<TRIPOS>BOND
     1    1    2 1   
     2    2   10 1   
     3    3    4 1   
     4    3    9 1   
     5    4    5 1   
     6    4   27 1   
     7    5   29 1   
     8    6    7 1   
     9    6    8 1   
    10    8   30 1   
    11    9   28 1   
    12   10   11 1   
    13   10   25 1   
    14   10   26 1   
    15   11   12 1   
    16   11   19 1   
    17   11   31 1   
    18   12   13 1   
    19   12   16 1   
    20   12   32 1   
    21   13   14 1   
    22   13   15 1   
    23   16   17 1   
    24   16   18 1   
    25   19   20 1   
    26   19   24 1   
    27   20   21 1   
    28   20   33 1   
    29   21   35 1   
    30   22   23 1   
    31   22   36 1   
    32   23   37 1   
    33   24   34 1   
@<TRIPOS>SUBSTRUCTURE
     1 MJF         1 TEMP              0 ****  ****    0 ROOT
