@<TRIPOS>MOLECULE
MJG
   84    87     1     0     0
SMALL
bcc


@<TRIPOS>ATOM
      1 C1          5.8430   -0.4890   -0.6450 ca        1 MJG      0.171100
      2 C2          5.3250   -0.1940    0.6330 ca        1 MJG     -0.177600
      3 C3          4.4130   -1.0760    1.2080 ca        1 MJG     -0.013000
      4 C4          4.0190   -2.2490    0.5510 ca        1 MJG     -0.099100
      5 C5          4.5580   -2.5450   -0.7100 ca        1 MJG      0.027700
      6 C6          5.4630   -1.6600   -1.3080 ca        1 MJG     -0.223000
      7 O7          6.6940    0.4550   -1.1820 os        1 MJG     -0.330900
      8 C8          7.4550    0.0480   -2.3160 c3        1 MJG      0.112700
      9 C9          5.7920    0.9890    1.4130 c         1 MJG      0.685700
     10 N10         5.2490    2.2410    1.1330 n         1 MJG     -0.450800
     11 O11         6.5900    0.8440    2.3600 o         1 MJG     -0.588100
     12 C12         4.5120    2.5150   -0.0760 c3        1 MJG      0.063000
     13 C13         5.2650    3.4480   -1.0600 c3        1 MJG      0.062000
     14 N14         5.8170    4.6220   -0.4310 n         1 MJG     -0.468800
     15 C15         6.5440    4.3640    0.7950 c3        1 MJG      0.062000
     16 C16         5.8020    3.4200    1.7700 c3        1 MJG      0.063000
     17 C17         5.4080    5.9140   -0.7440 c         1 MJG      0.656100
     18 C18         4.5740    6.1540   -1.9770 c3        1 MJG     -0.169100
     19 O19         5.7770    6.8750   -0.0370 o         1 MJG     -0.608100
     20 S20         3.0030   -3.2910    1.4470 ss        1 MJG     -0.051800
     21 C21         1.1130   -4.2840   -0.2810 cc        1 MJG      0.421200
     22 C22         1.5460   -3.3380    0.6560 cd        1 MJG     -0.272500
     23 S23         0.2810   -2.3010    1.0240 ss        1 MJG      0.076700
     24 C24        -0.7720   -3.1240   -0.0490 cd        1 MJG      0.489300
     25 N25        -0.1850   -4.1840   -0.6920 nc        1 MJG     -0.710000
     26 N26        -2.1030   -2.7820   -0.2640 n         1 MJG     -0.524400
     27 C27        -2.7270   -1.6970    0.3500 c         1 MJG      0.675700
     28 C28        -4.1580   -1.4700    0.0170 ca        1 MJG     -0.147600
     29 C29        -5.0600   -2.5270   -0.1420 ca        1 MJG     -0.089000
     30 C30        -6.3960   -2.2600   -0.4320 ca        1 MJG     -0.126500
     31 C31        -6.8410   -0.9410   -0.5720 ca        1 MJG     -0.060300
     32 C32        -5.9370    0.1140   -0.4050 ca        1 MJG     -0.126500
     33 C33        -4.6020   -0.1480   -0.1050 ca        1 MJG     -0.089000
     34 O34        -2.0910   -0.9550    1.1230 o         1 MJG     -0.577100
     35 C35        -8.2750   -0.6750   -0.9310 c3        1 MJG      0.205100
     36 N36        -8.8800    0.3740   -0.1350 n3        1 MJG     -0.825200
     37 C37       -10.3070    0.5580   -0.3740 c3        1 MJG      0.184500
     38 C38       -10.7780    1.9560    0.1240 c3        1 MJG     -0.044000
     39 C39       -10.1120    3.0350   -0.7230 c3        1 MJG     -0.086433
     40 C40       -12.2870    2.0710   -0.0520 c3        1 MJG     -0.086433
     41 C41       -10.4280    2.1870    1.5850 c3        1 MJG     -0.086433
     42 C42         4.1900   -3.7860   -1.4320 c3        1 MJG     -0.074800
     43 C43       -11.1920   -0.5530    0.1980 c3        1 MJG     -0.131100
     44 H3          4.0050   -0.8510    2.2080 ha        1 MJG      0.161000
     45 H6          5.8760   -1.9000   -2.2980 ha        1 MJG      0.143000
     46 H8          8.1610    0.9030   -2.4720 h1        1 MJG      0.049367
     47 H8A         8.0140   -0.8950   -2.1030 h1        1 MJG      0.049367
     48 H8B         6.7890   -0.0800   -3.2040 h1        1 MJG      0.049367
     49 H12         4.2780    1.5620   -0.6250 h1        1 MJG      0.067450
     50 H12A        3.5400    3.0020    0.2230 h1        1 MJG      0.067450
     51 H13         6.1190    2.8640   -1.5160 h1        1 MJG      0.065950
     52 H13A        4.5500    3.7240   -1.8810 h1        1 MJG      0.065950
     53 H15         7.5320    3.8990    0.5150 h1        1 MJG      0.065950
     54 H15A        6.7440    5.3340    1.3320 h1        1 MJG      0.065950
     55 H16         4.9460    3.9780    2.2460 h1        1 MJG      0.067450
     56 H16A        6.5250    3.1150    2.5780 h1        1 MJG      0.067450
     57 H18         3.5540    5.7200   -1.8470 hc        1 MJG      0.065033
     58 H18A        4.4770    7.2580   -2.1270 hc        1 MJG      0.065033
     59 H18B        5.0550    5.7090   -2.8810 hc        1 MJG      0.065033
     60 HN26       -2.6250   -3.3350   -0.9110 hn        1 MJG      0.342500
     61 H29        -4.7340   -3.5720   -0.0210 ha        1 MJG      0.147500
     62 H30        -7.1030   -3.0960   -0.5510 ha        1 MJG      0.149500
     63 H32        -6.2820    1.1550   -0.5070 ha        1 MJG      0.149500
     64 H33        -3.8900    0.6800    0.0480 ha        1 MJG      0.147500
     65 H35        -8.3060   -0.3390   -2.0100 h1        1 MJG      0.041200
     66 H35A       -8.8490   -1.6490   -0.8740 h1        1 MJG      0.041200
     67 HN36       -8.7050    0.2300    0.8420 hn        1 MJG      0.365800
     68 H37       -10.4540    0.5560   -1.4980 h1        1 MJG      0.053700
     69 H39       -10.3770    2.9010   -1.7990 hc        1 MJG      0.035922
     70 H39A      -10.4600    4.0440   -0.3940 hc        1 MJG      0.035922
     71 H39B       -9.0020    2.9950   -0.6200 hc        1 MJG      0.035922
     72 H40       -12.8220    1.4440    0.7000 hc        1 MJG      0.035922
     73 H40A      -12.6050    3.1330    0.0910 hc        1 MJG      0.035922
     74 H40B      -12.5890    1.7470   -1.0760 hc        1 MJG      0.035922
     75 H41        -9.3280    2.3260    1.7160 hc        1 MJG      0.035922
     76 H41A      -10.9400    3.1080    1.9550 hc        1 MJG      0.035922
     77 H41B      -10.7580    1.3260    2.2150 hc        1 MJG      0.035922
     78 H42         3.2060   -3.6490   -1.9490 hc        1 MJG      0.057367
     79 H42A        4.9590   -4.0520   -2.1990 hc        1 MJG      0.057367
     80 H42B        4.0900   -4.6390   -0.7120 hc        1 MJG      0.057367
     81 H43       -12.2230   -0.4710   -0.2210 hc        1 MJG      0.039700
     82 H43A      -10.7940   -1.5610   -0.0740 hc        1 MJG      0.039700
     83 H43B      -11.2530   -0.4890    1.3100 hc        1 MJG      0.039700
     84 H21         1.7320   -5.0900   -0.6970 h4        1 MJG      0.046100
@<TRIPOS>BOND
     1    1    2 ar  
     2    1    6 ar  
     3    1    7 1   
     4    2    3 ar  
     5    2    9 1   
     6    3    4 ar  
     7    3   44 1   
     8    4    5 ar  
     9    4   20 1   
    10    5    6 ar  
    11    5   42 1   
    12    6   45 1   
    13    7    8 1   
    14    8   46 1   
    15    8   47 1   
    16    8   48 1   
    17    9   10 1   
    18    9   11 2   
    19   10   12 1   
    20   10   16 1   
    21   12   13 1   
    22   12   49 1   
    23   12   50 1   
    24   13   14 1   
    25   13   51 1   
    26   13   52 1   
    27   14   15 1   
    28   14   17 1   
    29   15   16 1   
    30   15   53 1   
    31   15   54 1   
    32   16   55 1   
    33   16   56 1   
    34   17   18 1   
    35   17   19 2   
    36   18   57 1   
    37   18   58 1   
    38   18   59 1   
    39   20   22 1   
    40   21   22 2   
    41   21   25 1   
    42   21   84 1   
    43   22   23 1   
    44   23   24 1   
    45   24   25 2   
    46   24   26 1   
    47   26   27 1   
    48   26   60 1   
    49   27   28 1   
    50   27   34 2   
    51   28   29 ar  
    52   28   33 ar  
    53   29   30 ar  
    54   29   61 1   
    55   30   31 ar  
    56   30   62 1   
    57   31   32 ar  
    58   31   35 1   
    59   32   33 ar  
    60   32   63 1   
    61   33   64 1   
    62   35   36 1   
    63   35   65 1   
    64   35   66 1   
    65   36   37 1   
    66   36   67 1   
    67   37   38 1   
    68   37   43 1   
    69   37   68 1   
    70   38   39 1   
    71   38   40 1   
    72   38   41 1   
    73   39   69 1   
    74   39   70 1   
    75   39   71 1   
    76   40   72 1   
    77   40   73 1   
    78   40   74 1   
    79   41   75 1   
    80   41   76 1   
    81   41   77 1   
    82   42   78 1   
    83   42   79 1   
    84   42   80 1   
    85   43   81 1   
    86   43   82 1   
    87   43   83 1   
@<TRIPOS>SUBSTRUCTURE
     1 MJG         1 TEMP              0 ****  ****    0 ROOT
