@<TRIPOS>MOLECULE
MJG
   85    88     1     0     0
SMALL
bcc


@<TRIPOS>ATOM
      1 C1          0.9740   -0.5690    0.1620 ca        1 MJG      0.149100
      2 C2          1.4880    0.5890    0.7770 ca        1 MJG     -0.150600
      3 C3          0.7260    1.2340    1.7500 ca        1 MJG     -0.058000
      4 C4         -0.5350    0.7590    2.1150 ca        1 MJG     -0.081100
      5 C5         -1.0430   -0.4000    1.4950 ca        1 MJG     -0.011300
      6 C6         -0.2860   -1.0600    0.5260 ca        1 MJG     -0.192000
      7 O7          1.7620   -1.1380   -0.8180 os        1 MJG     -0.333900
      8 C8          1.4450   -2.4790   -1.1810 c3        1 MJG      0.111700
      9 C9          2.8600    1.1030    0.4920 c         1 MJG      0.684700
     10 N10         3.0980    1.7960   -0.6910 n         1 MJG     -0.452800
     11 O11         3.7570    1.0010    1.3530 o         1 MJG     -0.593100
     12 C12         2.1830    1.7840   -1.8060 c3        1 MJG      0.062500
     13 C13         2.7380    1.0510   -3.0540 c3        1 MJG      0.060500
     14 N14         4.0780    1.4520   -3.4060 n         1 MJG     -0.464800
     15 C15         5.0030    1.4620   -2.2920 c3        1 MJG      0.060500
     16 C16         4.4550    2.1760   -1.0350 c3        1 MJG      0.062500
     17 C17         4.3660    2.1830   -4.5580 c         1 MJG      0.653100
     18 C18         3.3620    2.2230   -5.6830 c3        1 MJG     -0.169100
     19 O19         5.4730    2.7460   -4.6810 o         1 MJG     -0.605100
     20 S20        -1.5500    1.4790    3.2720 ss        1 MJG      0.002200
     21 C21         0.3250    2.5300    4.9910 cc        1 MJG      0.430200
     22 C22        -0.6650    2.6710    4.0070 cd        1 MJG     -0.267500
     23 S23        -0.9550    4.3000    3.7400 ss        1 MJG      0.080700
     24 C24         0.2070    4.7500    4.9120 cd        1 MJG      0.459300
     25 N25         0.8310    3.6870    5.5090 nc        1 MJG     -0.686000
     26 N26         0.5050    6.0640    5.2890 n         1 MJG     -0.508400
     27 C27         0.1730    7.1750    4.5310 c         1 MJG      0.659700
     28 C28         0.7260    8.4850    4.9960 ca        1 MJG     -0.093600
     29 C29         1.2480    9.3540    4.0290 ca        1 MJG     -0.081500
     30 C30         1.7500   10.5950    4.4130 ca        1 MJG     -0.108000
     31 C31         1.7210   10.9750    5.7610 ca        1 MJG     -0.168300
     32 C32         1.1930   10.1090    6.7230 ca        1 MJG     -0.108000
     33 C33         0.6990    8.8610    6.3410 ca        1 MJG     -0.081500
     34 O34        -0.5590    7.1110    3.5270 o         1 MJG     -0.556100
     35 C35         2.2870   12.2930    6.1700 c3        1 MJG      0.167100
     36 N36         1.3250   13.4040    5.8810 n4        1 MJG     -0.769000
     37 C37         1.8790   14.7710    6.2090 c3        1 MJG      0.132500
     38 C38         0.7270   15.7790    6.4780 c3        1 MJG     -0.070000
     39 C39         0.0210   15.4080    7.7770 c3        1 MJG     -0.108433
     40 C40         1.3380   17.1670    6.6420 c3        1 MJG     -0.108433
     41 C41        -0.2800   15.8040    5.3410 c3        1 MJG     -0.108433
     42 C42        -2.3830   -0.9080    1.8700 c3        1 MJG     -0.071800
     43 C43         2.8310   15.2450    5.1200 c3        1 MJG     -0.132100
     44 H3          1.1450    2.1240    2.2490 ha        1 MJG      0.149000
     45 H6         -0.6880   -1.9700    0.0550 ha        1 MJG      0.148000
     46 H8          0.4860   -2.5070   -1.7530 h1        1 MJG      0.051033
     47 H8A         1.3860   -3.1350   -0.2790 h1        1 MJG      0.051033
     48 H8B         2.3040   -2.7790   -1.8350 h1        1 MJG      0.051033
     49 H12         1.9640    2.8570   -2.0760 h1        1 MJG      0.065200
     50 H12A        1.2150    1.2860   -1.5220 h1        1 MJG      0.065200
     51 H13         2.7540   -0.0580   -2.8340 h1        1 MJG      0.069200
     52 H13A        2.0240    1.2300   -3.9020 h1        1 MJG      0.069200
     53 H15         5.2350    0.3900   -2.0350 h1        1 MJG      0.069200
     54 H15A        5.9600    1.9730   -2.5950 h1        1 MJG      0.069200
     55 H16         4.4580    3.2890   -1.2120 h1        1 MJG      0.065200
     56 H16A        5.1470    1.9480   -0.1760 h1        1 MJG      0.065200
     57 H18         3.0300    1.1940   -5.9630 hc        1 MJG      0.066700
     58 H18A        3.8470    2.7000   -6.5710 hc        1 MJG      0.066700
     59 H18B        2.4740    2.8320   -5.3890 hc        1 MJG      0.066700
     60 HN26        1.1640    6.1760    6.0320 hn        1 MJG      0.341500
     61 H29         1.2520    9.0500    2.9680 ha        1 MJG      0.173500
     62 H30         2.1820   11.2650    3.6540 ha        1 MJG      0.145500
     63 H32         1.1770   10.3960    7.7860 ha        1 MJG      0.145500
     64 H33         0.2790    8.1860    7.1070 ha        1 MJG      0.173500
     65 H35         2.5120   12.3100    7.2760 hx        1 MJG      0.109200
     66 H35A        3.2420   12.5040    5.6070 hx        1 MJG      0.109200
     67 HN36        0.4680   13.2520    6.4270 hn        1 MJG      0.450300
     68 H37         2.4610   14.6520    7.1740 hx        1 MJG      0.101700
     69 H39         0.7540   15.3080    8.6130 hc        1 MJG      0.056256
     70 H39A       -0.7060   16.2150    8.0480 hc        1 MJG      0.056256
     71 H39B       -0.5600   14.4600    7.6840 hc        1 MJG      0.056256
     72 H40         1.6990   17.5600    5.6610 hc        1 MJG      0.056256
     73 H40A        0.5630   17.8720    7.0330 hc        1 MJG      0.056256
     74 H40B        2.1880   17.1430    7.3650 hc        1 MJG      0.056256
     75 H41        -0.9040   14.8780    5.3200 hc        1 MJG      0.056256
     76 H41A       -0.9740   16.6720    5.4810 hc        1 MJG      0.056256
     77 H41B        0.2270   15.9270    4.3540 hc        1 MJG      0.056256
     78 H42        -2.5210   -1.9690    1.5500 hc        1 MJG      0.059367
     79 H42A       -2.5270   -0.8510    2.9820 hc        1 MJG      0.059367
     80 H42B       -3.1770   -0.2860    1.3830 hc        1 MJG      0.059367
     81 H43         3.3760   16.1500    5.4920 hc        1 MJG      0.076700
     82 H43A        3.5990   14.4700    4.8740 hc        1 MJG      0.076700
     83 H43B        2.2860   15.5230    4.1860 hc        1 MJG      0.076700
     84 H362        1.0690   13.3790    4.8870 hn        1 MJG      0.450300
     85 H21         0.7200    1.5720    5.3610 h4        1 MJG      0.064100
@<TRIPOS>BOND
     1    1    2 ar  
     2    1    6 ar  
     3    1    7 1   
     4    2    3 ar  
     5    2    9 1   
     6    3    4 ar  
     7    3   44 1   
     8    4    5 ar  
     9    4   20 1   
    10    5    6 ar  
    11    5   42 1   
    12    6   45 1   
    13    7    8 1   
    14    8   46 1   
    15    8   47 1   
    16    8   48 1   
    17    9   10 1   
    18    9   11 2   
    19   10   12 1   
    20   10   16 1   
    21   12   13 1   
    22   12   49 1   
    23   12   50 1   
    24   13   14 1   
    25   13   51 1   
    26   13   52 1   
    27   14   15 1   
    28   14   17 1   
    29   15   16 1   
    30   15   53 1   
    31   15   54 1   
    32   16   55 1   
    33   16   56 1   
    34   17   18 1   
    35   17   19 2   
    36   18   57 1   
    37   18   58 1   
    38   18   59 1   
    39   20   22 1   
    40   21   22 2   
    41   21   25 1   
    42   21   85 1   
    43   22   23 1   
    44   23   24 1   
    45   24   25 2   
    46   24   26 1   
    47   26   27 1   
    48   26   60 1   
    49   27   28 1   
    50   27   34 2   
    51   28   29 ar  
    52   28   33 ar  
    53   29   30 ar  
    54   29   61 1   
    55   30   31 ar  
    56   30   62 1   
    57   31   32 ar  
    58   31   35 1   
    59   32   33 ar  
    60   32   63 1   
    61   33   64 1   
    62   35   36 1   
    63   35   65 1   
    64   35   66 1   
    65   36   37 1   
    66   36   67 1   
    67   36   84 1   
    68   37   38 1   
    69   37   43 1   
    70   37   68 1   
    71   38   39 1   
    72   38   40 1   
    73   38   41 1   
    74   39   69 1   
    75   39   70 1   
    76   39   71 1   
    77   40   72 1   
    78   40   73 1   
    79   40   74 1   
    80   41   75 1   
    81   41   76 1   
    82   41   77 1   
    83   42   78 1   
    84   42   79 1   
    85   42   80 1   
    86   43   81 1   
    87   43   82 1   
    88   43   83 1   
@<TRIPOS>SUBSTRUCTURE
     1 MJG         1 TEMP              0 ****  ****    0 ROOT
