@<TRIPOS>MOLECULE
MJG
   85    88     1     0     0
SMALL
bcc


@<TRIPOS>ATOM
      1 C1          0.9230   -0.5650    0.1260 ca        1 MJG      0.149100
      2 C2          1.4550    0.5820    0.7460 ca        1 MJG     -0.150600
      3 C3          0.7010    1.2380    1.7180 ca        1 MJG     -0.058000
      4 C4         -0.5700    0.7860    2.0750 ca        1 MJG     -0.081100
      5 C5         -1.0960   -0.3620    1.4510 ca        1 MJG     -0.011300
      6 C6         -0.3480   -1.0340    0.4840 ca        1 MJG     -0.192000
      7 O7          1.7050   -1.1450   -0.8520 os        1 MJG     -0.333900
      8 C8          1.3650   -2.4810   -1.2190 c3        1 MJG      0.111700
      9 C9          2.8380    1.0720    0.4680 c         1 MJG      0.684700
     10 N10         3.0940    1.7630   -0.7120 n         1 MJG     -0.452800
     11 O11         3.7290    0.9500    1.3330 o         1 MJG     -0.593100
     12 C12         2.1830    1.7700   -1.8310 c3        1 MJG      0.062500
     13 C13         2.7300    1.0280   -3.0790 c3        1 MJG      0.060500
     14 N14         4.0790    1.4040   -3.4250 n         1 MJG     -0.464800
     15 C15         4.9990    1.3950   -2.3070 c3        1 MJG      0.060500
     16 C16         4.4590    2.1170   -1.0510 c3        1 MJG      0.062500
     17 C17         4.3850    2.1300   -4.5740 c         1 MJG      0.653100
     18 C18         3.3870    2.1920   -5.7030 c3        1 MJG     -0.169100
     19 O19         5.5040    2.6710   -4.6920 o         1 MJG     -0.605100
     20 S20        -1.5760    1.5200    3.2320 ss        1 MJG      0.002200
     21 C21         0.3190    2.5480    4.9430 cc        1 MJG      0.429200
     22 C22        -0.6770    2.7010    3.9660 cd        1 MJG     -0.266500
     23 S23        -0.9570    4.3330    3.7100 ss        1 MJG      0.080700
     24 C24         0.2150    4.7700    4.8760 cd        1 MJG      0.459300
     25 N25         0.8360    3.7000    5.4630 nc        1 MJG     -0.686000
     26 N26         0.5240    6.0790    5.2580 ns        1 MJG     -0.508400
     27 C27         0.1840    7.1970    4.5140 c         1 MJG      0.659700
     28 C28         0.7440    8.5030    4.9850 ca        1 MJG     -0.093600
     29 C29         1.2530    9.3820    4.0200 ca        1 MJG     -0.081500
     30 C30         1.7600   10.6190    4.4090 ca        1 MJG     -0.108000
     31 C31         1.7490   10.9860    5.7610 ca        1 MJG     -0.168300
     32 C32         1.2340   10.1100    6.7210 ca        1 MJG     -0.108000
     33 C33         0.7350    8.8650    6.3350 ca        1 MJG     -0.081500
     34 O34        -0.5590    7.1430    3.5180 o         1 MJG     -0.557100
     35 C35         2.3200   12.3000    6.1760 c3        1 MJG      0.167100
     36 N36         1.3500   13.4120    5.9190 ny        1 MJG     -0.769000
     37 C37         1.9060   14.7750    6.2560 c3        1 MJG      0.132500
     38 C38         0.7580   15.7770    6.5610 c3        1 MJG     -0.070000
     39 C39         0.0770   15.3860    7.8680 c3        1 MJG     -0.108433
     40 C40         1.3670   17.1640    6.7330 c3        1 MJG     -0.108433
     41 C41        -0.2720   15.8150    5.4440 c3        1 MJG     -0.108433
     42 C42        -2.4470   -0.8460    1.8200 c3        1 MJG     -0.071800
     43 C43         2.8360   15.2670    5.1550 c3        1 MJG     -0.132100
     44 H3          1.1340    2.1190    2.2200 ha        1 MJG      0.149000
     45 H6         -0.7640   -1.9350    0.0080 ha        1 MJG      0.148000
     46 H8          0.4070   -2.4900   -1.7950 h1        1 MJG      0.051033
     47 H8A         2.2200   -2.7940   -1.8700 h1        1 MJG      0.051033
     48 H8B         1.2900   -3.1360   -0.3190 h1        1 MJG      0.051033
     49 H12         1.2050    1.2900   -1.5530 h1        1 MJG      0.065200
     50 H12A        1.9860    2.8480   -2.1000 h1        1 MJG      0.065200
     51 H13         2.0230    1.2230   -3.9300 h1        1 MJG      0.069200
     52 H13A        2.7240   -0.0810   -2.8610 h1        1 MJG      0.069200
     53 H15         5.9670    1.8890   -2.6040 h1        1 MJG      0.069200
     54 H15A        5.2100    0.3180   -2.0500 h1        1 MJG      0.069200
     55 H16         4.4840    3.2300   -1.2250 h1        1 MJG      0.065200
     56 H16A        5.1430    1.8750   -0.1890 h1        1 MJG      0.065200
     57 H18         2.5100    2.8180   -5.4120 hc        1 MJG      0.066700
     58 H18A        3.0370    1.1700   -5.9860 hc        1 MJG      0.066700
     59 H18B        3.8850    2.6600   -6.5880 hc        1 MJG      0.066700
     60 HN26        1.1910    6.1840    5.9960 hn        1 MJG      0.341500
     61 H29         1.2420    9.0880    2.9560 ha        1 MJG      0.173500
     62 H30         2.1810   11.2970    3.6510 ha        1 MJG      0.145500
     63 H32         1.2320   10.3860    7.7880 ha        1 MJG      0.145500
     64 H33         0.3260    8.1830    7.0990 ha        1 MJG      0.173500
     65 H35         2.5670   12.3030    7.2770 hx        1 MJG      0.109200
     66 H35A        3.2630   12.5200    5.5960 hx        1 MJG      0.109200
     67 HN36        0.5030   13.2500    6.4790 hn        1 MJG      0.450300
     68 H37         2.5080   14.6450    7.2080 hx        1 MJG      0.101700
     69 H39        -0.5030   14.4370    7.7730 hc        1 MJG      0.056256
     70 H39A       -0.6460   16.1870    8.1640 hc        1 MJG      0.056256
     71 H39B        0.8270   15.2770    8.6880 hc        1 MJG      0.056256
     72 H40         0.5980   17.8620    7.1480 hc        1 MJG      0.056256
     73 H40A        1.7080   17.5720    5.7500 hc        1 MJG      0.056256
     74 H40B        2.2310   17.1320    7.4390 hc        1 MJG      0.056256
     75 H41        -0.8930   14.8870    5.4210 hc        1 MJG      0.056256
     76 H41A       -0.9650   16.6780    5.6090 hc        1 MJG      0.056256
     77 H41B        0.2160   15.9530    4.4490 hc        1 MJG      0.056256
     78 H42        -3.2280   -0.2060    1.3350 hc        1 MJG      0.059367
     79 H42A       -2.5920   -0.7930    2.9310 hc        1 MJG      0.059367
     80 H42B       -2.6050   -1.9030    1.4920 hc        1 MJG      0.059367
     81 H43         2.2720   15.5570    4.2360 hc        1 MJG      0.076700
     82 H43A        3.6010   14.4990    4.8840 hc        1 MJG      0.076700
     83 H43B        3.3850   16.1690    5.5300 hc        1 MJG      0.076700
     84 H362        1.0750   13.4000    4.9300 hn        1 MJG      0.450300
     85 H21         0.7100    1.5860    5.3050 h4        1 MJG      0.064100
@<TRIPOS>BOND
     1    1    2 ar  
     2    1    6 ar  
     3    1    7 1   
     4    2    3 ar  
     5    2    9 1   
     6    3    4 ar  
     7    3   44 1   
     8    4    5 ar  
     9    4   20 1   
    10    5    6 ar  
    11    5   42 1   
    12    6   45 1   
    13    7    8 1   
    14    8   46 1   
    15    8   47 1   
    16    8   48 1   
    17    9   10 1   
    18    9   11 2   
    19   10   12 1   
    20   10   16 1   
    21   12   13 1   
    22   12   49 1   
    23   12   50 1   
    24   13   14 1   
    25   13   51 1   
    26   13   52 1   
    27   14   15 1   
    28   14   17 1   
    29   15   16 1   
    30   15   53 1   
    31   15   54 1   
    32   16   55 1   
    33   16   56 1   
    34   17   18 1   
    35   17   19 2   
    36   18   57 1   
    37   18   58 1   
    38   18   59 1   
    39   20   22 1   
    40   21   22 2   
    41   21   25 1   
    42   21   85 1   
    43   22   23 1   
    44   23   24 1   
    45   24   25 2   
    46   24   26 1   
    47   26   27 1   
    48   26   60 1   
    49   27   28 1   
    50   27   34 2   
    51   28   29 ar  
    52   28   33 ar  
    53   29   30 ar  
    54   29   61 1   
    55   30   31 ar  
    56   30   62 1   
    57   31   32 ar  
    58   31   35 1   
    59   32   33 ar  
    60   32   63 1   
    61   33   64 1   
    62   35   36 1   
    63   35   65 1   
    64   35   66 1   
    65   36   37 1   
    66   36   67 1   
    67   36   84 1   
    68   37   38 1   
    69   37   43 1   
    70   37   68 1   
    71   38   39 1   
    72   38   40 1   
    73   38   41 1   
    74   39   69 1   
    75   39   70 1   
    76   39   71 1   
    77   40   72 1   
    78   40   73 1   
    79   40   74 1   
    80   41   75 1   
    81   41   76 1   
    82   41   77 1   
    83   42   78 1   
    84   42   79 1   
    85   42   80 1   
    86   43   81 1   
    87   43   82 1   
    88   43   83 1   
@<TRIPOS>SUBSTRUCTURE
     1 MJG         1 TEMP              0 ****  ****    0 ROOT
