@<TRIPOS>MOLECULE
MJG
   86    89     1     0     0
SMALL
bcc


@<TRIPOS>ATOM
      1 C1          2.3370    0.3790    0.4360 ca        1 MJG      0.210100
      2 C2          1.5840    1.5150    0.0530 ca        1 MJG     -0.159600
      3 C3          0.8130    2.1580    1.0140 ca        1 MJG     -0.051000
      4 C4          0.8000    1.7440    2.3520 ca        1 MJG     -0.201100
      5 C5          1.5220    0.5930    2.7190 ca        1 MJG      0.056700
      6 C6          2.2810   -0.0830    1.7590 ca        1 MJG     -0.218000
      7 O7          3.0870   -0.2040   -0.5490 os        1 MJG     -0.313900
      8 C8          3.9400   -1.2860   -0.1660 c3        1 MJG      0.104700
      9 C9          1.6810    2.1730   -1.2880 c         1 MJG      0.686700
     10 N10         1.2740    1.5290   -2.4320 n         1 MJG     -0.434800
     11 O11         2.0640    3.3680   -1.3200 o         1 MJG     -0.646100
     12 C12         0.7930    0.1680   -2.4730 c3        1 MJG      0.061500
     13 C13         1.6190   -0.7460   -3.4170 c3        1 MJG      0.069500
     14 N14         1.8700   -0.1630   -4.7090 n         1 MJG     -0.474800
     15 C15         2.3570    1.1980   -4.6630 c3        1 MJG      0.069500
     16 C16         1.5380    2.1210   -3.7320 c3        1 MJG      0.061500
     17 C17         1.3040   -0.6610   -5.8880 c         1 MJG      0.657100
     18 C18         0.7510   -2.0620   -5.9120 c3        1 MJG     -0.170100
     19 O19         1.3180    0.0390   -6.9180 o         1 MJG     -0.585100
     20 S20        -0.0650    2.6070    3.5270 ss        1 MJG      0.214200
     21 C21        -0.1720    5.2170    4.0520 cc        1 MJG      0.328200
     22 C22         0.2930    4.1680    3.1870 cd        1 MJG     -0.193500
     23 S23         1.1340    4.8490    1.9280 ss        1 MJG      0.213700
     24 C24         0.8880    6.4210    2.5320 cd        1 MJG      0.198300
     25 N25         0.1550    6.4700    3.6930 nc        1 MJG     -0.586000
     26 N26         1.3850    7.6220    1.8960 n4        1 MJG     -0.578500
     27 C27         2.3980    8.3420    2.7630 c         1 MJG      0.567700
     28 C28         1.9250    9.2470    3.8220 ca        1 MJG     -0.137600
     29 C29         2.9230    9.7860    4.6570 ca        1 MJG     -0.045500
     30 C30         2.5760   10.6480    5.6940 ca        1 MJG     -0.112500
     31 C31         1.2350   10.9840    5.9090 ca        1 MJG     -0.111300
     32 C32         0.2440   10.4540    5.0770 ca        1 MJG     -0.112500
     33 C33         0.5840    9.5830    4.0380 ca        1 MJG     -0.045500
     34 O34         3.5660    8.1060    2.4790 o         1 MJG     -0.412100
     35 C35         0.8520   11.8450    7.0720 c3        1 MJG      0.151100
     36 N36         1.2960   13.2600    6.9090 n4        1 MJG     -0.769000
     37 C37         1.0130   14.1110    8.1340 c3        1 MJG      0.135500
     38 C38         0.9060   15.6100    7.7390 c3        1 MJG     -0.070000
     39 C39        -0.3500   15.8290    6.9040 c3        1 MJG     -0.109767
     40 C40         0.7810   16.4290    9.0200 c3        1 MJG     -0.109767
     41 C41         2.1240   16.0790    6.9600 c3        1 MJG     -0.109767
     42 C42         1.4820    0.0730    4.1060 c3        1 MJG     -0.086800
     43 C43         2.0510   13.8580    9.2160 c3        1 MJG     -0.136100
     44 H3          0.1930    3.0140    0.6860 ha        1 MJG      0.145000
     45 H6          2.8430   -0.9810    2.0600 ha        1 MJG      0.166000
     46 H8          4.6680   -0.9540    0.6120 h1        1 MJG      0.064367
     47 H8A         4.4650   -1.5370   -1.1240 h1        1 MJG      0.064367
     48 H8B         3.3330   -2.1510    0.1930 h1        1 MJG      0.064367
     49 H12         0.8100   -0.2920   -1.4480 h1        1 MJG      0.067200
     50 H12A       -0.2770    0.1980   -2.8310 h1        1 MJG      0.067200
     51 H13         2.6150   -0.9500   -2.9240 h1        1 MJG      0.071450
     52 H13A        1.0670   -1.7200   -3.5120 h1        1 MJG      0.071450
     53 H15         2.3400    1.6460   -5.6980 h1        1 MJG      0.071450
     54 H15A        3.4260    1.1680   -4.3040 h1        1 MJG      0.071450
     55 H16         0.5430    2.3490   -4.2110 h1        1 MJG      0.067200
     56 H16A        2.1050    3.0860   -3.6070 h1        1 MJG      0.067200
     57 H18         0.5220   -2.3310   -6.9730 hc        1 MJG      0.071700
     58 H18A        1.4900   -2.7950   -5.5070 hc        1 MJG      0.071700
     59 H18B       -0.1930   -2.1170   -5.3180 hc        1 MJG      0.071700
     60 HN26        0.6000    8.2500    1.6830 hn        1 MJG      0.468300
     61 H29         3.9830    9.5170    4.4910 ha        1 MJG      0.176500
     62 H30         3.3680   11.0380    6.3550 ha        1 MJG      0.162500
     63 H32        -0.8190   10.6990    5.2430 ha        1 MJG      0.162500
     64 H33        -0.2350    9.1690    3.4270 ha        1 MJG      0.176500
     65 H35        -0.2690   11.8480    7.2130 hx        1 MJG      0.119700
     66 H35A        1.3230   11.4340    8.0150 hx        1 MJG      0.119700
     67 HN36        0.8130   13.6770    6.1030 hn        1 MJG      0.451300
     68 H37        -0.0030   13.7830    8.5160 hx        1 MJG      0.104700
     69 H39        -1.2500   15.4250    7.4280 hc        1 MJG      0.058700
     70 H39A       -0.2720   15.3610    5.8940 hc        1 MJG      0.058700
     71 H39B       -0.5060   16.9260    6.7480 hc        1 MJG      0.058700
     72 H40         1.7520   16.4550    9.5710 hc        1 MJG      0.058700
     73 H40A        0.5020   17.4820    8.7640 hc        1 MJG      0.058700
     74 H40B       -0.0110   16.0080    9.6840 hc        1 MJG      0.058700
     75 H41         2.0960   17.1950    6.8670 hc        1 MJG      0.058700
     76 H41A        3.0710   15.8040    7.4830 hc        1 MJG      0.058700
     77 H41B        2.1400   15.6590    5.9250 hc        1 MJG      0.058700
     78 H42         0.7480   -0.7720    4.1700 hc        1 MJG      0.070700
     79 H42A        2.4850   -0.3160    4.4140 hc        1 MJG      0.070700
     80 H42B        1.1700    0.8660    4.8320 hc        1 MJG      0.070700
     81 H43         3.0440   14.2950    8.9500 hc        1 MJG      0.080367
     82 H43A        1.7000   14.3430   10.1640 hc        1 MJG      0.080367
     83 H43B        2.1780   12.7680    9.4280 hc        1 MJG      0.080367
     84 H262        1.8450    7.3450    1.0130 hn        1 MJG      0.468300
     85 H362        2.3050   13.2870    6.7200 hn        1 MJG      0.451300
     86 H21        -0.7640    5.0450    4.9630 h4        1 MJG      0.077100
@<TRIPOS>BOND
     1    1    2 ar  
     2    1    6 ar  
     3    1    7 1   
     4    2    3 ar  
     5    2    9 1   
     6    3    4 ar  
     7    3   44 1   
     8    4    5 ar  
     9    4   20 1   
    10    5    6 ar  
    11    5   42 1   
    12    6   45 1   
    13    7    8 1   
    14    8   46 1   
    15    8   47 1   
    16    8   48 1   
    17    9   10 1   
    18    9   11 2   
    19   10   12 1   
    20   10   16 1   
    21   12   13 1   
    22   12   49 1   
    23   12   50 1   
    24   13   14 1   
    25   13   51 1   
    26   13   52 1   
    27   14   15 1   
    28   14   17 1   
    29   15   16 1   
    30   15   53 1   
    31   15   54 1   
    32   16   55 1   
    33   16   56 1   
    34   17   18 1   
    35   17   19 2   
    36   18   57 1   
    37   18   58 1   
    38   18   59 1   
    39   20   22 1   
    40   21   22 2   
    41   21   25 1   
    42   21   86 1   
    43   22   23 1   
    44   23   24 1   
    45   24   25 2   
    46   24   26 1   
    47   26   27 1   
    48   26   60 1   
    49   26   84 1   
    50   27   28 1   
    51   27   34 2   
    52   28   29 ar  
    53   28   33 ar  
    54   29   30 ar  
    55   29   61 1   
    56   30   31 ar  
    57   30   62 1   
    58   31   32 ar  
    59   31   35 1   
    60   32   33 ar  
    61   32   63 1   
    62   33   64 1   
    63   35   36 1   
    64   35   65 1   
    65   35   66 1   
    66   36   37 1   
    67   36   67 1   
    68   36   85 1   
    69   37   38 1   
    70   37   43 1   
    71   37   68 1   
    72   38   39 1   
    73   38   40 1   
    74   38   41 1   
    75   39   69 1   
    76   39   70 1   
    77   39   71 1   
    78   40   72 1   
    79   40   73 1   
    80   40   74 1   
    81   41   75 1   
    82   41   76 1   
    83   41   77 1   
    84   42   78 1   
    85   42   79 1   
    86   42   80 1   
    87   43   81 1   
    88   43   82 1   
    89   43   83 1   
@<TRIPOS>SUBSTRUCTURE
     1 MJG         1 TEMP              0 ****  ****    0 ROOT
