@<TRIPOS>MOLECULE
MJI
   75    74     1     0     0
SMALL
bcc


@<TRIPOS>ATOM
      1 C1          1.8250   -0.0070   -4.2700 c3        1 MJI      0.118400
      2 O1          2.3360   -0.5060   -3.0430 os        1 MJI     -0.439600
      3 C2          0.2940   -0.1180   -4.3630 c3        1 MJI      0.176100
      4 O2         -0.2880    1.0130   -3.7950 os        1 MJI     -0.584200
      5 C3         -0.1300   -0.1520   -5.8460 c3        1 MJI      0.096400
      6 O3          0.6110   -1.2020   -6.4890 os        1 MJI     -0.395600
      7 C31         0.4680   -1.2260   -7.8810 c3        1 MJI      0.116400
      8 C32        -0.7300   -2.1360   -8.3240 c3        1 MJI      0.583900
      9 F31        -0.8030   -2.2610   -9.6940 f         1 MJI     -0.243967
     10 F32        -0.6690   -3.4260   -7.8720 f         1 MJI     -0.243967
     11 F33        -1.9690   -1.6810   -7.9600 f         1 MJI     -0.243967
     12 P2         -1.4530    0.7870   -2.6300 p5        1 MJI      1.427800
     13 O21        -0.8720    1.3070   -1.3750 o         1 MJI     -0.823000
     14 O22        -2.0320   -0.5500   -2.8400 o         1 MJI     -0.823000
     15 C2P        -2.1840    3.2490   -2.9760 c3        1 MJI      0.182700
     16 O23        -2.4990    1.9150   -3.2090 os        1 MJI     -0.569200
     17 C11         2.1640    0.3970   -1.9480 c3        1 MJI      0.105400
     18 C12         2.3120   -0.4110   -0.6710 c3        1 MJI     -0.070400
     19 C13         1.7720    0.3820    0.5000 c3        1 MJI     -0.099400
     20 C14         1.8110   -0.4310    1.7760 c3        1 MJI     -0.070400
     21 C15         1.2670    0.3630    2.9440 c3        1 MJI     -0.080400
     22 C16         1.2850   -0.4510    4.2210 c3        1 MJI     -0.078400
     23 C17         0.7430    0.3460    5.3880 c3        1 MJI     -0.079400
     24 C18         0.7570   -0.4680    6.6650 c3        1 MJI     -0.078400
     25 C19         0.2160    0.3290    7.8320 c3        1 MJI     -0.079400
     26 C20         0.2310   -0.4840    9.1090 c3        1 MJI     -0.078400
     27 C21        -0.3110    0.3140   10.2760 c3        1 MJI     -0.079400
     28 C22        -0.2960   -0.4990   11.5520 c3        1 MJI     -0.078400
     29 C23        -0.8370    0.2980   12.7190 c3        1 MJI     -0.079400
     30 C24        -0.8220   -0.5150   13.9960 c3        1 MJI     -0.079400
     31 C25        -1.3630    0.2820   15.1640 c3        1 MJI     -0.080400
     32 C26        -1.3500   -0.5230   16.4370 c3        1 MJI     -0.092100
     33 H11         2.1390    1.0580   -4.4230 h1        1 MJI      0.042700
     34 H12         2.3020   -0.6700   -5.0420 h1        1 MJI      0.042700
     35 H21        -0.0650   -1.0550   -3.8470 h1        1 MJI      0.091700
     36 H31        -1.2250   -0.3740   -5.9350 h1        1 MJI      0.049200
     37 H32         0.1050    0.8290   -6.3340 h1        1 MJI      0.049200
     38 H311        0.3020   -0.2130   -8.3260 h1        1 MJI      0.072200
     39 H312        1.4050   -1.7000   -8.2760 h1        1 MJI      0.072200
     40 H2P1       -2.0280    3.7700   -3.9610 h1        1 MJI      0.007367
     41 H2P2       -3.0510    3.7410   -2.4580 h1        1 MJI      0.007367
     42 H2P3       -1.2630    3.3420   -2.3430 h1        1 MJI      0.007367
     43 H111        1.1450    0.8820   -1.9920 h1        1 MJI      0.054200
     44 H112        2.9570    1.1880   -2.0180 h1        1 MJI      0.054200
     45 H121        3.3870   -0.6780   -0.5060 hc        1 MJI      0.035700
     46 H122        1.7420   -1.3710   -0.7780 hc        1 MJI      0.035700
     47 H131        0.7140    0.7000    0.2720 hc        1 MJI      0.070200
     48 H132        2.3780    1.3160    0.6310 hc        1 MJI      0.070200
     49 H141        2.8640   -0.7510    1.9940 hc        1 MJI      0.028700
     50 H142        1.2020   -1.3640    1.6420 hc        1 MJI      0.028700
     51 H151        0.2180    0.6880    2.7160 hc        1 MJI      0.043700
     52 H152        1.8790    1.2940    3.0830 hc        1 MJI      0.043700
     53 H161        2.3340   -0.7790    4.4440 hc        1 MJI      0.034700
     54 H162        0.6700   -1.3790    4.0810 hc        1 MJI      0.034700
     55 H171       -0.3060    0.6740    5.1630 hc        1 MJI      0.039700
     56 H172        1.3560    1.2750    5.5270 hc        1 MJI      0.039700
     57 H181        1.8060   -0.7970    6.8890 hc        1 MJI      0.036700
     58 H182        0.1430   -1.3960    6.5260 hc        1 MJI      0.036700
     59 H191       -0.8330    0.6580    7.6070 hc        1 MJI      0.038700
     60 H192        0.8300    1.2580    7.9700 hc        1 MJI      0.038700
     61 H201        1.2800   -0.8130    9.3320 hc        1 MJI      0.038200
     62 H202       -0.3840   -1.4120    8.9700 hc        1 MJI      0.038200
     63 H211       -1.3600    0.6420   10.0510 hc        1 MJI      0.038700
     64 H212        0.3030    1.2420   10.4140 hc        1 MJI      0.038700
     65 H221        0.7530   -0.8280   11.7760 hc        1 MJI      0.038700
     66 H222       -0.9100   -1.4280   11.4140 hc        1 MJI      0.038700
     67 H231       -1.8860    0.6270   12.4950 hc        1 MJI      0.039200
     68 H232       -0.2230    1.2270   12.8570 hc        1 MJI      0.039200
     69 H241        0.2270   -0.8440   14.2200 hc        1 MJI      0.039200
     70 H242       -1.4370   -1.4430   13.8580 hc        1 MJI      0.039200
     71 H251       -2.4120    0.6110   14.9370 hc        1 MJI      0.038200
     72 H252       -0.7490    1.2110   15.2990 hc        1 MJI      0.038200
     73 H261       -1.7530    0.0820   17.2840 hc        1 MJI      0.031033
     74 H262       -1.9780   -1.4410   16.3300 hc        1 MJI      0.031033
     75 H263       -0.3100   -0.8400   16.6930 hc        1 MJI      0.031033
@<TRIPOS>BOND
     1    1    2 1   
     2    1    3 1   
     3    1   33 1   
     4    1   34 1   
     5    2   17 1   
     6    3    4 1   
     7    3    5 1   
     8    3   35 1   
     9    4   12 1   
    10    5    6 1   
    11    5   36 1   
    12    5   37 1   
    13    6    7 1   
    14    7    8 1   
    15    7   38 1   
    16    7   39 1   
    17    8    9 1   
    18    8   10 1   
    19    8   11 1   
    20   12   13 1   
    21   12   14 1   
    22   12   16 1   
    23   15   16 1   
    24   15   40 1   
    25   15   41 1   
    26   15   42 1   
    27   17   18 1   
    28   17   43 1   
    29   17   44 1   
    30   18   19 1   
    31   18   45 1   
    32   18   46 1   
    33   19   20 1   
    34   19   47 1   
    35   19   48 1   
    36   20   21 1   
    37   20   49 1   
    38   20   50 1   
    39   21   22 1   
    40   21   51 1   
    41   21   52 1   
    42   22   23 1   
    43   22   53 1   
    44   22   54 1   
    45   23   24 1   
    46   23   55 1   
    47   23   56 1   
    48   24   25 1   
    49   24   57 1   
    50   24   58 1   
    51   25   26 1   
    52   25   59 1   
    53   25   60 1   
    54   26   27 1   
    55   26   61 1   
    56   26   62 1   
    57   27   28 1   
    58   27   63 1   
    59   27   64 1   
    60   28   29 1   
    61   28   65 1   
    62   28   66 1   
    63   29   30 1   
    64   29   67 1   
    65   29   68 1   
    66   30   31 1   
    67   30   69 1   
    68   30   70 1   
    69   31   32 1   
    70   31   71 1   
    71   31   72 1   
    72   32   73 1   
    73   32   74 1   
    74   32   75 1   
@<TRIPOS>SUBSTRUCTURE
     1 MJI         1 TEMP              0 ****  ****    0 ROOT
