@<TRIPOS>MOLECULE
MJI
   75    74     1     0     0
SMALL
bcc


@<TRIPOS>ATOM
      1 C1          0.1860   -1.0520    1.2730 c3        1 MJI      0.107400
      2 O1         -0.5530   -0.9460    0.0580 os        1 MJI     -0.450600
      3 C2          0.9280    0.2670    1.5640 c3        1 MJI      0.155100
      4 O2          1.4160    0.2330    2.8690 os        1 MJI     -0.569200
      5 C3          2.1160    0.4380    0.6020 c3        1 MJI      0.105400
      6 O3          2.0110    1.6300   -0.1830 os        1 MJI     -0.394600
      7 C31         0.9960    1.6140   -1.1510 c3        1 MJI      0.102400
      8 C32         1.5900    1.2120   -2.5450 c3        1 MJI      0.583900
      9 F31         0.6340    1.1370   -3.5310 f         1 MJI     -0.252300
     10 F32         2.5160    2.0890   -3.0490 f         1 MJI     -0.252300
     11 F33         2.2150   -0.0070   -2.5830 f         1 MJI     -0.252300
     12 P2          0.7030    1.2630    3.9630 p5        1 MJI      1.427800
     13 O21         1.2080    0.8870    5.2940 o         1 MJI     -0.824500
     14 O22        -0.7080    1.3610    3.5340 o         1 MJI     -0.824500
     15 C2P         2.7080    2.9170    4.0220 c3        1 MJI      0.176700
     16 O23         1.4480    2.6520    3.4940 os        1 MJI     -0.580200
     17 C11        -1.9580   -0.7950    0.2250 c3        1 MJI      0.139400
     18 C12        -2.3420    0.5720    0.7560 c3        1 MJI     -0.147400
     19 C13        -3.8450    0.7370    0.7790 c3        1 MJI     -0.061400
     20 C14        -4.2250    2.0720    1.3840 c3        1 MJI     -0.085400
     21 C15        -5.7280    2.2250    1.4820 c3        1 MJI     -0.075400
     22 C16        -6.1040    3.5620    2.0830 c3        1 MJI     -0.080400
     23 C17        -7.6060    3.7160    2.1920 c3        1 MJI     -0.077400
     24 C18        -7.9800    5.0540    2.7920 c3        1 MJI     -0.079400
     25 C19        -9.4820    5.2080    2.9010 c3        1 MJI     -0.078400
     26 C20        -9.8550    6.5460    3.5020 c3        1 MJI     -0.079400
     27 C21       -11.3570    6.7010    3.6110 c3        1 MJI     -0.078400
     28 C22       -11.7300    8.0390    4.2120 c3        1 MJI     -0.079400
     29 C23       -13.2320    8.1940    4.3210 c3        1 MJI     -0.078400
     30 C24       -13.6040    9.5330    4.9210 c3        1 MJI     -0.079400
     31 C25       -15.1060    9.6900    5.0310 c3        1 MJI     -0.080400
     32 C26       -15.4820   11.0210    5.6280 c3        1 MJI     -0.092100
     33 H11         0.9180   -1.8850    1.0950 h1        1 MJI      0.051200
     34 H12        -0.4770   -1.3210    2.1340 h1        1 MJI      0.051200
     35 H21         0.2100    1.1320    1.4390 h1        1 MJI      0.073700
     36 H31         3.0630    0.6050    1.1840 h1        1 MJI      0.062700
     37 H32         2.2230   -0.4450   -0.0800 h1        1 MJI      0.062700
     38 H311        0.6270    2.6700   -1.2370 h1        1 MJI      0.096200
     39 H312        0.1620    0.9020   -0.9100 h1        1 MJI      0.096200
     40 H2P1        3.4590    2.9450    3.1860 h1        1 MJI      0.010700
     41 H2P2        2.6900    3.9300    4.5060 h1        1 MJI      0.010700
     42 H2P3        3.0000    2.1420    4.7780 h1        1 MJI      0.010700
     43 H111       -2.3530   -1.6020    0.8980 h1        1 MJI      0.030700
     44 H112       -2.3600   -0.9500   -0.8140 h1        1 MJI      0.030700
     45 H121       -1.9280    0.7140    1.7980 hc        1 MJI      0.087700
     46 H122       -1.8800    1.3650    0.1110 hc        1 MJI      0.087700
     47 H131       -4.2580    0.6590   -0.2610 hc        1 MJI      0.022700
     48 H132       -4.3040   -0.0910    1.3820 hc        1 MJI      0.022700
     49 H141       -3.8020    2.9010    0.7580 hc        1 MJI      0.057700
     50 H142       -3.7620    2.1610    2.4040 hc        1 MJI      0.057700
     51 H151       -6.1860    2.1270    0.4630 hc        1 MJI      0.030200
     52 H152       -6.1490    1.3980    2.1140 hc        1 MJI      0.030200
     53 H161       -5.6860    4.3890    1.4500 hc        1 MJI      0.043700
     54 H162       -5.6400    3.6590    3.1000 hc        1 MJI      0.043700
     55 H171       -8.0690    3.6170    1.1740 hc        1 MJI      0.034700
     56 H172       -8.0230    2.8890    2.8260 hc        1 MJI      0.034700
     57 H181       -7.5170    5.1510    3.8090 hc        1 MJI      0.040700
     58 H182       -7.5620    5.8800    2.1580 hc        1 MJI      0.040700
     59 H191       -9.8990    4.3820    3.5350 hc        1 MJI      0.036700
     60 H192       -9.9460    5.1090    1.8840 hc        1 MJI      0.036700
     61 H201       -9.3920    6.6440    4.5190 hc        1 MJI      0.039700
     62 H202       -9.4370    7.3720    2.8680 hc        1 MJI      0.039700
     63 H211      -11.8200    6.6030    2.5940 hc        1 MJI      0.038200
     64 H212      -11.7750    5.8750    4.2450 hc        1 MJI      0.038200
     65 H221      -11.2670    8.1370    5.2290 hc        1 MJI      0.039700
     66 H222      -11.3120    8.8650    3.5780 hc        1 MJI      0.039700
     67 H231      -13.6950    8.0960    3.3040 hc        1 MJI      0.038200
     68 H232      -13.6500    7.3690    4.9550 hc        1 MJI      0.038200
     69 H241      -13.1860   10.3590    4.2880 hc        1 MJI      0.039200
     70 H242      -13.1410    9.6310    5.9390 hc        1 MJI      0.039200
     71 H251      -15.5670    9.5890    4.0130 hc        1 MJI      0.037700
     72 H252      -15.5230    8.8620    5.6640 hc        1 MJI      0.037700
     73 H261      -15.0960   11.8590    4.9980 hc        1 MJI      0.031367
     74 H262      -16.5920   11.1160    5.7000 hc        1 MJI      0.031367
     75 H263      -15.0510   11.1290    6.6530 hc        1 MJI      0.031367
@<TRIPOS>BOND
     1    1    2 1   
     2    1    3 1   
     3    1   33 1   
     4    1   34 1   
     5    2   17 1   
     6    3    4 1   
     7    3    5 1   
     8    3   35 1   
     9    4   12 1   
    10    5    6 1   
    11    5   36 1   
    12    5   37 1   
    13    6    7 1   
    14    7    8 1   
    15    7   38 1   
    16    7   39 1   
    17    8    9 1   
    18    8   10 1   
    19    8   11 1   
    20   12   13 1   
    21   12   14 1   
    22   12   16 1   
    23   15   16 1   
    24   15   40 1   
    25   15   41 1   
    26   15   42 1   
    27   17   18 1   
    28   17   43 1   
    29   17   44 1   
    30   18   19 1   
    31   18   45 1   
    32   18   46 1   
    33   19   20 1   
    34   19   47 1   
    35   19   48 1   
    36   20   21 1   
    37   20   49 1   
    38   20   50 1   
    39   21   22 1   
    40   21   51 1   
    41   21   52 1   
    42   22   23 1   
    43   22   53 1   
    44   22   54 1   
    45   23   24 1   
    46   23   55 1   
    47   23   56 1   
    48   24   25 1   
    49   24   57 1   
    50   24   58 1   
    51   25   26 1   
    52   25   59 1   
    53   25   60 1   
    54   26   27 1   
    55   26   61 1   
    56   26   62 1   
    57   27   28 1   
    58   27   63 1   
    59   27   64 1   
    60   28   29 1   
    61   28   65 1   
    62   28   66 1   
    63   29   30 1   
    64   29   67 1   
    65   29   68 1   
    66   30   31 1   
    67   30   69 1   
    68   30   70 1   
    69   31   32 1   
    70   31   71 1   
    71   31   72 1   
    72   32   73 1   
    73   32   74 1   
    74   32   75 1   
@<TRIPOS>SUBSTRUCTURE
     1 MJI         1 TEMP              0 ****  ****    0 ROOT
