@<TRIPOS>MOLECULE
MJI
   75    74     1     0     0
SMALL
bcc


@<TRIPOS>ATOM
      1 C1          6.2090    1.1300   -3.0570 c3        1 MJI      0.113400
      2 O1          5.1140    0.4930   -2.3730 os        1 MJI     -0.438600
      3 C2          7.3670    0.1760   -3.1470 c3        1 MJI      0.153100
      4 O2          6.9010   -1.0880   -3.5540 os        1 MJI     -0.586200
      5 C3          8.3700    0.6940   -4.1600 c3        1 MJI      0.105400
      6 O3          9.6040    0.9320   -3.5210 os        1 MJI     -0.411600
      7 C31        10.5710    1.5180   -4.3540 c3        1 MJI      0.092400
      8 C32        11.8760    1.6400   -3.6050 c3        1 MJI      0.584900
      9 F31        12.8350    2.0870   -4.4430 f         1 MJI     -0.257300
     10 F32        12.2300    0.4410   -3.1210 f         1 MJI     -0.257300
     11 F33        11.7300    2.5030   -2.5940 f         1 MJI     -0.257300
     12 P2          7.6310   -2.3800   -2.9920 p5        1 MJI      1.433800
     13 O21         7.2490   -2.5850   -1.5470 o         1 MJI     -0.829500
     14 O22         9.1320   -2.1980   -3.0970 o         1 MJI     -0.829500
     15 C2P         7.6540   -4.9070   -3.4280 c3        1 MJI      0.185700
     16 O23         7.1960   -3.6360   -3.8330 os        1 MJI     -0.564200
     17 C11         4.1860    1.4080   -1.7840 c3        1 MJI      0.142400
     18 C12         2.8140    0.7140   -1.6140 c3        1 MJI     -0.146400
     19 C13         1.9460    1.5260   -0.6180 c3        1 MJI     -0.061400
     20 C14         0.4590    1.1530   -0.8060 c3        1 MJI     -0.085400
     21 C15        -0.3460    1.5550    0.4700 c3        1 MJI     -0.075400
     22 C16        -1.8370    1.4180    0.1930 c3        1 MJI     -0.080400
     23 C17        -2.5990    1.3460    1.5200 c3        1 MJI     -0.077400
     24 C18        -4.1070    1.2020    1.2390 c3        1 MJI     -0.079400
     25 C19        -4.8350    0.8290    2.5320 c3        1 MJI     -0.078400
     26 C20        -6.3110    0.5720    2.2290 c3        1 MJI     -0.079400
     27 C21        -7.0150    0.0190    3.4990 c3        1 MJI     -0.078400
     28 C22        -8.5040   -0.2660    3.1800 c3        1 MJI     -0.079400
     29 C23        -9.1780   -0.8910    4.3980 c3        1 MJI     -0.078400
     30 C24       -10.6050   -1.2830    4.0440 c3        1 MJI     -0.079400
     31 C25       -11.2520   -1.9690    5.2380 c3        1 MJI     -0.080400
     32 C26       -12.6130   -2.5530    4.8210 c3        1 MJI     -0.092100
     33 H11         5.9230    1.3890   -3.9680 h1        1 MJI      0.047700
     34 H12         6.4810    1.9230   -2.5660 h1        1 MJI      0.047700
     35 H21         7.8030    0.0990   -2.2580 h1        1 MJI      0.066700
     36 H31         8.4920    0.0310   -4.8660 h1        1 MJI      0.059700
     37 H32         8.0400    1.5260   -4.5490 h1        1 MJI      0.059700
     38 H311       10.7020    0.9540   -5.1530 h1        1 MJI      0.124700
     39 H312       10.2670    2.4110   -4.6300 h1        1 MJI      0.124700
     40 H2P1        8.5890   -4.8420   -3.1490 h1        1 MJI      0.008033
     41 H2P2        7.1150   -5.2230   -2.6830 h1        1 MJI      0.008033
     42 H2P3        7.5770   -5.5430   -4.1850 h1        1 MJI      0.008033
     43 H111        4.5170    1.6900   -0.9120 h1        1 MJI      0.026700
     44 H112        4.0860    2.1960   -2.3670 h1        1 MJI      0.026700
     45 H121        2.3560    0.6680   -2.4900 hc        1 MJI      0.088700
     46 H122        2.9460   -0.1850   -1.2700 hc        1 MJI      0.088700
     47 H131        2.0660    2.4800   -0.7860 hc        1 MJI      0.022200
     48 H132        2.2190    1.3200    0.2890 hc        1 MJI      0.022200
     49 H141        0.3800    0.1850   -0.9520 hc        1 MJI      0.057700
     50 H142        0.0970    1.6330   -1.5860 hc        1 MJI      0.057700
     51 H151       -0.0960    0.9660    1.2130 hc        1 MJI      0.029700
     52 H152       -0.1430    2.4790    0.7050 hc        1 MJI      0.029700
     53 H161       -1.9990    0.6050   -0.3200 hc        1 MJI      0.043700
     54 H162       -2.1450    2.1900   -0.3160 hc        1 MJI      0.043700
     55 H171       -2.4390    2.1670    2.0360 hc        1 MJI      0.034200
     56 H172       -2.2880    0.5700    2.0350 hc        1 MJI      0.034200
     57 H181       -4.4570    2.0500    0.9010 hc        1 MJI      0.040700
     58 H182       -4.2480    0.5020    0.5710 hc        1 MJI      0.040700
     59 H191       -4.7570    1.5610    3.1720 hc        1 MJI      0.036700
     60 H192       -4.4380    0.0290    2.9060 hc        1 MJI      0.036700
     61 H201       -6.3850   -0.0780    1.5080 hc        1 MJI      0.040200
     62 H202       -6.7400    1.4110    1.9570 hc        1 MJI      0.040200
     63 H211       -6.9550    0.6830    4.2230 hc        1 MJI      0.038200
     64 H212       -6.5780   -0.8090    3.7800 hc        1 MJI      0.038200
     65 H221       -8.9550    0.5720    2.9520 hc        1 MJI      0.040200
     66 H222       -8.5620   -0.8790    2.4290 hc        1 MJI      0.040200
     67 H231       -9.1900   -0.2420    5.1320 hc        1 MJI      0.038200
     68 H232       -8.6820   -1.6820    4.6720 hc        1 MJI      0.038200
     69 H241      -11.1130   -0.4860    3.8130 hc        1 MJI      0.039700
     70 H242      -10.5950   -1.8930    3.2860 hc        1 MJI      0.039700
     71 H251      -11.3840   -1.3110    5.9640 hc        1 MJI      0.037700
     72 H252      -10.6710   -2.6900    5.5540 hc        1 MJI      0.037700
     73 H261      -13.1650   -1.8420    4.4160 hc        1 MJI      0.031367
     74 H262      -13.0710   -2.9130    5.6110 hc        1 MJI      0.031367
     75 H263      -12.4740   -3.2730    4.1650 hc        1 MJI      0.031367
@<TRIPOS>BOND
     1    1    2 1   
     2    1    3 1   
     3    1   33 1   
     4    1   34 1   
     5    2   17 1   
     6    3    4 1   
     7    3    5 1   
     8    3   35 1   
     9    4   12 1   
    10    5    6 1   
    11    5   36 1   
    12    5   37 1   
    13    6    7 1   
    14    7    8 1   
    15    7   38 1   
    16    7   39 1   
    17    8    9 1   
    18    8   10 1   
    19    8   11 1   
    20   12   13 1   
    21   12   14 1   
    22   12   16 1   
    23   15   16 1   
    24   15   40 1   
    25   15   41 1   
    26   15   42 1   
    27   17   18 1   
    28   17   43 1   
    29   17   44 1   
    30   18   19 1   
    31   18   45 1   
    32   18   46 1   
    33   19   20 1   
    34   19   47 1   
    35   19   48 1   
    36   20   21 1   
    37   20   49 1   
    38   20   50 1   
    39   21   22 1   
    40   21   51 1   
    41   21   52 1   
    42   22   23 1   
    43   22   53 1   
    44   22   54 1   
    45   23   24 1   
    46   23   55 1   
    47   23   56 1   
    48   24   25 1   
    49   24   57 1   
    50   24   58 1   
    51   25   26 1   
    52   25   59 1   
    53   25   60 1   
    54   26   27 1   
    55   26   61 1   
    56   26   62 1   
    57   27   28 1   
    58   27   63 1   
    59   27   64 1   
    60   28   29 1   
    61   28   65 1   
    62   28   66 1   
    63   29   30 1   
    64   29   67 1   
    65   29   68 1   
    66   30   31 1   
    67   30   69 1   
    68   30   70 1   
    69   31   32 1   
    70   31   71 1   
    71   31   72 1   
    72   32   73 1   
    73   32   74 1   
    74   32   75 1   
@<TRIPOS>SUBSTRUCTURE
     1 MJI         1 TEMP              0 ****  ****    0 ROOT
