@<TRIPOS>MOLECULE
MJI
   75    74     1     0     0
SMALL
bcc


@<TRIPOS>ATOM
      1 C1          0.2600   -0.2540   -0.5100 c3        1 MJI      0.123400
      2 O1         -0.8840    0.5570   -0.7330 os        1 MJI     -0.430600
      3 C2          1.4090    0.5370    0.1330 c3        1 MJI      0.187100
      4 O2          1.1150    0.7980    1.4680 os        1 MJI     -0.580200
      5 C3          2.7020   -0.3070    0.0940 c3        1 MJI      0.089400
      6 O3          2.7880   -0.9330   -1.1980 os        1 MJI     -0.400600
      7 C31         3.8540   -1.8310   -1.3190 c3        1 MJI      0.116400
      8 C32         5.1310   -1.1300   -1.8980 c3        1 MJI      0.583900
      9 F31         6.1460   -2.0270   -2.1480 f         1 MJI     -0.243967
     10 F32         4.9430   -0.4950   -3.0960 f         1 MJI     -0.243967
     11 F33         5.7020   -0.1940   -1.0770 f         1 MJI     -0.243967
     12 P2          1.3500    2.3590    2.0080 p5        1 MJI      1.426800
     13 O21         0.0030    2.9160    2.2390 o         1 MJI     -0.823500
     14 O22         2.4230    2.9370    1.1820 o         1 MJI     -0.823500
     15 C2P         1.0900    1.4880    4.4360 c3        1 MJI      0.182700
     16 O23         1.9810    1.9390    3.4680 os        1 MJI     -0.569200
     17 C11        -1.8340    0.5310    0.3340 c3        1 MJI      0.138400
     18 C12        -2.5450    1.8730    0.3440 c3        1 MJI     -0.105400
     19 C13        -3.8710    1.7650    1.0630 c3        1 MJI     -0.066400
     20 C14        -4.5430    3.1180    1.1640 c3        1 MJI     -0.080400
     21 C15        -5.8740    3.0220    1.8790 c3        1 MJI     -0.077400
     22 C16        -6.5430    4.3760    1.9820 c3        1 MJI     -0.079400
     23 C17        -7.8730    4.2810    2.6980 c3        1 MJI     -0.078400
     24 C18        -8.5400    5.6360    2.8010 c3        1 MJI     -0.079400
     25 C19        -9.8700    5.5420    3.5170 c3        1 MJI     -0.078400
     26 C20       -10.5370    6.8970    3.6200 c3        1 MJI     -0.079400
     27 C21       -11.8670    6.8030    4.3370 c3        1 MJI     -0.078400
     28 C22       -12.5330    8.1580    4.4400 c3        1 MJI     -0.079400
     29 C23       -13.8630    8.0650    5.1570 c3        1 MJI     -0.079400
     30 C24       -14.5280    9.4200    5.2600 c3        1 MJI     -0.079400
     31 C25       -15.8590    9.3280    5.9770 c3        1 MJI     -0.080400
     32 C26       -16.5250   10.6750    6.0820 c3        1 MJI     -0.092100
     33 H11         0.5670   -0.5800   -1.5420 h1        1 MJI      0.040200
     34 H12         0.0110   -1.1470    0.1170 h1        1 MJI      0.040200
     35 H21         1.5790    1.5000   -0.4300 h1        1 MJI      0.079700
     36 H31         3.5990    0.3500    0.2420 h1        1 MJI      0.053200
     37 H32         2.6650   -1.0970    0.8880 h1        1 MJI      0.053200
     38 H311        3.5290   -2.5960   -2.0730 h1        1 MJI      0.071700
     39 H312        4.1440   -2.3100   -0.3500 h1        1 MJI      0.071700
     40 H2P1        1.3420    0.4260    4.7050 h1        1 MJI      0.006700
     41 H2P2        1.2080    2.1170    5.3590 h1        1 MJI      0.006700
     42 H2P3        0.0320    1.5500    4.0690 h1        1 MJI      0.006700
     43 H111       -1.3330    0.3440    1.3190 h1        1 MJI      0.029200
     44 H112       -2.5520   -0.3090    0.1190 h1        1 MJI      0.029200
     45 H121       -1.8850    2.6250    0.8630 hc        1 MJI      0.078200
     46 H122       -2.7040    2.2220   -0.7090 hc        1 MJI      0.078200
     47 H131       -4.5450    1.0490    0.5240 hc        1 MJI      0.027700
     48 H132       -3.7040    1.3540    2.0940 hc        1 MJI      0.027700
     49 H141       -4.6980    3.5380    0.1350 hc        1 MJI      0.046200
     50 H142       -3.8680    3.8260    1.7130 hc        1 MJI      0.046200
     51 H151       -6.5470    2.3110    1.3300 hc        1 MJI      0.033200
     52 H152       -5.7170    2.6010    2.9070 hc        1 MJI      0.033200
     53 H161       -6.6980    4.7970    0.9540 hc        1 MJI      0.040200
     54 H162       -5.8680    5.0850    2.5300 hc        1 MJI      0.040200
     55 H171       -8.5460    3.5710    2.1490 hc        1 MJI      0.036200
     56 H172       -7.7160    3.8600    3.7260 hc        1 MJI      0.036200
     57 H181       -7.8660    6.3450    3.3500 hc        1 MJI      0.039200
     58 H182       -8.6950    6.0570    1.7730 hc        1 MJI      0.039200
     59 H191       -9.7140    5.1200    4.5450 hc        1 MJI      0.037700
     60 H192      -10.5430    4.8320    2.9680 hc        1 MJI      0.037700
     61 H201       -9.8630    7.6060    4.1690 hc        1 MJI      0.039700
     62 H202      -10.6920    7.3190    2.5920 hc        1 MJI      0.039700
     63 H211      -12.5400    6.0940    3.7880 hc        1 MJI      0.038200
     64 H212      -11.7100    6.3810    5.3650 hc        1 MJI      0.038200
     65 H221      -11.8590    8.8670    4.9890 hc        1 MJI      0.039200
     66 H222      -12.6880    8.5800    3.4120 hc        1 MJI      0.039200
     67 H231      -14.5360    7.3550    4.6080 hc        1 MJI      0.038200
     68 H232      -13.7070    7.6430    6.1850 hc        1 MJI      0.038200
     69 H241      -14.6840    9.8420    4.2320 hc        1 MJI      0.039200
     70 H242      -13.8550   10.1290    5.8090 hc        1 MJI      0.039200
     71 H251      -16.5310    8.6170    5.4270 hc        1 MJI      0.037700
     72 H252      -15.7010    8.9040    7.0040 hc        1 MJI      0.037700
     73 H261      -16.7130   11.1020    5.0670 hc        1 MJI      0.031033
     74 H262      -17.5030   10.5840    6.6130 hc        1 MJI      0.031033
     75 H263      -15.8810   11.3900    6.6490 hc        1 MJI      0.031033
@<TRIPOS>BOND
     1    1    2 1   
     2    1    3 1   
     3    1   33 1   
     4    1   34 1   
     5    2   17 1   
     6    3    4 1   
     7    3    5 1   
     8    3   35 1   
     9    4   12 1   
    10    5    6 1   
    11    5   36 1   
    12    5   37 1   
    13    6    7 1   
    14    7    8 1   
    15    7   38 1   
    16    7   39 1   
    17    8    9 1   
    18    8   10 1   
    19    8   11 1   
    20   12   13 1   
    21   12   14 1   
    22   12   16 1   
    23   15   16 1   
    24   15   40 1   
    25   15   41 1   
    26   15   42 1   
    27   17   18 1   
    28   17   43 1   
    29   17   44 1   
    30   18   19 1   
    31   18   45 1   
    32   18   46 1   
    33   19   20 1   
    34   19   47 1   
    35   19   48 1   
    36   20   21 1   
    37   20   49 1   
    38   20   50 1   
    39   21   22 1   
    40   21   51 1   
    41   21   52 1   
    42   22   23 1   
    43   22   53 1   
    44   22   54 1   
    45   23   24 1   
    46   23   55 1   
    47   23   56 1   
    48   24   25 1   
    49   24   57 1   
    50   24   58 1   
    51   25   26 1   
    52   25   59 1   
    53   25   60 1   
    54   26   27 1   
    55   26   61 1   
    56   26   62 1   
    57   27   28 1   
    58   27   63 1   
    59   27   64 1   
    60   28   29 1   
    61   28   65 1   
    62   28   66 1   
    63   29   30 1   
    64   29   67 1   
    65   29   68 1   
    66   30   31 1   
    67   30   69 1   
    68   30   70 1   
    69   31   32 1   
    70   31   71 1   
    71   31   72 1   
    72   32   73 1   
    73   32   74 1   
    74   32   75 1   
@<TRIPOS>SUBSTRUCTURE
     1 MJI         1 TEMP              0 ****  ****    0 ROOT
