@<TRIPOS>MOLECULE
MJP
   38    40     1     0     0
SMALL
bcc


@<TRIPOS>ATOM
      1 N3         -1.6540   -0.5060   -1.8820 n1        1 MJP     -0.378800
      2 C16        -0.9120   -0.2730   -1.0160 cg        1 MJP      0.231500
      3 C14        -0.0290   -0.0030    0.0370 cc        1 MJP     -0.063900
      4 C15         1.3320    0.3160   -0.0700 cd        1 MJP     -0.028100
      5 N2          1.8750    0.4980    1.1940 na        1 MJP     -0.173400
      6 C11         0.8680    0.3070    2.1490 ca        1 MJP     -0.060200
      7 C10         0.9070    0.3750    3.5500 ca        1 MJP     -0.112000
      8 C9         -0.2620    0.1250    4.2500 ca        1 MJP     -0.112000
      9 C12        -0.3580   -0.0100    1.4480 ca        1 MJP     -0.046800
     10 C13        -1.5290   -0.2400    2.1670 ca        1 MJP     -0.120000
     11 C8         -1.4570   -0.1730    3.5550 ca        1 MJP      0.065100
     12 O1         -2.5970   -0.2740    4.3600 os        1 MJP     -0.235200
     13 C2         -3.4750   -1.3040    4.0760 ca        1 MJP      0.138100
     14 C1         -3.1130   -2.4890    3.4200 ca        1 MJP     -0.147000
     15 C3         -4.7840   -1.1210    4.5520 ca        1 MJP     -0.147000
     16 C4         -5.7320   -2.1200    4.3640 ca        1 MJP     -0.105000
     17 C5         -5.3830   -3.3080    3.6920 ca        1 MJP     -0.028400
     18 C          -4.0620   -3.4840    3.2250 ca        1 MJP     -0.105000
     19 N          -6.3140   -4.3600    3.4760 ns        1 MJP     -0.406100
     20 C6         -7.6640   -4.2130    3.4290 c         1 MJP      0.646100
     21 O          -8.3150   -3.1720    3.6560 o         1 MJP     -0.600100
     22 C7         -8.4760   -5.4990    3.1030 c3        1 MJP     -0.000200
     23 N1         -9.8980   -5.1580    2.8320 nz        1 MJP     -0.829600
     24 H15         1.9450    0.4220   -0.9710 h4        1 MJP      0.187000
     25 H2          2.8080    0.7490    1.3940 hn        1 MJP      0.314700
     26 H10         1.8380    0.6190    4.0810 ha        1 MJP      0.150000
     27 H9         -0.2800    0.1720    5.3490 ha        1 MJP      0.158000
     28 H13        -2.4750   -0.4630    1.6540 ha        1 MJP      0.155000
     29 H1         -2.0830   -2.6290    3.0570 ha        1 MJP      0.169000
     30 H3         -5.0480   -0.1880    5.0730 ha        1 MJP      0.169000
     31 H          -3.7610   -4.4080    2.7070 ha        1 MJP      0.152000
     32 H4         -6.7570   -1.9590    4.7370 ha        1 MJP      0.152000
     33 HA         -5.9160   -5.2460    3.2520 hn        1 MJP      0.333500
     34 H71C       -8.0530   -6.0300    2.2040 hx        1 MJP      0.127200
     35 H72C       -8.4330   -6.1860    3.9980 hx        1 MJP      0.127200
     36 H11N      -10.0180   -4.8990    1.8470 hn        1 MJP      0.474800
     37 H12N      -10.5070   -5.9480    3.0560 hn        1 MJP      0.474800
     38 H131      -10.1580   -4.3350    3.4090 hn        1 MJP      0.474800
@<TRIPOS>BOND
     1    1    2 3   
     2    2    3 1   
     3    3    4 2   
     4    3    9 1   
     5    4    5 1   
     6    4   24 1   
     7    5    6 1   
     8    5   25 1   
     9    6    7 ar  
    10    6    9 ar  
    11    7    8 ar  
    12    7   26 1   
    13    8   11 ar  
    14    8   27 1   
    15    9   10 ar  
    16   10   11 ar  
    17   10   28 1   
    18   11   12 1   
    19   12   13 1   
    20   13   14 ar  
    21   13   15 ar  
    22   14   18 ar  
    23   14   29 1   
    24   15   16 ar  
    25   15   30 1   
    26   16   17 ar  
    27   16   32 1   
    28   17   18 ar  
    29   17   19 1   
    30   18   31 1   
    31   19   20 1   
    32   19   33 1   
    33   20   21 2   
    34   20   22 1   
    35   22   23 1   
    36   22   34 1   
    37   22   35 1   
    38   23   36 1   
    39   23   37 1   
    40   23   38 1   
@<TRIPOS>SUBSTRUCTURE
     1 MJP         1 TEMP              0 ****  ****    0 ROOT
