@<TRIPOS>MOLECULE
MJP
   38    40     1     0     0
SMALL
bcc


@<TRIPOS>ATOM
      1 N3         -1.6400   -0.4590   -1.9030 n1        1 MJP     -0.378800
      2 C16        -0.8930   -0.2490   -1.0340 cg        1 MJP      0.231500
      3 C14        -0.0070   -0.0060    0.0230 cc        1 MJP     -0.063900
      4 C15         1.3580    0.2980   -0.0810 cd        1 MJP     -0.028100
      5 N2          1.9040    0.4530    1.1860 na        1 MJP     -0.173400
      6 C11         0.8950    0.2580    2.1380 ca        1 MJP     -0.060200
      7 C10         0.9370    0.3030    3.5410 ca        1 MJP     -0.112000
      8 C9         -0.2340    0.0550    4.2370 ca        1 MJP     -0.112000
      9 C12        -0.3340   -0.0330    1.4330 ca        1 MJP     -0.046800
     10 C13        -1.5080   -0.2610    2.1500 ca        1 MJP     -0.120000
     11 C8         -1.4330   -0.2170    3.5390 ca        1 MJP      0.065100
     12 O1         -2.5740   -0.3190    4.3430 os        1 MJP     -0.235200
     13 C2         -3.4650   -1.3330    4.0420 ca        1 MJP      0.138100
     14 C1         -3.1180   -2.5110    3.3660 ca        1 MJP     -0.147000
     15 C3         -4.7720   -1.1420    4.5220 ca        1 MJP     -0.147000
     16 C4         -5.7310   -2.1250    4.3180 ca        1 MJP     -0.105000
     17 C5         -5.3980   -3.3060    3.6250 ca        1 MJP     -0.028400
     18 C          -4.0790   -3.4910    3.1550 ca        1 MJP     -0.105000
     19 N          -6.3420   -4.3430    3.3930 n         1 MJP     -0.406100
     20 C6         -7.6900   -4.1790    3.3490 c         1 MJP      0.646100
     21 O          -8.3280   -3.1330    3.5940 o         1 MJP     -0.600100
     22 C7         -8.5170   -5.4500    3.0020 c3        1 MJP     -0.000200
     23 N1         -9.9350   -5.0870    2.7370 n4        1 MJP     -0.829600
     24 H15         1.9710    0.4110   -0.9800 h4        1 MJP      0.187000
     25 H2          2.8400    0.6890    1.3890 hn        1 MJP      0.314700
     26 H10         1.8710    0.5270    4.0740 ha        1 MJP      0.150000
     27 H9         -0.2520    0.0840    5.3370 ha        1 MJP      0.158000
     28 H13        -2.4570   -0.4640    1.6340 ha        1 MJP      0.155000
     29 H1         -2.0890   -2.6570    3.0010 ha        1 MJP      0.169000
     30 H3         -5.0240   -0.2140    5.0590 ha        1 MJP      0.169000
     31 H          -3.7890   -4.4100    2.6210 ha        1 MJP      0.152000
     32 H4         -6.7540   -1.9580    4.6940 ha        1 MJP      0.152000
     33 HA         -5.9550   -5.2310    3.1540 hn        1 MJP      0.333500
     34 H71C       -8.4820   -6.1510    3.8850 hx        1 MJP      0.127200
     35 H72C       -8.1020   -5.9700    2.0930 hx        1 MJP      0.127200
     36 H11N      -10.5540   -5.8720    2.9490 hn        1 MJP      0.474800
     37 H12N      -10.0530   -4.8100    1.7570 hn        1 MJP      0.474800
     38 H131      -10.1850   -4.2700    3.3280 hn        1 MJP      0.474800
@<TRIPOS>BOND
     1    1    2 3   
     2    2    3 1   
     3    3    4 2   
     4    3    9 1   
     5    4    5 1   
     6    4   24 1   
     7    5    6 1   
     8    5   25 1   
     9    6    7 ar  
    10    6    9 ar  
    11    7    8 ar  
    12    7   26 1   
    13    8   11 ar  
    14    8   27 1   
    15    9   10 ar  
    16   10   11 ar  
    17   10   28 1   
    18   11   12 1   
    19   12   13 1   
    20   13   14 ar  
    21   13   15 ar  
    22   14   18 ar  
    23   14   29 1   
    24   15   16 ar  
    25   15   30 1   
    26   16   17 ar  
    27   16   32 1   
    28   17   18 ar  
    29   17   19 1   
    30   18   31 1   
    31   19   20 1   
    32   19   33 1   
    33   20   21 2   
    34   20   22 1   
    35   22   23 1   
    36   22   34 1   
    37   22   35 1   
    38   23   36 1   
    39   23   37 1   
    40   23   38 1   
@<TRIPOS>SUBSTRUCTURE
     1 MJP         1 TEMP              0 ****  ****    0 ROOT
