@<TRIPOS>MOLECULE
MJQ
   72    75     1     0     0
SMALL
bcc


@<TRIPOS>ATOM
      1 CAW         0.3130    1.2960    0.3630 ca        1 MJQ     -0.059000
      2 CAX         1.4160    2.0860    0.6630 ca        1 MJQ     -0.135000
      3 CAY         1.6100    2.5810    1.9610 ca        1 MJQ      0.036700
      4 CAZ         2.7700    3.4420    2.2720 c3        1 MJQ     -0.091800
      5 CAO         0.6680    2.2680    2.9580 ca        1 MJQ     -0.135000
      6 CAN        -0.4340    1.4750    2.6710 ca        1 MJQ     -0.059000
      7 CAM        -0.6160    0.9680    1.3720 ca        1 MJQ     -0.236600
      8 CAL        -1.7540    0.1570    0.9650 c         1 MJQ      0.599700
      9 OAV        -2.2460    0.0170   -0.1470 o         1 MJQ     -0.442100
     10 NAK        -2.3830   -0.7470    2.0540 n4        1 MJQ     -0.600200
     11 CAU        -1.9260   -2.1460    1.7690 c3        1 MJQ      0.093800
     12 CBC        -1.6480   -3.0090    2.9960 c3        1 MJQ     -0.132400
     13 CBD        -1.3970   -4.4590    2.5970 c3        1 MJQ      0.107800
     14 NBE        -2.6230   -5.2850    2.4370 n4        1 MJQ     -0.852600
     15 CAJ        -3.8970   -0.6240    2.0580 c3        1 MJQ      0.176700
     16 CAB        -4.4040    0.7530    2.5490 c3        1 MJQ     -0.068700
     17 CAA        -3.9320    1.8890    1.6700 c3        1 MJQ     -0.116100
     18 CAC        -5.9230    0.7200    2.5650 c3        1 MJQ     -0.116100
     19 CAI        -4.4820   -1.7190    2.9200 cc        1 MJQ      0.065900
     20 OAH        -4.2080   -1.4720    4.2560 os        1 MJQ     -0.251200
     21 CAG        -4.9740   -2.1870    5.1810 ca        1 MJQ      0.121100
     22 CAF        -5.0760   -1.6450    6.4630 ca        1 MJQ     -0.143000
     23 CAE        -5.7970   -2.3680    7.4240 ca        1 MJQ      0.083400
     24 CLA        -5.9520   -1.7420    8.9800 cl        1 MJQ      0.004600
     25 CAP        -6.3940   -3.5980    7.1010 ca        1 MJQ     -0.131000
     26 CAQ        -6.2710   -4.1220    5.8180 ca        1 MJQ     -0.021000
     27 CAR        -5.5550   -3.4210    4.8370 ca        1 MJQ     -0.245600
     28 CAS        -5.3870   -3.9070    3.4720 c         1 MJQ      0.594900
     29 OBA        -5.3540   -5.1090    3.1590 o         1 MJQ     -0.578100
     30 CAT        -5.1040   -2.8410    2.4780 cd        1 MJQ     -0.236400
     31 CBB        -5.6350   -3.0240    1.0970 c3        1 MJQ     -0.002900
     32 CBG        -4.7590   -3.7760    0.1530 ca        1 MJQ     -0.128300
     33 CBF        -4.7780   -5.1790    0.1460 ca        1 MJQ     -0.166500
     34 CBI        -4.0670   -5.8890   -0.8210 ca        1 MJQ     -0.123500
     35 CBJ        -3.3340   -5.2080   -1.7940 ca        1 MJQ     -0.112000
     36 CBK        -3.3150   -3.8120   -1.7960 ca        1 MJQ     -0.123500
     37 CBH        -4.0240   -3.0990   -0.8290 ca        1 MJQ     -0.166500
     38 HAW         0.1580    0.9300   -0.6670 ha        1 MJQ      0.147500
     39 HAX         2.1410    2.3360   -0.1320 ha        1 MJQ      0.174500
     40 HAZ1        3.0660    3.3520    3.3470 hc        1 MJQ      0.080700
     41 HAZ2        3.6510    3.1790    1.6340 hc        1 MJQ      0.080700
     42 HAZ3        2.5060    4.5140    2.0720 hc        1 MJQ      0.080700
     43 HAO         0.8040    2.6710    3.9760 ha        1 MJQ      0.174500
     44 HAN        -1.1720    1.2990    3.4700 ha        1 MJQ      0.147500
     45 HAU1       -0.9700   -2.0770    1.1670 hx        1 MJQ      0.112700
     46 HAU2       -2.7090   -2.6300    1.1090 hx        1 MJQ      0.112700
     47 HAJ        -4.2310   -0.7730    0.9830 hx        1 MJQ      0.137700
     48 HBC1       -2.4780   -2.9360    3.7520 hc        1 MJQ      0.104200
     49 HBC2       -0.7130   -2.6430    3.5080 hc        1 MJQ      0.104200
     50 HBD1       -0.7630   -4.9490    3.3970 hx        1 MJQ      0.123200
     51 HBD2       -0.8260   -4.5010    1.6220 hx        1 MJQ      0.123200
     52 HBE1       -3.1320   -5.3770    3.3280 hn        1 MJQ      0.475800
     53 HBE2       -3.2820   -4.8710    1.7500 hn        1 MJQ      0.475800
     54 HAB        -4.0380    0.9140    3.6030 hc        1 MJQ      0.076700
     55 HAA1       -4.0760    1.6520    0.5880 hc        1 MJQ      0.064533
     56 HAA2       -4.5230    2.8120    1.9010 hc        1 MJQ      0.064533
     57 HAA3       -2.8560    2.1300    1.8550 hc        1 MJQ      0.064533
     58 HAC1       -6.2990   -0.0670    3.2630 hc        1 MJQ      0.064533
     59 HAC2       -6.3120    1.7090    2.9140 hc        1 MJQ      0.064533
     60 HAC3       -6.3270    0.5250    1.5420 hc        1 MJQ      0.064533
     61 HAF        -4.6110   -0.6760    6.7040 ha        1 MJQ      0.181000
     62 HAP        -6.9660   -4.1500    7.8670 ha        1 MJQ      0.188000
     63 HAQ        -6.7400   -5.0880    5.5590 ha        1 MJQ      0.179000
     64 HBB1       -6.6140   -3.5830    1.1860 hc        1 MJQ      0.094200
     65 HBB2       -5.8860   -2.0190    0.6550 hc        1 MJQ      0.094200
     66 HBF        -5.4170   -5.7170    0.8700 ha        1 MJQ      0.155000
     67 HBH        -4.0420   -1.9980   -0.8790 ha        1 MJQ      0.155000
     68 HBI        -4.1250   -6.9900   -0.8470 ha        1 MJQ      0.162500
     69 HBJ        -2.8010   -5.7690   -2.5790 ha        1 MJQ      0.168000
     70 HBK        -2.7680   -3.2710   -2.5860 ha        1 MJQ      0.162500
     71 HAK1       -2.0400   -0.4580    2.9770 hn        1 MJQ      0.455800
     72 HBE3       -2.3670   -6.2260    2.1130 hn        1 MJQ      0.475800
@<TRIPOS>BOND
     1    1    2 ar  
     2    1    7 ar  
     3    1   38 1   
     4    2    3 ar  
     5    2   39 1   
     6    3    4 1   
     7    3    5 ar  
     8    4   40 1   
     9    4   41 1   
    10    4   42 1   
    11    5    6 ar  
    12    5   43 1   
    13    6    7 ar  
    14    6   44 1   
    15    7    8 1   
    16    8    9 2   
    17    8   10 1   
    18   10   11 1   
    19   10   15 1   
    20   10   71 1   
    21   11   12 1   
    22   11   45 1   
    23   11   46 1   
    24   12   13 1   
    25   12   48 1   
    26   12   49 1   
    27   13   14 1   
    28   13   50 1   
    29   13   51 1   
    30   14   52 1   
    31   14   53 1   
    32   14   72 1   
    33   15   16 1   
    34   15   19 1   
    35   15   47 1   
    36   16   17 1   
    37   16   18 1   
    38   16   54 1   
    39   17   55 1   
    40   17   56 1   
    41   17   57 1   
    42   18   58 1   
    43   18   59 1   
    44   18   60 1   
    45   19   20 1   
    46   19   30 2   
    47   20   21 1   
    48   21   22 ar  
    49   21   27 ar  
    50   22   23 ar  
    51   22   61 1   
    52   23   24 1   
    53   23   25 ar  
    54   25   26 ar  
    55   25   62 1   
    56   26   27 ar  
    57   26   63 1   
    58   27   28 1   
    59   28   29 2   
    60   28   30 1   
    61   30   31 1   
    62   31   32 1   
    63   31   64 1   
    64   31   65 1   
    65   32   33 ar  
    66   32   37 ar  
    67   33   34 ar  
    68   33   66 1   
    69   34   35 ar  
    70   34   68 1   
    71   35   36 ar  
    72   35   69 1   
    73   36   37 ar  
    74   36   70 1   
    75   37   67 1   
@<TRIPOS>SUBSTRUCTURE
     1 MJQ         1 TEMP              0 ****  ****    0 ROOT
