@<TRIPOS>MOLECULE
MJQ
   72    75     1     0     0
SMALL
bcc


@<TRIPOS>ATOM
      1 CAW         0.4630   -1.2390    0.2070 ca        1 MJQ     -0.059000
      2 CAX         1.2880   -0.4040   -0.5380 ca        1 MJQ     -0.135000
      3 CAY         1.0480    0.9760   -0.5910 ca        1 MJQ      0.031700
      4 CAZ         1.9140    1.8590   -1.4000 c3        1 MJQ     -0.089800
      5 CAO        -0.0450    1.5060    0.1190 ca        1 MJQ     -0.135000
      6 CAN        -0.8700    0.6820    0.8710 ca        1 MJQ     -0.059000
      7 CAM        -0.6160   -0.6980    0.9350 ca        1 MJQ     -0.227600
      8 CAL        -1.4320   -1.6460    1.6800 c         1 MJQ      0.589700
      9 OAV        -1.5720   -2.8460    1.5100 o         1 MJQ     -0.412100
     10 NAK        -2.1470   -1.0780    2.9450 n4        1 MJQ     -0.602200
     11 CAU        -1.8020   -1.9890    4.0720 c3        1 MJQ      0.115800
     12 CBC        -2.1990   -1.5160    5.4680 c3        1 MJQ     -0.127400
     13 CBD        -1.7160   -2.5670    6.4670 c3        1 MJQ      0.100800
     14 NBE        -2.1620   -2.2940    7.8630 n4        1 MJQ     -0.836600
     15 CAJ        -3.6110   -0.8180    2.6500 c3        1 MJQ      0.186700
     16 CAB        -4.2480    0.2750    3.5460 c3        1 MJQ     -0.079700
     17 CAA        -3.3530    1.4680    3.7990 c3        1 MJQ     -0.115600
     18 CAC        -5.5320    0.7480    2.8840 c3        1 MJQ     -0.115600
     19 CAI        -4.4840   -2.0520    2.6770 cc        1 MJQ      0.033900
     20 OAH        -4.4290   -2.6520    3.9320 os        1 MJQ     -0.286200
     21 CAG        -5.2790   -3.7270    4.1630 ca        1 MJQ      0.142100
     22 CAF        -5.2550   -4.2380    5.4680 ca        1 MJQ     -0.192000
     23 CAE        -6.0730   -5.3300    5.7680 ca        1 MJQ      0.078400
     24 CLA        -6.0590   -5.9610    7.3380 cl        1 MJQ     -0.042400
     25 CAP        -6.8980   -5.9000    4.7870 ca        1 MJQ     -0.132000
     26 CAQ        -6.9070   -5.3760    3.4980 ca        1 MJQ     -0.010000
     27 CAR        -6.0950   -4.2790    3.1690 ca        1 MJQ     -0.206600
     28 CAS        -6.0920   -3.7080    1.8170 c         1 MJQ      0.574900
     29 OBA        -6.7190   -4.2020    0.8760 o         1 MJQ     -0.467100
     30 CAT        -5.2710   -2.4760    1.6610 cd        1 MJQ     -0.133400
     31 CBB        -5.4460   -1.7410    0.3730 c3        1 MJQ     -0.011900
     32 CBG        -4.4070   -2.0220   -0.6550 ca        1 MJQ     -0.115300
     33 CBF        -4.1850   -3.3310   -1.0990 ca        1 MJQ     -0.130500
     34 CBI        -3.2820   -3.5760   -2.1330 ca        1 MJQ     -0.119000
     35 CBJ        -2.6060   -2.5170   -2.7390 ca        1 MJQ     -0.114000
     36 CBK        -2.8320   -1.2100   -2.3060 ca        1 MJQ     -0.119000
     37 CBH        -3.7250   -0.9620   -1.2650 ca        1 MJQ     -0.130500
     38 HAW         0.6470   -2.3270    0.2250 ha        1 MJQ      0.146000
     39 HAX         2.1340   -0.8350   -1.1010 ha        1 MJQ      0.172000
     40 HAZ1        1.5210    1.9110   -2.4500 hc        1 MJQ      0.079367
     41 HAZ2        2.9620    1.4690   -1.4420 hc        1 MJQ      0.079367
     42 HAZ3        1.9350    2.8980   -0.9860 hc        1 MJQ      0.079367
     43 HAO        -0.2500    2.5890    0.0660 ha        1 MJQ      0.172000
     44 HAN        -1.7400    1.1280    1.3760 ha        1 MJQ      0.146000
     45 HAU1       -2.2770   -2.9940    3.8570 hx        1 MJQ      0.118200
     46 HAU2       -0.6780   -2.1210    4.0400 hx        1 MJQ      0.118200
     47 HAJ        -3.6090   -0.4320    1.5760 hx        1 MJQ      0.133700
     48 HBC1       -3.3190   -1.4160    5.5260 hc        1 MJQ      0.092200
     49 HBC2       -1.7400   -0.5180    5.6950 hc        1 MJQ      0.092200
     50 HBD1       -2.1190   -3.5840    6.1750 hx        1 MJQ      0.126200
     51 HBD2       -0.5870   -2.6130    6.4710 hx        1 MJQ      0.126200
     52 HBE1       -1.8200   -1.3790    8.1800 hn        1 MJQ      0.473133
     53 HBE2       -1.7940   -3.0210    8.4910 hn        1 MJQ      0.473133
     54 HAB        -4.5210   -0.1950    4.5330 hc        1 MJQ      0.063700
     55 HAA1       -2.5090    1.2220    4.4890 hc        1 MJQ      0.060867
     56 HAA2       -2.9460    1.8850    2.8460 hc        1 MJQ      0.060867
     57 HAA3       -3.9510    2.2810    4.2870 hc        1 MJQ      0.060867
     58 HAC1       -5.3140    1.2780    1.9250 hc        1 MJQ      0.060867
     59 HAC2       -6.0630    1.4590    3.5640 hc        1 MJQ      0.060867
     60 HAC3       -6.2130   -0.1130    2.6770 hc        1 MJQ      0.060867
     61 HAF        -4.6130   -3.7760    6.2280 ha        1 MJQ      0.109000
     62 HAP        -7.5410   -6.7620    5.0370 ha        1 MJQ      0.187000
     63 HAQ        -7.5530   -5.8160    2.7160 ha        1 MJQ      0.191000
     64 HBB1       -6.4460   -2.0390   -0.0660 hc        1 MJQ      0.084700
     65 HBB2       -5.5050   -0.6360    0.5780 hc        1 MJQ      0.084700
     66 HBF        -4.7510   -4.1620   -0.6480 ha        1 MJQ      0.135000
     67 HBH        -3.9250    0.0750   -0.9540 ha        1 MJQ      0.135000
     68 HBI        -3.1210   -4.6070   -2.4850 ha        1 MJQ      0.147000
     69 HBJ        -1.9120   -2.7100   -3.5710 ha        1 MJQ      0.150000
     70 HBK        -2.3220   -0.3700   -2.8020 ha        1 MJQ      0.147000
     71 HAK1       -1.7260   -0.1600    3.1410 hn        1 MJQ      0.450800
     72 HBE3       -3.1880   -2.2980    7.9180 hn        1 MJQ      0.473133
@<TRIPOS>BOND
     1    1    2 ar  
     2    1    7 ar  
     3    1   38 1   
     4    2    3 ar  
     5    2   39 1   
     6    3    4 1   
     7    3    5 ar  
     8    4   40 1   
     9    4   41 1   
    10    4   42 1   
    11    5    6 ar  
    12    5   43 1   
    13    6    7 ar  
    14    6   44 1   
    15    7    8 1   
    16    8    9 2   
    17    8   10 1   
    18   10   11 1   
    19   10   15 1   
    20   10   71 1   
    21   11   12 1   
    22   11   45 1   
    23   11   46 1   
    24   12   13 1   
    25   12   48 1   
    26   12   49 1   
    27   13   14 1   
    28   13   50 1   
    29   13   51 1   
    30   14   52 1   
    31   14   53 1   
    32   14   72 1   
    33   15   16 1   
    34   15   19 1   
    35   15   47 1   
    36   16   17 1   
    37   16   18 1   
    38   16   54 1   
    39   17   55 1   
    40   17   56 1   
    41   17   57 1   
    42   18   58 1   
    43   18   59 1   
    44   18   60 1   
    45   19   20 1   
    46   19   30 2   
    47   20   21 1   
    48   21   22 ar  
    49   21   27 ar  
    50   22   23 ar  
    51   22   61 1   
    52   23   24 1   
    53   23   25 ar  
    54   25   26 ar  
    55   25   62 1   
    56   26   27 ar  
    57   26   63 1   
    58   27   28 1   
    59   28   29 2   
    60   28   30 1   
    61   30   31 1   
    62   31   32 1   
    63   31   64 1   
    64   31   65 1   
    65   32   33 ar  
    66   32   37 ar  
    67   33   34 ar  
    68   33   66 1   
    69   34   35 ar  
    70   34   68 1   
    71   35   36 ar  
    72   35   69 1   
    73   36   37 ar  
    74   36   70 1   
    75   37   67 1   
@<TRIPOS>SUBSTRUCTURE
     1 MJQ         1 TEMP              0 ****  ****    0 ROOT
