@<TRIPOS>MOLECULE
MJQ
   72    75     1     0     0
SMALL
bcc


@<TRIPOS>ATOM
      1 CAW        -0.3130    2.1150    0.7550 ca        1 MJQ     -0.059000
      2 CAX         0.6320    3.0230    1.2180 ca        1 MJQ     -0.133000
      3 CAY         1.2580    2.8330    2.4580 ca        1 MJQ      0.033700
      4 CAZ         2.2690    3.7960    2.9420 c3        1 MJQ     -0.089800
      5 CAO         0.9200    1.7040    3.2270 ca        1 MJQ     -0.133000
      6 CAN        -0.0250    0.7940    2.7750 ca        1 MJQ     -0.059000
      7 CAM        -0.6580    0.9940    1.5360 ca        1 MJQ     -0.228600
      8 CAL        -1.6500    0.0890    0.9680 c         1 MJQ      0.593700
      9 OAV        -1.9550   -0.0740   -0.2050 o         1 MJQ     -0.434100
     10 NAK        -2.4110   -0.8150    1.9640 nx        1 MJQ     -0.597200
     11 CAU        -1.8540   -2.1950    1.8030 c3        1 MJQ      0.101800
     12 CBC        -1.7530   -3.0150    3.0880 c3        1 MJQ     -0.130400
     13 CBD        -1.4760   -4.4650    2.6930 c3        1 MJQ      0.089800
     14 NBE        -1.5150   -5.4040    3.8490 nz        1 MJQ     -0.833600
     15 CAJ        -3.9110   -0.7680    1.7200 c3        1 MJQ      0.184700
     16 CAB        -4.5370    0.6180    2.0200 c3        1 MJQ     -0.069700
     17 CAA        -4.0050    1.7070    1.1180 c3        1 MJQ     -0.115100
     18 CAC        -6.0430    0.5090    1.8420 c3        1 MJQ     -0.115100
     19 CAI        -4.6050   -1.8100    2.5690 cc        1 MJQ      0.032900
     20 OAH        -4.4420   -1.5000    3.9150 os        1 MJQ     -0.268200
     21 CAG        -5.3490   -2.0900    4.7960 ca        1 MJQ      0.118100
     22 CAF        -5.4670   -1.4910    6.0540 ca        1 MJQ     -0.155000
     23 CAE        -6.3410   -2.0740    6.9800 ca        1 MJQ      0.075400
     24 ClA        -6.5140   -1.3750    8.5040 cl        1 MJQ     -0.008400
     25 CAP        -7.0760   -3.2250    6.6490 ca        1 MJQ     -0.136000
     26 CAQ        -6.9390   -3.8040    5.3920 ca        1 MJQ     -0.027000
     27 CAR        -6.0660   -3.2450    4.4470 ca        1 MJQ     -0.238600
     28 CAS        -5.9040   -3.8160    3.1070 c         1 MJQ      0.572900
     29 OBA        -6.2130   -4.9760    2.8150 o         1 MJQ     -0.502100
     30 CAT        -5.2820   -2.8920    2.1210 cd        1 MJQ     -0.182400
     31 CBB        -5.5150   -3.1970    0.6800 c3        1 MJQ     -0.008900
     32 CBG        -4.3860   -3.9210    0.0280 ca        1 MJQ     -0.109300
     33 CBF        -4.1010   -5.2440    0.3920 ca        1 MJQ     -0.153500
     34 CBI        -3.1050   -5.9560   -0.2740 ca        1 MJQ     -0.134000
     35 CBJ        -2.3900   -5.3580   -1.3140 ca        1 MJQ     -0.120000
     36 CBK        -2.6740   -4.0430   -1.6830 ca        1 MJQ     -0.134000
     37 CBH        -3.6670   -3.3260   -1.0150 ca        1 MJQ     -0.153500
     38 HAW        -0.7960    2.2690   -0.2260 ha        1 MJQ      0.141000
     39 HAX         0.8940    3.9010    0.6020 ha        1 MJQ      0.172000
     40 HAZ1        3.2560    3.5860    2.4500 hc        1 MJQ      0.079700
     41 HAZ2        2.4080    3.7240    4.0490 hc        1 MJQ      0.079700
     42 HAZ3        1.9740    4.8460    2.6870 hc        1 MJQ      0.079700
     43 HAO         1.4160    1.5440    4.1990 ha        1 MJQ      0.172000
     44 HAN        -0.2390   -0.0880    3.3960 ha        1 MJQ      0.141000
     45 HAU1       -2.5000   -2.7350    1.0410 hx        1 MJQ      0.122200
     46 HAU2       -0.8160   -2.0990    1.3650 hx        1 MJQ      0.122200
     47 HAJ        -4.0610   -1.0140    0.6220 hx        1 MJQ      0.136700
     48 HBC1       -0.9220   -2.6160    3.7300 hc        1 MJQ      0.090700
     49 HBC2       -2.7050   -2.9440    3.6820 hc        1 MJQ      0.090700
     50 HBD1       -2.2500   -4.8200    1.9370 hx        1 MJQ      0.133700
     51 HBD2       -0.4530   -4.5460    2.2190 hx        1 MJQ      0.133700
     52 HBE1       -1.3100   -6.3570    3.5230 hn        1 MJQ      0.472133
     53 HBE2       -0.8200   -5.1390    4.5560 hn        1 MJQ      0.472133
     54 HAB        -4.3240    0.8800    3.0950 hc        1 MJQ      0.077700
     55 HAA1       -4.6680    2.6070    1.1870 hc        1 MJQ      0.063033
     56 HAA2       -2.9790    2.0300    1.4220 hc        1 MJQ      0.063033
     57 HAA3       -3.9850    1.3770    0.0500 hc        1 MJQ      0.063033
     58 HAC1       -6.4820   -0.2130    2.5730 hc        1 MJQ      0.063033
     59 HAC2       -6.5110    1.5100    2.0210 hc        1 MJQ      0.063033
     60 HAC3       -6.2990    0.1820    0.8060 hc        1 MJQ      0.063033
     61 HAF        -4.9010   -0.5790    6.2960 ha        1 MJQ      0.174000
     62 HAP        -7.7710   -3.6640    7.3850 ha        1 MJQ      0.185000
     63 HAQ        -7.5190   -4.7040    5.1210 ha        1 MJQ      0.182000
     64 HBB1       -5.7430   -2.2460    0.1230 hc        1 MJQ      0.094700
     65 HBB2       -6.4380   -3.8460    0.6000 hc        1 MJQ      0.094700
     66 HBF        -4.7200   -5.7360    1.1630 ha        1 MJQ      0.152500
     67 HBH        -3.9120   -2.3040   -1.3460 ha        1 MJQ      0.152500
     68 HBI        -2.9210   -7.0120   -0.0210 ha        1 MJQ      0.154000
     69 HBJ        -1.6300   -5.9340   -1.8650 ha        1 MJQ      0.160000
     70 HBK        -2.1360   -3.5790   -2.5270 ha        1 MJQ      0.154000
     71 HAK1       -2.2470   -0.4750    2.9180 hn        1 MJQ      0.455800
     72 HBE3       -2.4450   -5.3980    4.2850 hn        1 MJQ      0.472133
@<TRIPOS>BOND
     1    1    2 ar  
     2    1    7 ar  
     3    1   38 1   
     4    2    3 ar  
     5    2   39 1   
     6    3    4 1   
     7    3    5 ar  
     8    4   40 1   
     9    4   41 1   
    10    4   42 1   
    11    5    6 ar  
    12    5   43 1   
    13    6    7 ar  
    14    6   44 1   
    15    7    8 1   
    16    8    9 2   
    17    8   10 1   
    18   10   11 1   
    19   10   15 1   
    20   10   71 1   
    21   11   12 1   
    22   11   45 1   
    23   11   46 1   
    24   12   13 1   
    25   12   48 1   
    26   12   49 1   
    27   13   14 1   
    28   13   50 1   
    29   13   51 1   
    30   14   52 1   
    31   14   53 1   
    32   14   72 1   
    33   15   16 1   
    34   15   19 1   
    35   15   47 1   
    36   16   17 1   
    37   16   18 1   
    38   16   54 1   
    39   17   55 1   
    40   17   56 1   
    41   17   57 1   
    42   18   58 1   
    43   18   59 1   
    44   18   60 1   
    45   19   20 1   
    46   19   30 2   
    47   20   21 1   
    48   21   22 ar  
    49   21   27 ar  
    50   22   23 ar  
    51   22   61 1   
    52   23   24 1   
    53   23   25 ar  
    54   25   26 ar  
    55   25   62 1   
    56   26   27 ar  
    57   26   63 1   
    58   27   28 1   
    59   28   29 2   
    60   28   30 1   
    61   30   31 1   
    62   31   32 1   
    63   31   64 1   
    64   31   65 1   
    65   32   33 ar  
    66   32   37 ar  
    67   33   34 ar  
    68   33   66 1   
    69   34   35 ar  
    70   34   68 1   
    71   35   36 ar  
    72   35   69 1   
    73   36   37 ar  
    74   36   70 1   
    75   37   67 1   
@<TRIPOS>SUBSTRUCTURE
     1 MJQ         1 TEMP              0 ****  ****    0 ROOT
