@<TRIPOS>MOLECULE
MJQ
   70    73     1     0     0
SMALL
bcc


@<TRIPOS>ATOM
      1 CAW        -3.3080    0.1630   -1.3690 ca        1 MJQ     -0.093500
      2 CAX        -4.2780    0.6780   -2.2260 ca        1 MJQ     -0.136500
      3 CAY        -5.3660    1.3980   -1.7180 ca        1 MJQ     -0.059300
      4 CAZ        -6.4030    1.9290   -2.6320 c3        1 MJQ     -0.058800
      5 CAO        -5.4730    1.5920   -0.3360 ca        1 MJQ     -0.136500
      6 CAN        -4.5100    1.0750    0.5270 ca        1 MJQ     -0.093500
      7 CAM        -3.4230    0.3640    0.0100 ca        1 MJQ     -0.135600
      8 CAL        -2.4350   -0.2450    0.9480 c         1 MJQ      0.679700
      9 OAV        -2.7640   -1.1970    1.6850 o         1 MJQ     -0.600100
     10 NAK        -1.1270    0.2480    0.9560 n         1 MJQ     -0.457800
     11 CAU        -0.8320    1.5210    0.3410 c3        1 MJQ      0.085000
     12 CBC        -1.3750    2.7540    1.0690 c3        1 MJQ     -0.112400
     13 CBD        -1.0800    3.9950    0.2290 c3        1 MJQ      0.161800
     14 NBE        -1.4800    5.2230    0.8730 n3        1 MJQ     -0.915800
     15 CAJ        -0.1580   -0.3790    1.8400 c3        1 MJQ      0.146900
     16 CAB         0.1520    0.4140    3.1360 c3        1 MJQ     -0.078700
     17 CAA        -1.1170    0.6450    3.9300 c3        1 MJQ     -0.095600
     18 CAC         1.1510   -0.3510    3.9810 c3        1 MJQ     -0.095600
     19 CAI         1.1490   -0.7140    1.1250 cc        1 MJQ      0.125900
     20 OAH         1.9030    0.4410    0.9820 os        1 MJQ     -0.226200
     21 CAG         3.1350    0.3430    0.3660 ca        1 MJQ      0.150100
     22 CAF         3.8290    1.5560    0.2030 ca        1 MJQ     -0.161000
     23 CAE         5.0800    1.5170   -0.4070 ca        1 MJQ      0.067400
     24 CLA         5.9460    2.9610   -0.6220 cl        1 MJQ     -0.075400
     25 CAP         5.6380    0.3050   -0.8480 ca        1 MJQ     -0.163000
     26 CAQ         4.9360   -0.8790   -0.6750 ca        1 MJQ     -0.036000
     27 CAR         3.6710   -0.8770   -0.0650 ca        1 MJQ     -0.219600
     28 CAS         2.9090   -2.1170    0.1320 c         1 MJQ      0.590900
     29 OBA         3.3740   -3.2260   -0.1720 o         1 MJQ     -0.547100
     30 CAT         1.5700   -1.9410    0.7280 cd        1 MJQ     -0.236400
     31 CBB         0.7740   -3.1920    0.8970 c3        1 MJQ      0.017100
     32 CBG        -0.0490   -3.5450   -0.2970 ca        1 MJQ     -0.084300
     33 CBF         0.5680   -4.0100   -1.4650 ca        1 MJQ     -0.125500
     34 CBI        -0.2010   -4.3850   -2.5650 ca        1 MJQ     -0.135000
     35 CBJ        -1.5930   -4.3060   -2.5060 ca        1 MJQ     -0.134000
     36 CBK        -2.2120   -3.8500   -1.3430 ca        1 MJQ     -0.135000
     37 CBH        -1.4450   -3.4700   -0.2420 ca        1 MJQ     -0.125500
     38 HAW        -2.4600   -0.4100   -1.7750 ha        1 MJQ      0.146000
     39 HAX        -4.1890    0.5150   -3.3110 ha        1 MJQ      0.137500
     40 HAZ1       -6.8810    2.8460   -2.2070 hc        1 MJQ      0.048367
     41 HAZ2       -5.9660    2.1860   -3.6280 hc        1 MJQ      0.048367
     42 HAZ3       -7.2010    1.1600   -2.7890 hc        1 MJQ      0.048367
     43 HAO        -6.3290    2.1510    0.0730 ha        1 MJQ      0.137500
     44 HAN        -4.6070    1.2140    1.6150 ha        1 MJQ      0.146000
     45 HAU1        0.2850    1.6310    0.2490 h1        1 MJQ      0.064200
     46 HAU2       -1.2590    1.5060   -0.7050 h1        1 MJQ      0.064200
     47 HAJ        -0.6070   -1.3720    2.1680 h1        1 MJQ      0.111700
     48 HBC1       -2.4810    2.6480    1.2280 hc        1 MJQ      0.055700
     49 HBC2       -0.8940    2.8510    2.0770 hc        1 MJQ      0.055700
     50 HBD1        0.0320    4.0590    0.0510 h1        1 MJQ      0.025700
     51 HBD2       -1.5680    3.8580   -0.7830 h1        1 MJQ      0.025700
     52 HBE1       -1.3680    5.9960    0.2470 hn        1 MJQ      0.350300
     53 HBE2       -2.4320    5.1790    1.1760 hn        1 MJQ      0.350300
     54 HAB         0.6020    1.4050    2.8520 hc        1 MJQ      0.063700
     55 HAA1       -1.6720   -0.3150    4.0710 hc        1 MJQ      0.041700
     56 HAA2       -0.8690    1.0670    4.9340 hc        1 MJQ      0.041700
     57 HAA3       -1.7920    1.3640    3.4050 hc        1 MJQ      0.041700
     58 HAC1        2.1150   -0.4800    3.4330 hc        1 MJQ      0.041700
     59 HAC2        1.3560    0.2090    4.9250 hc        1 MJQ      0.041700
     60 HAC3        0.7520   -1.3590    4.2490 hc        1 MJQ      0.041700
     61 HAF         3.3820    2.4960    0.5560 ha        1 MJQ      0.168000
     62 HAP         6.6290    0.2960   -1.3270 ha        1 MJQ      0.157000
     63 HAQ         5.3570   -1.8420   -1.0110 ha        1 MJQ      0.167000
     64 HBB1        1.4980   -4.0380    1.0860 hc        1 MJQ      0.068200
     65 HBB2        0.1160   -3.1220    1.8050 hc        1 MJQ      0.068200
     66 HBF         1.6670   -4.0840   -1.5040 ha        1 MJQ      0.151500
     67 HBH        -1.9440   -3.1060    0.6720 ha        1 MJQ      0.151500
     68 HBI         0.2910   -4.7480   -3.4780 ha        1 MJQ      0.130500
     69 HBJ        -2.1990   -4.6070   -3.3720 ha        1 MJQ      0.127000
     70 HBK        -3.3090   -3.7920   -1.2880 ha        1 MJQ      0.130500
@<TRIPOS>BOND
     1    1    2 ar  
     2    1    7 ar  
     3    1   38 1   
     4    2    3 ar  
     5    2   39 1   
     6    3    4 1   
     7    3    5 ar  
     8    4   40 1   
     9    4   41 1   
    10    4   42 1   
    11    5    6 ar  
    12    5   43 1   
    13    6    7 ar  
    14    6   44 1   
    15    7    8 1   
    16    8    9 2   
    17    8   10 1   
    18   10   11 1   
    19   10   15 1   
    20   11   12 1   
    21   11   45 1   
    22   11   46 1   
    23   12   13 1   
    24   12   48 1   
    25   12   49 1   
    26   13   14 1   
    27   13   50 1   
    28   13   51 1   
    29   14   52 1   
    30   14   53 1   
    31   15   16 1   
    32   15   19 1   
    33   15   47 1   
    34   16   17 1   
    35   16   18 1   
    36   16   54 1   
    37   17   55 1   
    38   17   56 1   
    39   17   57 1   
    40   18   58 1   
    41   18   59 1   
    42   18   60 1   
    43   19   20 1   
    44   19   30 2   
    45   20   21 1   
    46   21   22 ar  
    47   21   27 ar  
    48   22   23 ar  
    49   22   61 1   
    50   23   24 1   
    51   23   25 ar  
    52   25   26 ar  
    53   25   62 1   
    54   26   27 ar  
    55   26   63 1   
    56   27   28 1   
    57   28   29 2   
    58   28   30 1   
    59   30   31 1   
    60   31   32 1   
    61   31   64 1   
    62   31   65 1   
    63   32   33 ar  
    64   32   37 ar  
    65   33   34 ar  
    66   33   66 1   
    67   34   35 ar  
    68   34   68 1   
    69   35   36 ar  
    70   35   69 1   
    71   36   37 ar  
    72   36   70 1   
    73   37   67 1   
@<TRIPOS>SUBSTRUCTURE
     1 MJQ         1 TEMP              0 ****  ****    0 ROOT
