@<TRIPOS>MOLECULE
MJU
   49    54     1     0     0
SMALL
bcc


@<TRIPOS>ATOM
      1 N19        -0.1330   -1.6260    0.3540 nz        1 MJU     -0.868600
      2 C17         0.9210   -0.5670    0.3390 c3        1 MJU      0.085500
      3 C16         1.6710   -0.4690    1.6830 c3        1 MJU     -0.124400
      4 C15         3.0440   -1.1320    1.4420 c3        1 MJU      0.141800
      5 C18         2.0570   -0.9260   -0.6750 c3        1 MJU      0.138800
      6 N14         3.1030   -1.6390    0.0590 nh        1 MJU     -0.673300
      7 C10         2.9880   -3.0800   -0.0080 ca        1 MJU      0.639200
      8 C7          4.1390   -3.8480   -0.2170 cp        1 MJU     -0.253600
      9 C3          5.5500   -3.6060   -0.4040 cp        1 MJU     -0.067000
     10 C4          6.3350   -2.4600   -0.4530 ca        1 MJU     -0.066000
     11 C5          7.7070   -2.5950   -0.6570 ca        1 MJU     -0.143000
     12 C6          8.2990   -3.8540   -0.8140 ca        1 MJU     -0.083000
     13 C1          7.5450   -5.0250   -0.7730 ca        1 MJU     -0.139000
     14 N11         1.7640   -3.6890    0.1310 nb        1 MJU     -0.874000
     15 C12         1.7000   -5.0520    0.0470 ca        1 MJU      0.769300
     16 N13         2.7390   -5.9120   -0.1540 nb        1 MJU     -0.718000
     17 C8          3.9530   -5.3120   -0.2810 ca        1 MJU      0.536800
     18 N9          5.1890   -5.9150   -0.4910 na        1 MJU     -0.273000
     19 C2          6.1680   -4.9030   -0.5690 ca        1 MJU     -0.009200
     20 S20         0.0980   -5.6930    0.2110 ss        1 MJU     -0.167200
     21 C21         0.2380   -7.3780    0.2790 ca        1 MJU     -0.194400
     22 C26        -0.1750   -8.0230    1.4920 ca        1 MJU      0.460200
     23 N25        -0.2310   -9.3260    1.6750 nb        1 MJU     -0.612000
     24 C24         0.1530  -10.1440    0.6200 ca        1 MJU      0.555000
     25 N27         0.1050  -11.5330    0.7940 nb        1 MJU     -0.592000
     26 C28         0.4800  -12.2670   -0.2330 ca        1 MJU      0.328900
     27 C29         0.9270  -11.7010   -1.4930 ca        1 MJU      0.298900
     28 N30         0.9880  -10.4000   -1.6950 nb        1 MJU     -0.605000
     29 C23         0.6000   -9.5880   -0.6410 ca        1 MJU      0.214300
     30 C22         0.6310   -8.1660   -0.7810 ca        1 MJU     -0.020300
     31 H1         -0.6970   -1.5690   -0.4940 hn        1 MJU      0.467467
     32 H2         -0.7340   -1.5180    1.1710 hn        1 MJU      0.467467
     33 H4          0.4280    0.4060    0.0660 hx        1 MJU      0.111700
     34 H5          1.8030    0.6100    1.9490 hc        1 MJU      0.086200
     35 H6          1.1330   -0.9640    2.5290 hc        1 MJU      0.086200
     36 H7          3.2380   -1.9420    2.1940 h1        1 MJU      0.089700
     37 H8          3.8620   -0.3650    1.5340 h1        1 MJU      0.089700
     38 H9          1.6930   -1.4940   -1.5690 h1        1 MJU      0.099200
     39 H10         2.5090    0.0430   -1.0300 h1        1 MJU      0.099200
     40 H11         5.8790   -1.4660   -0.3350 ha        1 MJU      0.149000
     41 H12         8.3390   -1.6940   -0.6990 ha        1 MJU      0.148000
     42 H13         9.3870   -3.9230   -0.9730 ha        1 MJU      0.152000
     43 H14         8.0220   -6.0080   -0.8980 ha        1 MJU      0.154000
     44 H15         5.3530   -6.8870   -0.5730 hn        1 MJU      0.330700
     45 H16        -0.4810   -7.4030    2.3590 h4        1 MJU      0.040100
     46 H17         0.4430  -13.3650   -0.1040 h4        1 MJU      0.053100
     47 H18         1.2310  -12.3640   -2.3230 h4        1 MJU      0.050100
     48 H19         0.9730   -7.7240   -1.7330 ha        1 MJU      0.170000
     49 H193        0.3430   -2.5740    0.3860 hn        1 MJU      0.467467
@<TRIPOS>BOND
     1    1    2 1   
     2    1   31 1   
     3    1   32 1   
     4    1   49 1   
     5    2    3 1   
     6    2    5 1   
     7    2   33 1   
     8    3    4 1   
     9    3   34 1   
    10    3   35 1   
    11    4    6 1   
    12    4   36 1   
    13    4   37 1   
    14    5    6 1   
    15    5   38 1   
    16    5   39 1   
    17    6    7 1   
    18    7    8 ar  
    19    7   14 ar  
    20    8    9 1   
    21    8   17 ar  
    22    9   10 ar  
    23    9   19 ar  
    24   10   11 ar  
    25   10   40 1   
    26   11   12 ar  
    27   11   41 1   
    28   12   13 ar  
    29   12   42 1   
    30   13   19 ar  
    31   13   43 1   
    32   14   15 ar  
    33   15   16 ar  
    34   15   20 1   
    35   16   17 ar  
    36   17   18 1   
    37   18   19 1   
    38   18   44 1   
    39   20   21 1   
    40   21   22 ar  
    41   21   30 ar  
    42   22   23 ar  
    43   22   45 1   
    44   23   24 ar  
    45   24   25 ar  
    46   24   29 ar  
    47   25   26 ar  
    48   26   27 ar  
    49   26   46 1   
    50   27   28 ar  
    51   27   47 1   
    52   28   29 ar  
    53   29   30 ar  
    54   30   48 1   
@<TRIPOS>SUBSTRUCTURE
     1 MJU         1 TEMP              0 ****  ****    0 ROOT
