@<TRIPOS>MOLECULE
MJU
   48    53     1     0     0
SMALL
bcc


@<TRIPOS>ATOM
      1 N19         4.1520   -2.7210    1.9650 n3        1 MJU     -0.914800
      2 C17         4.8230   -2.2640    0.7670 c3        1 MJU      0.153500
      3 C16         4.4400   -3.0600   -0.5010 c3        1 MJU     -0.106400
      4 C15         3.9590   -2.0140   -1.5180 c3        1 MJU      0.165800
      5 C18         4.4610   -0.7810    0.4210 c3        1 MJU      0.165800
      6 N14         3.6720   -0.7580   -0.8160 nh        1 MJU     -0.701300
      7 C10         2.3050   -0.3910   -0.6280 ca        1 MJU      0.706200
      8 C7          1.9970    0.9340   -0.2190 cp        1 MJU     -0.318600
      9 C3          2.7310    2.1400    0.0870 cp        1 MJU     -0.043000
     10 C4          4.0760    2.4910    0.0700 ca        1 MJU     -0.082000
     11 C5          4.4440    3.7890    0.4210 ca        1 MJU     -0.155000
     12 C6          3.4870    4.7430    0.7840 ca        1 MJU     -0.105000
     13 C1          2.1290    4.4390    0.8000 ca        1 MJU     -0.151000
     14 N11         1.2880   -1.2700   -0.8890 nb        1 MJU     -0.753000
     15 C12         0.0000   -0.8410   -0.7350 ca        1 MJU      0.755300
     16 N13        -0.4280    0.3840   -0.3150 nb        1 MJU     -0.754000
     17 C8          0.5810    1.2610   -0.0620 ca        1 MJU      0.522800
     18 N9          0.4580    2.5850    0.3780 na        1 MJU     -0.290000
     19 C2          1.7470    3.1410    0.4470 ca        1 MJU     -0.015200
     20 S20        -1.1720   -2.0530   -1.1450 ss        1 MJU     -0.106200
     21 C21        -2.7060   -1.4020   -0.8560 ca        1 MJU     -0.175400
     22 C26        -3.6580   -1.5920   -1.9170 ca        1 MJU      0.453200
     23 N25        -4.9310   -1.2580   -1.8690 nb        1 MJU     -0.624000
     24 C24        -5.3950   -0.6540   -0.7060 ca        1 MJU      0.534000
     25 N27        -6.7400   -0.2770   -0.6350 nb        1 MJU     -0.596000
     26 C28        -7.1330    0.2910    0.4870 ca        1 MJU      0.307900
     27 C29        -6.2460    0.5290    1.6060 ca        1 MJU      0.286900
     28 N30        -4.9710    0.1900    1.5780 nb        1 MJU     -0.606000
     29 C23        -4.5130   -0.4100    0.4180 ca        1 MJU      0.229300
     30 C22        -3.1440   -0.8140    0.3070 ca        1 MJU     -0.053300
     31 H1          4.1900   -3.7170    2.0370 hn        1 MJU      0.355800
     32 H2          4.5610   -2.3060    2.7760 hn        1 MJU      0.355800
     33 H4          5.9480   -2.3100    0.8860 h1        1 MJU      0.017700
     34 H5          5.3260   -3.6110   -0.8960 hc        1 MJU      0.058700
     35 H6          3.6280   -3.8030   -0.3020 hc        1 MJU      0.058700
     36 H7          4.7910   -1.7710   -2.2380 h1        1 MJU      0.068200
     37 H8          3.0930   -2.4000   -2.1150 h1        1 MJU      0.068200
     38 H9          3.9330   -0.2570    1.2610 h1        1 MJU      0.065200
     39 H10         5.4180   -0.2330    0.2000 h1        1 MJU      0.065200
     40 H11         4.8390    1.7570   -0.2280 ha        1 MJU      0.146000
     41 H12         5.5070    4.0710    0.4090 ha        1 MJU      0.133000
     42 H13         3.8130    5.7580    1.0580 ha        1 MJU      0.134000
     43 H14         1.3840    5.1960    1.0790 ha        1 MJU      0.138000
     44 H15        -0.3890    3.0790    0.4770 hn        1 MJU      0.314700
     45 H16        -3.3200   -2.0600   -2.8640 h4        1 MJU      0.042100
     46 H17        -8.1940    0.5910    0.5510 h4        1 MJU      0.039100
     47 H18        -6.6270    1.0090    2.5250 h4        1 MJU      0.038100
     48 H19        -2.4650   -0.6400    1.1600 ha        1 MJU      0.173000
@<TRIPOS>BOND
     1    1    2 1   
     2    1   31 1   
     3    1   32 1   
     4    2    3 1   
     5    2    5 1   
     6    2   33 1   
     7    3    4 1   
     8    3   34 1   
     9    3   35 1   
    10    4    6 1   
    11    4   36 1   
    12    4   37 1   
    13    5    6 1   
    14    5   38 1   
    15    5   39 1   
    16    6    7 1   
    17    7    8 ar  
    18    7   14 ar  
    19    8    9 1   
    20    8   17 ar  
    21    9   10 ar  
    22    9   19 ar  
    23   10   11 ar  
    24   10   40 1   
    25   11   12 ar  
    26   11   41 1   
    27   12   13 ar  
    28   12   42 1   
    29   13   19 ar  
    30   13   43 1   
    31   14   15 ar  
    32   15   16 ar  
    33   15   20 1   
    34   16   17 ar  
    35   17   18 1   
    36   18   19 1   
    37   18   44 1   
    38   20   21 1   
    39   21   22 ar  
    40   21   30 ar  
    41   22   23 ar  
    42   22   45 1   
    43   23   24 ar  
    44   24   25 ar  
    45   24   29 ar  
    46   25   26 ar  
    47   26   27 ar  
    48   26   46 1   
    49   27   28 ar  
    50   27   47 1   
    51   28   29 ar  
    52   29   30 ar  
    53   30   48 1   
@<TRIPOS>SUBSTRUCTURE
     1 MJU         1 TEMP              0 ****  ****    0 ROOT
