@<TRIPOS>MOLECULE
MJU
   49    54     1     0     0
SMALL
bcc


@<TRIPOS>ATOM
      1 N19        -0.1560   -1.6480    0.3650 n4        1 MJU     -0.868600
      2 C17         0.8900   -0.5810    0.3460 c3        1 MJU      0.085500
      3 C16         1.6440   -0.4770    1.6870 c3        1 MJU     -0.124400
      4 C15         3.0210   -1.1290    1.4410 c3        1 MJU      0.141800
      5 C18         2.0250   -0.9310   -0.6720 c3        1 MJU      0.138800
      6 N14         3.0790   -1.6360    0.0580 nh        1 MJU     -0.673300
      7 C10         2.9750   -3.0780   -0.0090 ca        1 MJU      0.639200
      8 C7          4.1300   -3.8370   -0.2230 cp        1 MJU     -0.253600
      9 C3          5.5390   -3.5840   -0.4160 cp        1 MJU     -0.067000
     10 C4          6.3150   -2.4320   -0.4670 ca        1 MJU     -0.066000
     11 C5          7.6870   -2.5560   -0.6780 ca        1 MJU     -0.143000
     12 C6          8.2880   -3.8100   -0.8360 ca        1 MJU     -0.083000
     13 C1          7.5440   -4.9880   -0.7930 ca        1 MJU     -0.139000
     14 N11         1.7560   -3.6960    0.1350 nb        1 MJU     -0.874000
     15 C12         1.7020   -5.0590    0.0520 ca        1 MJU      0.769300
     16 N13         2.7470   -5.9110   -0.1540 nb        1 MJU     -0.718000
     17 C8          3.9560   -5.3020   -0.2860 ca        1 MJU      0.536800
     18 N9          5.1950   -5.8960   -0.5010 na        1 MJU     -0.273000
     19 C2          6.1670   -4.8760   -0.5830 ca        1 MJU     -0.009200
     20 S20         0.1060   -5.7130    0.2220 ss        1 MJU     -0.167200
     21 C21         0.2590   -7.3970    0.2880 ca        1 MJU     -0.194400
     22 C26        -0.1440   -8.0450    1.5030 ca        1 MJU      0.460200
     23 N25        -0.1910   -9.3490    1.6860 nb        1 MJU     -0.612000
     24 C24         0.1960  -10.1640    0.6300 ca        1 MJU      0.555000
     25 N27         0.1590  -11.5530    0.8030 nb        1 MJU     -0.592000
     26 C28         0.5360  -12.2830   -0.2260 ca        1 MJU      0.328900
     27 C29         0.9740  -11.7140   -1.4870 ca        1 MJU      0.298900
     28 N30         1.0240  -10.4130   -1.6890 nb        1 MJU     -0.605000
     29 C23         0.6340   -9.6030   -0.6340 ca        1 MJU      0.214300
     30 C22         0.6530   -8.1810   -0.7730 ca        1 MJU     -0.020300
     31 H1          0.3270   -2.5910    0.3950 hn        1 MJU      0.467467
     32 H2         -0.7230   -1.5960   -0.4810 hn        1 MJU      0.467467
     33 H4          0.3880    0.3890    0.0750 hx        1 MJU      0.111700
     34 H5          1.1130   -0.9750    2.5350 hc        1 MJU      0.086200
     35 H6          1.7690    0.6030    1.9530 hc        1 MJU      0.086200
     36 H7          3.2240   -1.9380    2.1920 h1        1 MJU      0.089700
     37 H8          3.8340   -0.3560    1.5300 h1        1 MJU      0.089700
     38 H9          1.6620   -1.5020   -1.5650 h1        1 MJU      0.099200
     39 H10         2.4690    0.0420   -1.0290 h1        1 MJU      0.099200
     40 H11         5.8520   -1.4410   -0.3470 ha        1 MJU      0.149000
     41 H12         8.3120   -1.6510   -0.7210 ha        1 MJU      0.148000
     42 H13         9.3760   -3.8710   -1.0010 ha        1 MJU      0.152000
     43 H14         8.0270   -5.9670   -0.9200 ha        1 MJU      0.154000
     44 H15         5.3670   -6.8660   -0.5830 hn        1 MJU      0.330700
     45 H16        -0.4520   -7.4280    2.3710 h4        1 MJU      0.040100
     46 H17         0.5070  -13.3820   -0.0970 h4        1 MJU      0.053100
     47 H18         1.2800  -12.3740   -2.3180 h4        1 MJU      0.050100
     48 H19         0.9890   -7.7370   -1.7260 ha        1 MJU      0.170000
     49 H193       -0.7550   -1.5440    1.1840 hn        1 MJU      0.467467
@<TRIPOS>BOND
     1    1    2 1   
     2    1   31 1   
     3    1   32 1   
     4    1   49 1   
     5    2    3 1   
     6    2    5 1   
     7    2   33 1   
     8    3    4 1   
     9    3   34 1   
    10    3   35 1   
    11    4    6 1   
    12    4   36 1   
    13    4   37 1   
    14    5    6 1   
    15    5   38 1   
    16    5   39 1   
    17    6    7 1   
    18    7    8 ar  
    19    7   14 ar  
    20    8    9 1   
    21    8   17 ar  
    22    9   10 ar  
    23    9   19 ar  
    24   10   11 ar  
    25   10   40 1   
    26   11   12 ar  
    27   11   41 1   
    28   12   13 ar  
    29   12   42 1   
    30   13   19 ar  
    31   13   43 1   
    32   14   15 ar  
    33   15   16 ar  
    34   15   20 1   
    35   16   17 ar  
    36   17   18 1   
    37   18   19 1   
    38   18   44 1   
    39   20   21 1   
    40   21   22 ar  
    41   21   30 ar  
    42   22   23 ar  
    43   22   45 1   
    44   23   24 ar  
    45   24   25 ar  
    46   24   29 ar  
    47   25   26 ar  
    48   26   27 ar  
    49   26   46 1   
    50   27   28 ar  
    51   27   47 1   
    52   28   29 ar  
    53   29   30 ar  
    54   30   48 1   
@<TRIPOS>SUBSTRUCTURE
     1 MJU         1 TEMP              0 ****  ****    0 ROOT
