@<TRIPOS>MOLECULE
MJU
   49    54     1     0     0
SMALL
bcc


@<TRIPOS>ATOM
      1 N19        -0.1030   -1.5950    0.3120 n4        1 MJU     -0.868600
      2 C17         0.9630   -0.5470    0.3000 c3        1 MJU      0.085500
      3 C16         1.7010   -0.4500    1.6510 c3        1 MJU     -0.124400
      4 C15         3.0690   -1.1290    1.4260 c3        1 MJU      0.141800
      5 C18         2.1040   -0.9230   -0.7000 c3        1 MJU      0.138800
      6 N14         3.1350   -1.6430    0.0460 nh        1 MJU     -0.673300
      7 C10         3.0060   -3.0840   -0.0140 ca        1 MJU      0.639200
      8 C7          4.1510   -3.8650   -0.2090 cp        1 MJU     -0.253600
      9 C3          5.5660   -3.6380   -0.3850 cp        1 MJU     -0.067000
     10 C4          6.3630   -2.5010   -0.4320 ca        1 MJU     -0.066000
     11 C5          7.7350   -2.6510   -0.6230 ca        1 MJU     -0.143000
     12 C6          8.3160   -3.9170   -0.7670 ca        1 MJU     -0.083000
     13 C1          7.5500   -5.0800   -0.7280 ca        1 MJU     -0.139000
     14 N11         1.7750   -3.6790    0.1160 nb        1 MJU     -0.874000
     15 C12         1.6970   -5.0410    0.0390 ca        1 MJU      0.769300
     16 N13         2.7290   -5.9130   -0.1480 nb        1 MJU     -0.718000
     17 C8          3.9500   -5.3270   -0.2680 ca        1 MJU      0.536800
     18 N9          5.1810   -5.9440   -0.4630 na        1 MJU     -0.273000
     19 C2          6.1720   -4.9430   -0.5370 ca        1 MJU     -0.009200
     20 S20         0.0870   -5.6650    0.1910 ss        1 MJU     -0.167200
     21 C21         0.2080   -7.3510    0.2690 ca        1 MJU     -0.194400
     22 C26        -0.2230   -7.9840    1.4820 ca        1 MJU      0.460200
     23 N25        -0.2950   -9.2860    1.6720 nb        1 MJU     -0.612000
     24 C24         0.0910  -10.1140    0.6250 ca        1 MJU      0.555000
     25 N27         0.0270  -11.5010    0.8060 nb        1 MJU     -0.592000
     26 C28         0.4050  -12.2450   -0.2140 ca        1 MJU      0.328900
     27 C29         0.8700  -11.6900   -1.4720 ca        1 MJU      0.298900
     28 N30         0.9470  -10.3910   -1.6810 nb        1 MJU     -0.605000
     29 C23         0.5570   -9.5690   -0.6350 ca        1 MJU      0.214300
     30 C22         0.6030   -8.1480   -0.7820 ca        1 MJU     -0.020300
     31 H1          0.3630   -2.5470    0.3530 hn        1 MJU      0.467467
     32 H2         -0.6580   -1.5370   -0.5420 hn        1 MJU      0.467467
     33 H4          0.4820    0.4300    0.0190 hx        1 MJU      0.111700
     34 H5          1.8420    0.6290    1.9130 hc        1 MJU      0.086200
     35 H6          1.1510   -0.9340    2.4940 hc        1 MJU      0.086200
     36 H7          3.8950   -0.3700    1.5210 h1        1 MJU      0.089700
     37 H8          3.2480   -1.9370    2.1840 h1        1 MJU      0.089700
     38 H9          2.5700    0.0390   -1.0570 h1        1 MJU      0.099200
     39 H10         1.7420   -1.4920   -1.5950 h1        1 MJU      0.099200
     40 H11         5.9170   -1.5010   -0.3230 ha        1 MJU      0.149000
     41 H12         8.3780   -1.7570   -0.6630 ha        1 MJU      0.148000
     42 H13         9.4040   -3.9980   -0.9170 ha        1 MJU      0.152000
     43 H14         8.0170   -6.0680   -0.8440 ha        1 MJU      0.154000
     44 H15         5.3360   -6.9180   -0.5380 hn        1 MJU      0.330700
     45 H16        -0.5320   -7.3570    2.3420 h4        1 MJU      0.040100
     46 H17         0.3540  -13.3420   -0.0790 h4        1 MJU      0.053100
     47 H18         1.1750  -12.3610   -2.2950 h4        1 MJU      0.050100
     48 H19         0.9600   -7.7150   -1.7330 ha        1 MJU      0.170000
     49 H193       -0.7100   -1.4760    1.1230 hn        1 MJU      0.467467
@<TRIPOS>BOND
     1    1    2 1   
     2    1   31 1   
     3    1   32 1   
     4    1   49 1   
     5    2    3 1   
     6    2    5 1   
     7    2   33 1   
     8    3    4 1   
     9    3   34 1   
    10    3   35 1   
    11    4    6 1   
    12    4   36 1   
    13    4   37 1   
    14    5    6 1   
    15    5   38 1   
    16    5   39 1   
    17    6    7 1   
    18    7    8 ar  
    19    7   14 ar  
    20    8    9 1   
    21    8   17 ar  
    22    9   10 ar  
    23    9   19 ar  
    24   10   11 ar  
    25   10   40 1   
    26   11   12 ar  
    27   11   41 1   
    28   12   13 ar  
    29   12   42 1   
    30   13   19 ar  
    31   13   43 1   
    32   14   15 ar  
    33   15   16 ar  
    34   15   20 1   
    35   16   17 ar  
    36   17   18 1   
    37   18   19 1   
    38   18   44 1   
    39   20   21 1   
    40   21   22 ar  
    41   21   30 ar  
    42   22   23 ar  
    43   22   45 1   
    44   23   24 ar  
    45   24   25 ar  
    46   24   29 ar  
    47   25   26 ar  
    48   26   27 ar  
    49   26   46 1   
    50   27   28 ar  
    51   27   47 1   
    52   28   29 ar  
    53   29   30 ar  
    54   30   48 1   
@<TRIPOS>SUBSTRUCTURE
     1 MJU         1 TEMP              0 ****  ****    0 ROOT
