@<TRIPOS>MOLECULE
MK1
   92    96     1     0     0
SMALL
bcc


@<TRIPOS>ATOM
      1 N1         -0.1870   -0.5800    5.4200 n3        1 MK1     -0.731600
      2 C1          0.9620   -0.9540    4.6070 c3        1 MK1      0.168800
      3 C2          1.1350   -0.0250    3.3750 c3        1 MK1      0.118500
      4 C3          2.3120   -0.6280    2.5670 c         1 MK1      0.659100
      5 O1          2.3130   -1.8280    2.2340 o         1 MK1     -0.592100
      6 N2          3.3470    0.2280    2.2610 n         1 MK1     -0.576900
      7 C4          4.5710   -0.1780    1.5730 c3        1 MK1      0.125400
      8 C5          5.5080    1.0340    1.4130 c3        1 MK1     -0.108767
      9 C6          4.2740   -0.7310    0.1690 c3        1 MK1     -0.108767
     10 C7          5.3350   -1.2610    2.3540 c3        1 MK1     -0.108767
     11 N3         -0.0840    0.0520    2.5670 n3        1 MK1     -0.712600
     12 C8         -1.2420    0.3960    3.3830 c3        1 MK1      0.162800
     13 C9         -1.4030   -0.5000    4.6230 c3        1 MK1      0.160800
     14 C10         0.0760    0.9180    1.4090 c3        1 MK1      0.137800
     15 C11        -1.1080    0.8630    0.4180 c3        1 MK1      0.136100
     16 O2         -2.2210    1.5810    0.9230 oh        1 MK1     -0.599800
     17 C12        -0.6590    1.4080   -0.9380 c3        1 MK1     -0.109400
     18 C13        -1.4920    0.8670   -2.0940 c3        1 MK1     -0.116700
     19 C14        -2.8890    1.4790   -2.1130 c3        1 MK1     -0.044100
     20 C15        -3.8300    0.7200   -2.9820 ca        1 MK1     -0.086300
     21 C16        -4.5720   -0.3460   -2.4600 ca        1 MK1     -0.123500
     22 C17        -5.4700   -1.0400   -3.2700 ca        1 MK1     -0.132500
     23 C18        -5.6350   -0.6740   -4.6050 ca        1 MK1     -0.132000
     24 C19        -4.8980    0.3870   -5.1310 ca        1 MK1     -0.132500
     25 C20        -3.9980    1.0810   -4.3240 ca        1 MK1     -0.123500
     26 C21        -0.7580    1.2020   -3.3960 c         1 MK1      0.655100
     27 O3         -0.9240    2.2920   -3.9800 o         1 MK1     -0.616100
     28 N4          0.1670    0.2750   -3.8520 n         1 MK1     -0.533900
     29 C22         0.7620    0.3860   -5.1560 c3        1 MK1      0.146000
     30 C23         0.3360   -0.7100   -6.2070 c3        1 MK1      0.119100
     31 O4         -0.3450   -1.7670   -5.5530 oh        1 MK1     -0.599800
     32 C24         1.6290   -1.2200   -6.8800 c3        1 MK1     -0.071100
     33 C25         2.7480   -0.5760   -6.1390 ca        1 MK1     -0.079300
     34 C26         4.1100   -0.7570   -6.3260 ca        1 MK1     -0.119000
     35 C27         5.0020   -0.0510   -5.5100 ca        1 MK1     -0.125000
     36 C28         4.5320    0.8170   -4.5280 ca        1 MK1     -0.135000
     37 C29         3.1560    1.0030   -4.3380 ca        1 MK1     -0.097000
     38 C30         2.2730    0.3060   -5.1460 ca        1 MK1     -0.098300
     39 C31        -0.3280   -1.4550    6.5790 c3        1 MK1      0.219100
     40 C32        -1.3190   -0.9670    7.5880 ca        1 MK1     -0.202600
     41 C33        -1.2890    0.3660    8.0560 ca        1 MK1      0.413200
     42 N5         -2.1250    0.8420    8.9970 nb        1 MK1     -0.668000
     43 C34        -3.0320   -0.0120    9.5120 ca        1 MK1      0.392200
     44 C35        -3.1420   -1.3560    9.1140 ca        1 MK1     -0.248300
     45 C36        -2.2710   -1.8350    8.1350 ca        1 MK1     -0.092000
     46 H11A        0.9000   -2.0210    4.2420 h1        1 MK1      0.055700
     47 H12         1.8880   -0.8500    5.2390 h1        1 MK1      0.055700
     48 H2          1.4170    1.0040    3.7570 h1        1 MK1      0.034700
     49 HN2         3.3210    1.1580    2.6010 hn        1 MK1      0.308500
     50 H51         6.4330    0.7040    0.8830 hc        1 MK1      0.045811
     51 H52         5.0220    1.8380    0.8110 hc        1 MK1      0.045811
     52 H53         5.7990    1.4490    2.4070 hc        1 MK1      0.045811
     53 H61         3.7640    0.0380   -0.4590 hc        1 MK1      0.045811
     54 H62         5.2340   -1.0150   -0.3220 hc        1 MK1      0.045811
     55 H63         3.6210   -1.6350    0.2380 hc        1 MK1      0.045811
     56 H71         5.6310   -0.8870    3.3630 hc        1 MK1      0.045811
     57 H72         4.6990   -2.1720    2.4740 hc        1 MK1      0.045811
     58 H73         6.2570   -1.5360    1.7900 hc        1 MK1      0.045811
     59 H81        -2.1590    0.2600    2.7410 h1        1 MK1      0.052700
     60 H82        -1.2070    1.4750    3.7120 h1        1 MK1      0.052700
     61 H91        -1.7500   -1.5210    4.2890 h1        1 MK1      0.045700
     62 H92        -2.2080   -0.0530    5.2710 h1        1 MK1      0.045700
     63 H101        0.2300    1.9980    1.7060 h1        1 MK1      0.039200
     64 H102        0.9980    0.5720    0.8600 h1        1 MK1      0.039200
     65 H11        -1.4910   -0.1930    0.3160 h1        1 MK1      0.098700
     66 HO2        -1.9580    2.5050    1.0160 ho        1 MK1      0.399000
     67 H121       -0.7210    2.5280   -0.9320 hc        1 MK1      0.059700
     68 H122        0.4140    1.1270   -1.1100 hc        1 MK1      0.059700
     69 H13        -1.5950   -0.2490   -1.9830 hc        1 MK1      0.071700
     70 H141       -3.2820    1.4950   -1.0590 hc        1 MK1      0.075200
     71 H142       -2.8160    2.5430   -2.4690 hc        1 MK1      0.075200
     72 H16        -4.4480   -0.6330   -1.4050 ha        1 MK1      0.140500
     73 H17        -6.0510   -1.8750   -2.8520 ha        1 MK1      0.129000
     74 H18        -6.3470   -1.2190   -5.2420 ha        1 MK1      0.128000
     75 H19        -5.0270    0.6790   -6.1830 ha        1 MK1      0.129000
     76 H20        -3.4060    1.9150   -4.7370 ha        1 MK1      0.140500
     77 HN4         0.1310   -0.6470   -3.4770 hn        1 MK1      0.321500
     78 H22         0.4690    1.3910   -5.5930 h1        1 MK1      0.100700
     79 H23        -0.3470   -0.2390   -6.9640 h1        1 MK1      0.045700
     80 HO4        -0.6290   -2.3790   -6.2430 ho        1 MK1      0.409000
     81 H241        1.6940   -2.3360   -6.8130 hc        1 MK1      0.062200
     82 H242        1.6480   -0.9320   -7.9610 hc        1 MK1      0.062200
     83 H26         4.4860   -1.4430   -7.0980 ha        1 MK1      0.134000
     84 H27         6.0850   -0.1870   -5.6480 ha        1 MK1      0.131000
     85 H28         5.2440    1.3650   -3.8940 ha        1 MK1      0.130000
     86 H29         2.7870    1.6910   -3.5640 ha        1 MK1      0.140000
     87 H311       -0.6070   -2.5070    6.2690 h1        1 MK1      0.043700
     88 H312        0.6800   -1.5100    7.0860 h1        1 MK1      0.043700
     89 H33        -0.5570    1.0860    7.6480 h4        1 MK1      0.035100
     90 H34        -3.7020    0.4080   10.2830 h4        1 MK1      0.021100
     91 H35        -3.9000   -2.0100    9.5650 ha        1 MK1      0.143000
     92 H36        -2.3310   -2.8810    7.7980 ha        1 MK1      0.138000
@<TRIPOS>BOND
     1    1    2 1   
     2    1   13 1   
     3    1   39 1   
     4    2    3 1   
     5    2   46 1   
     6    2   47 1   
     7    3    4 1   
     8    3   11 1   
     9    3   48 1   
    10    4    5 2   
    11    4    6 1   
    12    6    7 1   
    13    6   49 1   
    14    7    8 1   
    15    7    9 1   
    16    7   10 1   
    17    8   50 1   
    18    8   51 1   
    19    8   52 1   
    20    9   53 1   
    21    9   54 1   
    22    9   55 1   
    23   10   56 1   
    24   10   57 1   
    25   10   58 1   
    26   11   12 1   
    27   11   14 1   
    28   12   13 1   
    29   12   59 1   
    30   12   60 1   
    31   13   61 1   
    32   13   62 1   
    33   14   15 1   
    34   14   63 1   
    35   14   64 1   
    36   15   16 1   
    37   15   17 1   
    38   15   65 1   
    39   16   66 1   
    40   17   18 1   
    41   17   67 1   
    42   17   68 1   
    43   18   19 1   
    44   18   26 1   
    45   18   69 1   
    46   19   20 1   
    47   19   70 1   
    48   19   71 1   
    49   20   21 ar  
    50   20   25 ar  
    51   21   22 ar  
    52   21   72 1   
    53   22   23 ar  
    54   22   73 1   
    55   23   24 ar  
    56   23   74 1   
    57   24   25 ar  
    58   24   75 1   
    59   25   76 1   
    60   26   27 2   
    61   26   28 1   
    62   28   29 1   
    63   28   77 1   
    64   29   30 1   
    65   29   38 1   
    66   29   78 1   
    67   30   31 1   
    68   30   32 1   
    69   30   79 1   
    70   31   80 1   
    71   32   33 1   
    72   32   81 1   
    73   32   82 1   
    74   33   34 ar  
    75   33   38 ar  
    76   34   35 ar  
    77   34   83 1   
    78   35   36 ar  
    79   35   84 1   
    80   36   37 ar  
    81   36   85 1   
    82   37   38 ar  
    83   37   86 1   
    84   39   40 1   
    85   39   87 1   
    86   39   88 1   
    87   40   41 ar  
    88   40   45 ar  
    89   41   42 ar  
    90   41   89 1   
    91   42   43 ar  
    92   43   44 ar  
    93   43   90 1   
    94   44   45 ar  
    95   44   91 1   
    96   45   92 1   
@<TRIPOS>SUBSTRUCTURE
     1 MK1         1 TEMP              0 ****  ****    0 ROOT
