@<TRIPOS>MOLECULE
MK1
   94    98     1     0     0
SMALL
bcc


@<TRIPOS>ATOM
      1 N1         -0.1450    0.2680   -0.3300 n3        1 MK1     -0.732600
      2 C1          1.2920    0.0870   -0.3530 c3        1 MK1      0.175800
      3 C2          1.8720   -0.0390    1.0950 c3        1 MK1      0.143500
      4 C3          3.4020   -0.1020    0.9470 c         1 MK1      0.538100
      5 O1          4.2400    0.7070    1.3120 o         1 MK1     -0.415100
      6 N2          3.9400   -1.3160    0.2250 n4        1 MK1     -0.691800
      7 C4          4.5210   -2.3990    1.1450 c3        1 MK1      0.159200
      8 C5          4.8270   -3.6350    0.2930 c3        1 MK1     -0.131100
      9 C6          3.5100   -2.7720    2.2280 c3        1 MK1     -0.131100
     10 C7          5.8140   -1.8970    1.7870 c3        1 MK1     -0.131100
     11 N3          1.4780    1.0800    1.9420 n3        1 MK1     -0.744600
     12 C8          0.0390    1.3410    1.8890 c3        1 MK1      0.164800
     13 C9         -0.5220    1.4280    0.4620 c3        1 MK1      0.154800
     14 C10         1.9670    1.0140    3.3150 c3        1 MK1      0.134800
     15 C11         2.5930    2.3530    3.7800 c3        1 MK1      0.148100
     16 O2          1.6820    3.4300    3.6550 oh        1 MK1     -0.605800
     17 C12         2.9580    2.2320    5.2620 c3        1 MK1     -0.086400
     18 C13         3.3010    3.5880    5.8800 c3        1 MK1     -0.113700
     19 C14         2.0630    4.2020    6.5260 c3        1 MK1     -0.057100
     20 C15         2.2010    5.6430    6.8690 ca        1 MK1     -0.159300
     21 C16         2.5110    6.5870    5.8820 ca        1 MK1     -0.147500
     22 C17         2.5630    7.9440    6.1970 ca        1 MK1     -0.113500
     23 C18         2.2980    8.3710    7.4990 ca        1 MK1     -0.104000
     24 C19         1.9780    7.4380    8.4850 ca        1 MK1     -0.113500
     25 C20         1.9310    6.0790    8.1740 ca        1 MK1     -0.147500
     26 C21         4.4660    3.4300    6.8400 c         1 MK1      0.545100
     27 O3          5.2890    2.5240    6.8380 o         1 MK1     -0.436100
     28 N4          4.6370    4.5270    7.8540 n4        1 MK1     -0.661800
     29 C22         5.8850    4.4460    8.6910 c3        1 MK1      0.182800
     30 C23         5.6750    3.8050   10.1140 c3        1 MK1      0.140100
     31 O4          4.3500    3.3180   10.2210 oh        1 MK1     -0.639800
     32 C24         5.9780    4.9080   11.1490 c3        1 MK1     -0.081100
     33 C25         6.4830    6.0660   10.3630 ca        1 MK1     -0.051300
     34 C26         6.9900    7.2670   10.8380 ca        1 MK1     -0.102000
     35 C27         7.4400    8.2200    9.9140 ca        1 MK1     -0.078000
     36 C28         7.3890    7.9680    8.5430 ca        1 MK1     -0.119000
     37 C29         6.8820    6.7560    8.0590 ca        1 MK1     -0.100000
     38 C30         6.4280    5.8170    8.9750 ca        1 MK1     -0.186300
     39 C31        -0.7330    0.2540   -1.6690 c3        1 MK1      0.229100
     40 C32        -2.2270    0.2160   -1.6630 ca        1 MK1     -0.238600
     41 C33        -2.9280   -0.7410   -0.9000 ca        1 MK1      0.413200
     42 N5         -4.2690   -0.8500   -0.8960 nb        1 MK1     -0.656000
     43 C34        -4.9650    0.0020   -1.6740 ca        1 MK1      0.415200
     44 C35        -4.3580    0.9880   -2.4750 ca        1 MK1     -0.236300
     45 C36        -2.9670    1.0950   -2.4630 ca        1 MK1     -0.081000
     46 H11A        1.4940   -0.8730   -0.9070 h1        1 MK1      0.041700
     47 H12         1.8310    0.9270   -0.8800 h1        1 MK1      0.041700
     48 H2          1.5460   -1.0340    1.5350 h1        1 MK1      0.077700
     49 HN2         4.6970   -1.0200   -0.4040 hn        1 MK1      0.458800
     50 H51         5.2780   -4.4160    0.9570 hc        1 MK1      0.079033
     51 H52         3.8990   -4.0620   -0.1600 hc        1 MK1      0.079033
     52 H53         5.5640   -3.4050   -0.5150 hc        1 MK1      0.079033
     53 H61         3.9470   -3.5950    2.8480 hc        1 MK1      0.079033
     54 H62         3.2980   -1.9050    2.9000 hc        1 MK1      0.079033
     55 H63         2.5530   -3.1460    1.7870 hc        1 MK1      0.079033
     56 H71         5.6410   -0.9700    2.3860 hc        1 MK1      0.079033
     57 H72         6.2010   -2.6930    2.4710 hc        1 MK1      0.079033
     58 H73         6.5970   -1.6920    1.0150 hc        1 MK1      0.079033
     59 H81        -0.1300    2.3320    2.4000 h1        1 MK1      0.068200
     60 H82        -0.5360    0.5520    2.4580 h1        1 MK1      0.068200
     61 H91        -1.6470    1.4470    0.5300 h1        1 MK1      0.070700
     62 H92        -0.1820    2.3930   -0.0150 h1        1 MK1      0.070700
     63 H101        1.1340    0.7470    4.0280 h1        1 MK1      0.050700
     64 H102        2.7660    0.2260    3.4150 h1        1 MK1      0.050700
     65 H11         3.5180    2.5620    3.1700 h1        1 MK1      0.055700
     66 HO2         1.5980    3.6320    2.7140 ho        1 MK1      0.429000
     67 H121        2.0980    1.7810    5.8250 hc        1 MK1      0.076700
     68 H122        3.8270    1.5260    5.3400 hc        1 MK1      0.076700
     69 H13         3.6660    4.2810    5.0630 hc        1 MK1      0.111700
     70 H141        1.2190    4.1020    5.7810 hc        1 MK1      0.093200
     71 H142        1.7740    3.6040    7.4310 hc        1 MK1      0.093200
     72 H16         2.6750    6.2600    4.8430 ha        1 MK1      0.140500
     73 H17         2.7950    8.6810    5.4120 ha        1 MK1      0.156500
     74 H18         2.3240    9.4460    7.7430 ha        1 MK1      0.161000
     75 H19         1.7450    7.7750    9.5080 ha        1 MK1      0.156500
     76 H20         1.6340    5.3540    8.9490 ha        1 MK1      0.140500
     77 HN4         4.6110    5.4340    7.3630 hn        1 MK1      0.479800
     78 H22         6.6370    3.8240    8.1210 hx        1 MK1      0.126700
     79 H23         6.3970    2.9490   10.2160 h1        1 MK1      0.084700
     80 HO4         4.2260    3.0170   11.1320 ho        1 MK1      0.454000
     81 H241        6.7460    4.5530   11.8830 hc        1 MK1      0.090700
     82 H242        5.0540    5.1830   11.7220 hc        1 MK1      0.090700
     83 H26         7.0440    7.4690   11.9190 ha        1 MK1      0.164000
     84 H27         7.8480    9.1770   10.2790 ha        1 MK1      0.164000
     85 H28         7.7590    8.7240    7.8320 ha        1 MK1      0.159000
     86 H29         6.8660    6.5580    6.9780 ha        1 MK1      0.132000
     87 H311       -0.3830    1.1430   -2.2740 h1        1 MK1      0.048700
     88 H312       -0.3630   -0.6800   -2.1870 h1        1 MK1      0.048700
     89 H33        -2.3870   -1.4610   -0.2600 h4        1 MK1      0.023100
     90 H34        -6.0650   -0.1170   -1.6540 h4        1 MK1      0.041100
     91 H35        -4.9720    1.6550   -3.0960 ha        1 MK1      0.160000
     92 H36        -2.4630    1.8550   -3.0800 ha        1 MK1      0.142000
     93 H221        3.1940   -1.7470   -0.3300 hn        1 MK1      0.458800
     94 H42         3.8130    4.4980    8.4830 hn        1 MK1      0.479800
@<TRIPOS>BOND
     1    1    2 1   
     2    1   13 1   
     3    1   39 1   
     4    2    3 1   
     5    2   46 1   
     6    2   47 1   
     7    3    4 1   
     8    3   11 1   
     9    3   48 1   
    10    4    5 2   
    11    4    6 1   
    12    6    7 1   
    13    6   49 1   
    14    6   93 1   
    15    7    8 1   
    16    7    9 1   
    17    7   10 1   
    18    8   50 1   
    19    8   51 1   
    20    8   52 1   
    21    9   53 1   
    22    9   54 1   
    23    9   55 1   
    24   10   56 1   
    25   10   57 1   
    26   10   58 1   
    27   11   12 1   
    28   11   14 1   
    29   12   13 1   
    30   12   59 1   
    31   12   60 1   
    32   13   61 1   
    33   13   62 1   
    34   14   15 1   
    35   14   63 1   
    36   14   64 1   
    37   15   16 1   
    38   15   17 1   
    39   15   65 1   
    40   16   66 1   
    41   17   18 1   
    42   17   67 1   
    43   17   68 1   
    44   18   19 1   
    45   18   26 1   
    46   18   69 1   
    47   19   20 1   
    48   19   70 1   
    49   19   71 1   
    50   20   21 ar  
    51   20   25 ar  
    52   21   22 ar  
    53   21   72 1   
    54   22   23 ar  
    55   22   73 1   
    56   23   24 ar  
    57   23   74 1   
    58   24   25 ar  
    59   24   75 1   
    60   25   76 1   
    61   26   27 2   
    62   26   28 1   
    63   28   29 1   
    64   28   77 1   
    65   28   94 1   
    66   29   30 1   
    67   29   38 1   
    68   29   78 1   
    69   30   31 1   
    70   30   32 1   
    71   30   79 1   
    72   31   80 1   
    73   32   33 1   
    74   32   81 1   
    75   32   82 1   
    76   33   34 ar  
    77   33   38 ar  
    78   34   35 ar  
    79   34   83 1   
    80   35   36 ar  
    81   35   84 1   
    82   36   37 ar  
    83   36   85 1   
    84   37   38 ar  
    85   37   86 1   
    86   39   40 1   
    87   39   87 1   
    88   39   88 1   
    89   40   41 ar  
    90   40   45 ar  
    91   41   42 ar  
    92   41   89 1   
    93   42   43 ar  
    94   43   44 ar  
    95   43   90 1   
    96   44   45 ar  
    97   44   91 1   
    98   45   92 1   
@<TRIPOS>SUBSTRUCTURE
     1 MK1         1 TEMP              0 ****  ****    0 ROOT
