@<TRIPOS>MOLECULE
MK1
   94    98     1     0     0
SMALL
bcc


@<TRIPOS>ATOM
      1 N1         -0.1310    0.2700   -0.3380 n3        1 MK1     -0.732600
      2 C1          1.3080    0.0930   -0.3610 c3        1 MK1      0.175800
      3 C2          1.8860   -0.0370    1.0870 c3        1 MK1      0.143500
      4 C3          3.4160   -0.0950    0.9400 c         1 MK1      0.538100
      5 O1          4.2520    0.7150    1.3090 o         1 MK1     -0.415100
      6 N2          3.9580   -1.3050    0.2140 n4        1 MK1     -0.691800
      7 C4          4.5410   -2.3900    1.1310 c3        1 MK1      0.159200
      8 C5          4.8530   -3.6220    0.2740 c3        1 MK1     -0.131100
      9 C6          3.5300   -2.7700    2.2100 c3        1 MK1     -0.131100
     10 C7          5.8330   -1.8860    1.7760 c3        1 MK1     -0.131100
     11 N3          1.4880    1.0770    1.9390 n3        1 MK1     -0.744600
     12 C8          0.0490    1.3330    1.8870 c3        1 MK1      0.164800
     13 C9         -0.5120    1.4250    0.4590 c3        1 MK1      0.154800
     14 C10         1.9770    1.0070    3.3120 c3        1 MK1      0.134800
     15 C11         2.5990    2.3460    3.7820 c3        1 MK1      0.148100
     16 O2          1.6830    3.4200    3.6630 oh        1 MK1     -0.605800
     17 C12         2.9660    2.2190    5.2630 c3        1 MK1     -0.086400
     18 C13         3.3010    3.5740    5.8890 c3        1 MK1     -0.113700
     19 C14         2.0590    4.1760    6.5390 c3        1 MK1     -0.057100
     20 C15         2.1870    5.6170    6.8900 ca        1 MK1     -0.159300
     21 C16         2.4890    6.5670    5.9060 ca        1 MK1     -0.147500
     22 C17         2.5310    7.9230    6.2280 ca        1 MK1     -0.113500
     23 C18         2.2650    8.3420    7.5320 ca        1 MK1     -0.104000
     24 C19         1.9540    7.4010    8.5150 ca        1 MK1     -0.113500
     25 C20         1.9160    6.0440    8.1970 ca        1 MK1     -0.147500
     26 C21         4.4680    3.4190    6.8460 c         1 MK1      0.544100
     27 O3          5.2950    2.5170    6.8410 o         1 MK1     -0.436100
     28 N4          4.6350    4.5150    7.8620 n4        1 MK1     -0.661800
     29 C22         5.8860    4.4410    8.6940 c3        1 MK1      0.182800
     30 C23         5.6850    3.7970   10.1180 c3        1 MK1      0.140100
     31 O4          4.3630    3.3010   10.2280 oh        1 MK1     -0.639800
     32 C24         5.9850    4.9000   11.1530 c3        1 MK1     -0.081100
     33 C25         6.4810    6.0610   10.3660 ca        1 MK1     -0.050300
     34 C26         6.9820    7.2650   10.8410 ca        1 MK1     -0.102000
     35 C27         7.4230    8.2210    9.9180 ca        1 MK1     -0.078000
     36 C28         7.3690    7.9710    8.5460 ca        1 MK1     -0.119000
     37 C29         6.8670    6.7580    8.0630 ca        1 MK1     -0.100000
     38 C30         6.4220    5.8140    8.9780 ca        1 MK1     -0.186300
     39 C31        -0.7170    0.2610   -1.6780 c3        1 MK1      0.229100
     40 C32        -2.2110    0.2190   -1.6740 ca        1 MK1     -0.238600
     41 C33        -2.9100   -0.7440   -0.9170 ca        1 MK1      0.413200
     42 N5         -4.2500   -0.8570   -0.9140 nb        1 MK1     -0.656000
     43 C34        -4.9480   -0.0040   -1.6890 ca        1 MK1      0.415200
     44 C35        -4.3430    0.9890   -2.4850 ca        1 MK1     -0.236300
     45 C36        -2.9530    1.1000   -2.4710 ca        1 MK1     -0.081000
     46 H11A        1.5130   -0.8620   -0.9190 h1        1 MK1      0.041700
     47 H12         1.8450    0.9390   -0.8830 h1        1 MK1      0.041700
     48 H2          1.5620   -1.0350    1.5220 h1        1 MK1      0.077700
     49 HN2         4.7150   -1.0050   -0.4130 hn        1 MK1      0.458800
     50 H51         5.3050   -4.4040    0.9350 hc        1 MK1      0.079033
     51 H52         5.5900   -3.3860   -0.5320 hc        1 MK1      0.079033
     52 H53         3.9260   -4.0490   -0.1820 hc        1 MK1      0.079033
     53 H61         3.3150   -1.9070    2.8850 hc        1 MK1      0.079033
     54 H62         3.9680   -3.5950    2.8280 hc        1 MK1      0.079033
     55 H63         2.5750   -3.1450    1.7660 hc        1 MK1      0.079033
     56 H71         5.6560   -0.9630    2.3790 hc        1 MK1      0.079033
     57 H72         6.6150   -1.6760    1.0060 hc        1 MK1      0.079033
     58 H73         6.2200   -2.6850    2.4570 hc        1 MK1      0.079033
     59 H81        -0.5240    0.5400    2.4510 h1        1 MK1      0.068200
     60 H82        -0.1240    2.3210    2.4010 h1        1 MK1      0.068200
     61 H91        -1.6370    1.4400    0.5260 h1        1 MK1      0.070700
     62 H92        -0.1750    2.3940   -0.0130 h1        1 MK1      0.070700
     63 H101        1.1440    0.7350    4.0240 h1        1 MK1      0.050700
     64 H102        2.7780    0.2210    3.4090 h1        1 MK1      0.050700
     65 H11         3.5220    2.5610    3.1720 h1        1 MK1      0.055700
     66 HO2         1.5970    3.6260    2.7230 ho        1 MK1      0.429000
     67 H121        2.1100    1.7590    5.8250 hc        1 MK1      0.076700
     68 H122        3.8400    1.5190    5.3360 hc        1 MK1      0.076700
     69 H13         3.6600    4.2740    5.0750 hc        1 MK1      0.111700
     70 H141        1.2140    4.0740    5.7950 hc        1 MK1      0.093200
     71 H142        1.7760    3.5710    7.4420 hc        1 MK1      0.093200
     72 H16         2.6530    6.2470    4.8650 ha        1 MK1      0.141000
     73 H17         2.7560    8.6660    5.4460 ha        1 MK1      0.156500
     74 H18         2.2830    9.4150    7.7820 ha        1 MK1      0.161000
     75 H19         1.7200    7.7310    9.5400 ha        1 MK1      0.156500
     76 H20         1.6260    5.3130    8.9690 ha        1 MK1      0.141000
     77 HN4         3.8130    4.4790    8.4930 hn        1 MK1      0.479800
     78 H22         6.6400    3.8240    8.1210 hx        1 MK1      0.126700
     79 H23         6.4120    2.9450   10.2150 h1        1 MK1      0.084700
     80 HO4         4.2450    2.9990   11.1390 ho        1 MK1      0.454000
     81 H241        6.7580    4.5480   11.8840 hc        1 MK1      0.090700
     82 H242        5.0610    5.1690   11.7290 hc        1 MK1      0.090700
     83 H26         7.0390    7.4660   11.9220 ha        1 MK1      0.164000
     84 H27         7.8260    9.1810   10.2820 ha        1 MK1      0.164000
     85 H28         7.7310    8.7310    7.8350 ha        1 MK1      0.159000
     86 H29         6.8480    6.5600    6.9810 ha        1 MK1      0.132000
     87 H311       -0.3680    1.1540   -2.2780 h1        1 MK1      0.048700
     88 H312       -0.3440   -0.6690   -2.2010 h1        1 MK1      0.048700
     89 H33        -2.3670   -1.4650   -0.2800 h4        1 MK1      0.023100
     90 H34        -6.0470   -0.1260   -1.6720 h4        1 MK1      0.041100
     91 H35        -4.9590    1.6560   -3.1040 ha        1 MK1      0.160000
     92 H36        -2.4500    1.8630   -3.0840 ha        1 MK1      0.142000
     93 H221        3.2150   -1.7360   -0.3440 hn        1 MK1      0.458800
     94 H42         4.6010    5.4230    7.3730 hn        1 MK1      0.479800
@<TRIPOS>BOND
     1    1    2 1   
     2    1   13 1   
     3    1   39 1   
     4    2    3 1   
     5    2   46 1   
     6    2   47 1   
     7    3    4 1   
     8    3   11 1   
     9    3   48 1   
    10    4    5 2   
    11    4    6 1   
    12    6    7 1   
    13    6   49 1   
    14    6   93 1   
    15    7    8 1   
    16    7    9 1   
    17    7   10 1   
    18    8   50 1   
    19    8   51 1   
    20    8   52 1   
    21    9   53 1   
    22    9   54 1   
    23    9   55 1   
    24   10   56 1   
    25   10   57 1   
    26   10   58 1   
    27   11   12 1   
    28   11   14 1   
    29   12   13 1   
    30   12   59 1   
    31   12   60 1   
    32   13   61 1   
    33   13   62 1   
    34   14   15 1   
    35   14   63 1   
    36   14   64 1   
    37   15   16 1   
    38   15   17 1   
    39   15   65 1   
    40   16   66 1   
    41   17   18 1   
    42   17   67 1   
    43   17   68 1   
    44   18   19 1   
    45   18   26 1   
    46   18   69 1   
    47   19   20 1   
    48   19   70 1   
    49   19   71 1   
    50   20   21 ar  
    51   20   25 ar  
    52   21   22 ar  
    53   21   72 1   
    54   22   23 ar  
    55   22   73 1   
    56   23   24 ar  
    57   23   74 1   
    58   24   25 ar  
    59   24   75 1   
    60   25   76 1   
    61   26   27 2   
    62   26   28 1   
    63   28   29 1   
    64   28   77 1   
    65   28   94 1   
    66   29   30 1   
    67   29   38 1   
    68   29   78 1   
    69   30   31 1   
    70   30   32 1   
    71   30   79 1   
    72   31   80 1   
    73   32   33 1   
    74   32   81 1   
    75   32   82 1   
    76   33   34 ar  
    77   33   38 ar  
    78   34   35 ar  
    79   34   83 1   
    80   35   36 ar  
    81   35   84 1   
    82   36   37 ar  
    83   36   85 1   
    84   37   38 ar  
    85   37   86 1   
    86   39   40 1   
    87   39   87 1   
    88   39   88 1   
    89   40   41 ar  
    90   40   45 ar  
    91   41   42 ar  
    92   41   89 1   
    93   42   43 ar  
    94   43   44 ar  
    95   43   90 1   
    96   44   45 ar  
    97   44   91 1   
    98   45   92 1   
@<TRIPOS>SUBSTRUCTURE
     1 MK1         1 TEMP              0 ****  ****    0 ROOT
