@<TRIPOS>MOLECULE
MK1
   94    98     1     0     0
SMALL
bcc


@<TRIPOS>ATOM
      1 N1          0.3430    0.4840   -0.5130 n3        1 MK1     -0.731600
      2 C1          1.6430   -0.1440   -0.4060 c3        1 MK1      0.173800
      3 C2          2.1110   -0.2290    1.0820 c3        1 MK1      0.145500
      4 C3          3.5690   -0.7280    1.0320 c         1 MK1      0.532100
      5 O1          4.5960   -0.1330    1.3100 o         1 MK1     -0.403100
      6 N2          3.7530   -2.1440    0.5290 ny        1 MK1     -0.692800
      7 C4          4.0080   -3.1740    1.6370 c3        1 MK1      0.158200
      8 C5          3.9330   -4.5740    1.0180 c3        1 MK1     -0.130767
      9 C6          2.9480   -3.0480    2.7290 c3        1 MK1     -0.130767
     10 C7          5.4010   -2.9620    2.2320 c3        1 MK1     -0.130767
     11 N3          2.0380    1.0440    1.7890 n3        1 MK1     -0.725600
     12 C8          0.8160    1.8020    1.5250 c3        1 MK1      0.165800
     13 C9          0.3670    1.8210    0.0580 c3        1 MK1      0.152800
     14 C10         2.3080    0.9090    3.2160 c3        1 MK1      0.134800
     15 C11         2.4430    2.2650    3.9420 c3        1 MK1      0.139100
     16 O2          1.1910    2.8950    4.1240 oh        1 MK1     -0.592800
     17 C12         3.1540    2.0510    5.2810 c3        1 MK1     -0.121400
     18 C13         3.1900    3.3420    6.0980 c3        1 MK1     -0.122700
     19 C14         2.0720    3.3540    7.1380 c3        1 MK1     -0.045100
     20 C15         1.8020    4.6960    7.7210 ca        1 MK1     -0.166300
     21 C16         1.4120    5.7610    6.8990 ca        1 MK1     -0.146000
     22 C17         1.0840    6.9960    7.4570 ca        1 MK1     -0.113500
     23 C18         1.1350    7.1750    8.8410 ca        1 MK1     -0.101000
     24 C19         1.5140    6.1140    9.6650 ca        1 MK1     -0.113500
     25 C20         1.8470    4.8790    9.1100 ca        1 MK1     -0.146000
     26 C21         4.5550    3.5240    6.7320 c         1 MK1      0.545100
     27 O3          5.5560    2.8510    6.5290 o         1 MK1     -0.426100
     28 N4          4.6690    4.6780    7.6900 ny        1 MK1     -0.662800
     29 C22         6.0750    5.0820    8.0440 c3        1 MK1      0.185800
     30 C23         6.5750    4.5530    9.4410 c3        1 MK1      0.141100
     31 O4          5.6060    3.6780    9.9890 oh        1 MK1     -0.638800
     32 C24         6.8120    5.7920   10.3290 c3        1 MK1     -0.081100
     33 C25         6.6140    6.9660    9.4360 ca        1 MK1     -0.049300
     34 C26         6.8160    8.3080    9.7290 ca        1 MK1     -0.102000
     35 C27         6.5930    9.2570    8.7230 ca        1 MK1     -0.077000
     36 C28         6.1800    8.8660    7.4490 ca        1 MK1     -0.119000
     37 C29         5.9780    7.5150    7.1480 ca        1 MK1     -0.101000
     38 C30         6.1910    6.5750    8.1480 ca        1 MK1     -0.188300
     39 C31        -0.1970    0.4310   -1.8710 c3        1 MK1      0.228100
     40 C32        -1.6210    0.8780   -1.9630 ca        1 MK1     -0.236600
     41 C33        -2.6070    0.3470   -1.1060 ca        1 MK1      0.412200
     42 N5         -3.9090    0.6790   -1.1760 nb        1 MK1     -0.657000
     43 C34        -4.2760    1.5580   -2.1280 ca        1 MK1      0.413200
     44 C35        -3.3690    2.1390   -3.0350 ca        1 MK1     -0.236300
     45 C36        -2.0200    1.7930   -2.9450 ca        1 MK1     -0.081000
     46 H11A        2.4380    0.3960   -1.0000 h1        1 MK1      0.043200
     47 H12         1.5440   -1.1920   -0.8090 h1        1 MK1      0.043200
     48 H2          1.5070   -1.0340    1.6080 h1        1 MK1      0.072700
     49 HN2         4.5650   -2.1710   -0.1000 hn        1 MK1      0.457800
     50 H51         4.6970   -4.7080    0.2140 hc        1 MK1      0.078478
     51 H52         2.9170   -4.7860    0.6050 hc        1 MK1      0.078478
     52 H53         4.1440   -5.3250    1.8220 hc        1 MK1      0.078478
     53 H61         1.9210   -3.2320    2.3260 hc        1 MK1      0.078478
     54 H62         3.1550   -3.8220    3.5110 hc        1 MK1      0.078478
     55 H63         2.9830   -2.0420    3.2150 hc        1 MK1      0.078478
     56 H71         5.5100   -1.9360    2.6610 hc        1 MK1      0.078478
     57 H72         6.1980   -3.1230    1.4660 hc        1 MK1      0.078478
     58 H73         5.5510   -3.7080    3.0520 hc        1 MK1      0.078478
     59 H81         1.0300    2.8660    1.8340 h1        1 MK1      0.068700
     60 H82        -0.0340    1.4180    2.1630 h1        1 MK1      0.068700
     61 H91        -0.6820    2.2320    0.0210 h1        1 MK1      0.071200
     62 H92         1.0370    2.5170   -0.5270 h1        1 MK1      0.071200
     63 H101        1.5060    0.3060    3.7390 h1        1 MK1      0.042200
     64 H102        3.2860    0.3610    3.3300 h1        1 MK1      0.042200
     65 H11         3.0270    2.9970    3.3110 h1        1 MK1      0.104700
     66 HO2         0.5860    2.2610    4.5300 ho        1 MK1      0.412000
     67 H121        4.1950    1.6870    5.0690 hc        1 MK1      0.077200
     68 H122        2.6310    1.2500    5.8680 hc        1 MK1      0.077200
     69 H13         3.0370    4.2180    5.3950 hc        1 MK1      0.114700
     70 H141        2.3010    2.6090    7.9460 hc        1 MK1      0.081700
     71 H142        1.1330    3.0060    6.6200 hc        1 MK1      0.081700
     72 H16         1.3250    5.6130    5.8100 ha        1 MK1      0.144000
     73 H17         0.7650    7.8250    6.8060 ha        1 MK1      0.158000
     74 H18         0.8600    8.1460    9.2820 ha        1 MK1      0.162000
     75 H19         1.5320    6.2470   10.7590 ha        1 MK1      0.158000
     76 H20         2.1040    4.0370    9.7710 ha        1 MK1      0.144000
     77 HN4         4.1700    4.4080    8.5590 hn        1 MK1      0.479300
     78 H22         6.7570    4.6770    7.2400 hx        1 MK1      0.125700
     79 H23         7.5340    3.9910    9.2710 h1        1 MK1      0.085700
     80 HO4         5.9060    3.4360   10.8760 ho        1 MK1      0.455000
     81 H241        6.0910    5.8120   11.1870 hc        1 MK1      0.091200
     82 H242        7.8510    5.7770   10.7500 hc        1 MK1      0.091200
     83 H26         7.1530    8.6230   10.7290 ha        1 MK1      0.164000
     84 H27         6.7530   10.3260    8.9420 ha        1 MK1      0.164000
     85 H28         6.0210    9.6270    6.6670 ha        1 MK1      0.159000
     86 H29         5.6750    7.2150    6.1350 ha        1 MK1      0.132000
     87 H311        0.4340    1.0440   -2.5810 h1        1 MK1      0.049200
     88 H312       -0.1480   -0.6450   -2.2100 h1        1 MK1      0.049200
     89 H33        -2.3410   -0.3850   -0.3220 h4        1 MK1      0.023100
     90 H34        -5.3540    1.8050   -2.1660 h4        1 MK1      0.040100
     91 H35        -3.7220    2.8480   -3.7970 ha        1 MK1      0.160000
     92 H36        -1.2870    2.2290   -3.6390 ha        1 MK1      0.143000
     93 H221        2.9200   -2.4390    0.0110 hn        1 MK1      0.457800
     94 H42         4.1680    5.4880    7.2940 hn        1 MK1      0.479300
@<TRIPOS>BOND
     1    1    2 1   
     2    1   13 1   
     3    1   39 1   
     4    2    3 1   
     5    2   46 1   
     6    2   47 1   
     7    3    4 1   
     8    3   11 1   
     9    3   48 1   
    10    4    5 2   
    11    4    6 1   
    12    6    7 1   
    13    6   49 1   
    14    6   93 1   
    15    7    8 1   
    16    7    9 1   
    17    7   10 1   
    18    8   50 1   
    19    8   51 1   
    20    8   52 1   
    21    9   53 1   
    22    9   54 1   
    23    9   55 1   
    24   10   56 1   
    25   10   57 1   
    26   10   58 1   
    27   11   12 1   
    28   11   14 1   
    29   12   13 1   
    30   12   59 1   
    31   12   60 1   
    32   13   61 1   
    33   13   62 1   
    34   14   15 1   
    35   14   63 1   
    36   14   64 1   
    37   15   16 1   
    38   15   17 1   
    39   15   65 1   
    40   16   66 1   
    41   17   18 1   
    42   17   67 1   
    43   17   68 1   
    44   18   19 1   
    45   18   26 1   
    46   18   69 1   
    47   19   20 1   
    48   19   70 1   
    49   19   71 1   
    50   20   21 ar  
    51   20   25 ar  
    52   21   22 ar  
    53   21   72 1   
    54   22   23 ar  
    55   22   73 1   
    56   23   24 ar  
    57   23   74 1   
    58   24   25 ar  
    59   24   75 1   
    60   25   76 1   
    61   26   27 2   
    62   26   28 1   
    63   28   29 1   
    64   28   77 1   
    65   28   94 1   
    66   29   30 1   
    67   29   38 1   
    68   29   78 1   
    69   30   31 1   
    70   30   32 1   
    71   30   79 1   
    72   31   80 1   
    73   32   33 1   
    74   32   81 1   
    75   32   82 1   
    76   33   34 ar  
    77   33   38 ar  
    78   34   35 ar  
    79   34   83 1   
    80   35   36 ar  
    81   35   84 1   
    82   36   37 ar  
    83   36   85 1   
    84   37   38 ar  
    85   37   86 1   
    86   39   40 1   
    87   39   87 1   
    88   39   88 1   
    89   40   41 ar  
    90   40   45 ar  
    91   41   42 ar  
    92   41   89 1   
    93   42   43 ar  
    94   43   44 ar  
    95   43   90 1   
    96   44   45 ar  
    97   44   91 1   
    98   45   92 1   
@<TRIPOS>SUBSTRUCTURE
     1 MK1         1 TEMP              0 ****  ****    0 ROOT
