@<TRIPOS>MOLECULE
MK2
   40    44     1     0     0
SMALL
bcc


@<TRIPOS>ATOM
      1 C1          5.4000   -2.6180    0.5620 ca        1 MK2     -0.148000
      2 C2          6.0090   -1.4090    0.1940 ca        1 MK2     -0.110000
      3 C3          4.0210   -2.7200    0.7350 ca        1 MK2     -0.081000
      4 C4          5.2640   -0.2500   -0.0180 ca        1 MK2     -0.125000
      5 C5         -5.0460   -0.7600    0.9340 ca        1 MK2     -0.471600
      6 C6         -5.5890   -1.9620    0.4670 ca        1 MK2      0.486200
      7 C7          1.8310   -1.2720    0.6060 cc        1 MK2     -0.156200
      8 C8         -1.8410    2.5350    0.0320 ca        1 MK2     -0.091000
      9 C9         -0.7110    0.4380    0.6150 ca        1 MK2     -0.054000
     10 C10        -0.1460    4.3070   -0.9270 cc        1 MK2      0.337800
     11 C11         3.2450   -1.5810    0.5320 ca        1 MK2     -0.101800
     12 C12         3.8890   -0.3620    0.1570 ca        1 MK2      0.066100
     13 C13        -3.7060   -0.4580    0.5330 ca        1 MK2      0.704200
     14 C14        -1.8920    1.2250    0.5350 ca        1 MK2      0.097600
     15 C15        -0.6140    3.0430   -0.3730 ca        1 MK2     -0.205900
     16 C16         0.5310    0.9150    0.1980 ca        1 MK2     -0.040800
     17 C17         1.6900    0.0630    0.2860 cd        1 MK2      0.099900
     18 C18         0.5810    2.2340   -0.2980 ca        1 MK2     -0.032200
     19 C19        -3.6300   -2.4750   -0.6540 ca        1 MK2      0.893900
     20 N20        -2.8740   -3.3970   -1.3840 nh        1 MK2     -0.927500
     21 N21         1.6170    3.0330   -0.7950 na        1 MK2     -0.006100
     22 N22        -4.9350   -2.8300   -0.3190 nb        1 MK2     -0.773000
     23 N23         1.1830    4.2450   -1.1530 nd        1 MK2     -0.502100
     24 N24        -2.9980   -1.3000   -0.2780 nb        1 MK2     -0.803000
     25 O26         2.9470    0.6570    0.0020 os        1 MK2     -0.225200
     26 H1          6.0300   -3.5070    0.7180 ha        1 MK2      0.135000
     27 H2          7.1020   -1.3750    0.0690 ha        1 MK2      0.136000
     28 H3          3.5560   -3.6720    1.0240 ha        1 MK2      0.141000
     29 H4          5.7330    0.6990   -0.3050 ha        1 MK2      0.149000
     30 H6         -6.6220   -2.2540    0.7340 h4        1 MK2      0.025100
     31 H7          1.0430   -1.9770    0.8620 ha        1 MK2      0.171000
     32 H8         -2.7430    3.1620   -0.0390 ha        1 MK2      0.140000
     33 H9         -0.7720   -0.5870    1.0200 ha        1 MK2      0.160000
     34 H10        -0.7390    5.1950   -1.1450 h4        1 MK2      0.055800
     35 HN20       -3.3810   -4.1010   -1.8680 hn        1 MK2      0.428300
     36 HN2A       -2.0590   -3.0500   -1.8350 hn        1 MK2      0.428300
     37 HN21        2.5800    2.7880   -0.8460 hn        1 MK2      0.340700
     38 N25        -3.1120    0.7110    1.0390 nh        1 MK2     -0.719300
     39 H5         -5.6230   -0.0920    1.5810 ha        1 MK2      0.152000
     40 HN25       -3.7770    1.4130    1.2930 hn        1 MK2      0.425800
@<TRIPOS>BOND
     1    1    2 ar  
     2    1    3 ar  
     3    1   26 1   
     4    2    4 ar  
     5    2   27 1   
     6    3   11 ar  
     7    3   28 1   
     8    4   12 ar  
     9    4   29 1   
    10    5    6 ar  
    11    5   13 ar  
    12    5   39 1   
    13    6   22 ar  
    14    6   30 1   
    15    7   11 1   
    16    7   17 2   
    17    7   31 1   
    18    8   14 ar  
    19    8   15 ar  
    20    8   32 1   
    21    9   14 ar  
    22    9   16 ar  
    23    9   33 1   
    24   10   15 1   
    25   10   23 2   
    26   10   34 1   
    27   11   12 ar  
    28   12   25 1   
    29   13   24 ar  
    30   13   38 1   
    31   14   38 1   
    32   15   18 ar  
    33   16   17 1   
    34   16   18 ar  
    35   17   25 1   
    36   18   21 1   
    37   19   20 1   
    38   19   22 ar  
    39   19   24 ar  
    40   20   35 1   
    41   20   36 1   
    42   21   23 1   
    43   21   37 1   
    44   38   40 1   
@<TRIPOS>SUBSTRUCTURE
     1 MK2         1 TEMP              0 ****  ****    0 ROOT
