@<TRIPOS>MOLECULE
MK2
   40    29     1     0     0
SMALL
bcc


@<TRIPOS>ATOM
      1 C1         -0.2860   -2.2050   -5.9880 c1        1 MK2     -0.116000
      2 C2         -1.4130   -2.9050   -5.5750 c1        1 MK2     -0.116000
      3 C3          0.4750   -1.5070   -5.0610 c1        1 MK2     -0.116000
      4 C4         -1.7780   -2.9070   -4.2360 c1        1 MK2     -0.116000
      5 C5         -1.3280    3.7400    2.0760 c1        1 MK2     -0.344000
      6 C6         -0.9340    4.9960    2.4340 c1        1 MK2      0.023000
      7 C7          0.6730   -0.9140   -2.5890 c1        1 MK2     -0.173000
      8 C8          0.1980   -0.5950    2.6020 c1        1 MK2     -0.088000
      9 C9         -0.5850    0.0970    0.4440 c1        1 MK2     -0.052000
     10 C10         1.5360   -2.7680    2.5610 c1        1 MK2     -0.162000
     11 C11         0.1070   -1.5080   -3.7050 c1        1 MK2     -0.090000
     12 C12        -1.0070   -2.2000   -3.2980 c1        1 MK2      0.021000
     13 C13        -0.6410    2.6540    2.5340 c1        1 MK2      0.182000
     14 C14        -0.4840    0.3110    1.8080 c1        1 MK2      0.015000
     15 C15         0.7880   -1.7350    2.0230 c1        1 MK2     -0.122000
     16 C16        -0.0050   -1.0240   -0.1260 c1        1 MK2     -0.008000
     17 C17        -0.1010   -1.2440   -1.4910 c1        1 MK2      0.048000
     18 C18         0.6880   -1.9460    0.6810 c1        1 MK2     -0.008000
     19 C19         0.8130    4.0770    3.6950 c1        1 MK2      0.182000
     20 N20         1.9570    4.2560    4.5130 n2        1 MK2     -0.335000
     21 N21         1.3660   -3.0970    0.3830 n1        1 MK2     -0.181000
     22 N22         0.1270    5.1620    3.2370 n2        1 MK2     -0.250000
     23 N23         1.8880   -3.6000    1.5530 n2        1 MK2     -0.035000
     24 N24         0.4200    2.8220    3.3370 n2        1 MK2     -0.278000
     25 N25        -1.1570    1.3320    2.5270 n2        1 MK2     -0.239000
     26 O26        -1.1360   -2.0360   -1.9230 o         1 MK2     -0.135000
     27 H1         -0.0300   -2.2040   -6.9300 ha        1 MK2      0.140250
     28 H2         -1.9490   -3.3960   -6.2270 ha        1 MK2      0.140250
     29 H3          1.2670   -1.0160   -5.3510 ha        1 MK2      0.140250
     30 H4         -2.5690   -3.3980   -3.9470 ha        1 MK2      0.140250
     31 H5         -2.1000    3.6180    1.4910 ha        1 MK2      0.151000
     32 H6         -1.4250    5.7740    2.1070 ha        1 MK2      0.162000
     33 H7          1.4610   -0.3380   -2.5830 DU        1 MK2      0.214667
     34 H8          0.2700   -0.4440    3.5640 ha        1 MK2      0.140000
     35 H9         -1.0660    0.7360   -0.1160 ha        1 MK2      0.157000
     36 H10         1.7690   -2.8770    3.5030 DU        1 MK2      0.214667
     37 HN20        2.4760    5.0020    4.4160 hn        1 MK2      0.229500
     38 HN2A        2.1880    3.6150    5.1220 hn        1 MK2      0.229500
     39 HN25       -1.9260    1.1410    2.9790 hn        1 MK2      0.220000
     40 HN21        1.4550   -3.4660   -0.4460 DU        1 MK2      0.214667
@<TRIPOS>BOND
     1    1    3 1   
     2    1   27 1   
     3    2    4 1   
     4    2   28 1   
     5    3   29 1   
     6    4   30 1   
     7    5   13 1   
     8    5   31 1   
     9    6   22 1   
    10    6   32 1   
    11    7   11 1   
    12    7   17 1   
    13    8   15 1   
    14    8   34 1   
    15    9   14 1   
    16    9   35 1   
    17   10   15 1   
    18   10   23 1   
    19   11   12 1   
    20   13   24 1   
    21   14   25 1   
    22   16   18 1   
    23   17   26 1   
    24   19   22 1   
    25   19   24 1   
    26   20   37 1   
    27   20   38 1   
    28   21   23 1   
    29   25   39 1   
@<TRIPOS>SUBSTRUCTURE
     1 MK2         1 TEMP              0 ****  ****    0 ROOT
