@<TRIPOS>MOLECULE
MK2
   42    41     1     0     0
SMALL
bcc


@<TRIPOS>ATOM
      1 C1          0.3120    1.3100   -1.3550 c3        1 MK2     -0.158000
      2 C2          1.1620   -2.4220    0.7310 c1        1 MK2      0.330000
      3 C3          0.8290    1.4400   -0.0370 c1        1 MK2      0.059000
      4 C4          1.6910   -3.3650    1.4880 c2        1 MK2     -0.587000
      5 C5         -1.7660    3.3800   10.7640 c2        1 MK2     -0.272000
      6 C6         -3.1930    3.3110   10.8420 c2        1 MK2      0.052000
      7 C7          1.7770    1.6790    2.3180 c1        1 MK2      0.174000
      8 C8          1.6910    1.7820    8.0260 c1        1 MK2     -0.096000
      9 C9          3.6900    2.9830    4.9230 c2        1 MK2     -0.044000
     10 C10         1.1100   -1.9370    7.0130 c1        1 MK2      0.381000
     11 C11         1.2670    1.5450    1.0800 c1        1 MK2     -0.194000
     12 C12         2.0760   -3.3130    2.8880 c2        1 MK2      0.325000
     13 C13        -1.2420    3.2100    9.4810 c2        1 MK2      0.026000
     14 C14         0.8210    1.9950    8.9790 c2        1 MK2     -0.068000
     15 C15         2.6240    1.5000    7.1630 c2        1 MK2     -0.070000
     16 C16         2.7980    1.9910    4.6930 c2        1 MK2     -0.017000
     17 C17         2.2260    1.7800    3.4310 c1        1 MK2     -0.298000
     18 C18         2.3970    1.0690    5.7680 c2        1 MK2      0.226000
     19 C19        -3.3530    2.9420    8.5430 c2        1 MK2      0.228000
     20 N20        -4.1470    2.7210    7.4540 nh        1 MK2     -0.305000
     21 N21         1.8790   -0.1230    5.4570 n3        1 MK2      0.059000
     22 N22        -3.9790    3.1030    9.8000 n2        1 MK2     -0.156000
     23 N23         1.4770   -1.0260    6.3260 n2        1 MK2     -0.343000
     24 N24        -1.9690    2.9830    8.3580 n2        1 MK2     -0.280000
     25 O26         1.9470   -2.3060    3.6020 o         1 MK2     -0.424000
     26 H1         -0.6370    1.9010   -1.4670 hc        1 MK2      0.133667
     27 H2          0.0900    0.2330   -1.5860 hc        1 MK2      0.133667
     28 H3          1.0560    1.6890   -2.1070 hc        1 MK2      0.133667
     29 H4          1.8730   -4.3490    0.9910 ha        1 MK2      0.232000
     30 H7          2.5060   -4.2530    3.3030 h4        1 MK2      0.132000
     31 H8          0.4440    1.1780    9.6380 hx        1 MK2      0.235000
     32 H9          4.1660    3.1590    5.8970 ha        1 MK2      0.162500
     33 H10         3.7010    1.5730    7.4450 ha        1 MK2      0.225000
     34 HN20        3.9970    3.6630    4.1090 ha        1 MK2      0.162500
     35 HN2A       -3.7550    2.6480    6.5460 hn        1 MK2      0.272500
     36 HN21        1.7980   -0.4150    4.4630 hn        1 MK2      0.362000
     37 H5         -1.1740    3.5630   11.6690 ha        1 MK2      0.185000
     38 H203       -5.1380    2.7120    7.5600 hn        1 MK2      0.272500
     39 N25         0.2400    3.3000    9.2890 n4        1 MK2      0.043000
     40 H6         -3.6990    3.4390   11.8250 h4        1 MK2      0.219000
     41 HN25        0.4420    3.9820    8.5430 hn        1 MK2      0.272500
     42 H252        0.6510    3.6390   10.1740 hn        1 MK2      0.272500
@<TRIPOS>BOND
     1    1    3 1   
     2    1   26 1   
     3    1   27 1   
     4    1   28 1   
     5    2    4 1   
     6    3   11 1   
     7    4   12 1   
     8    4   29 1   
     9    5    6 1   
    10    5   13 1   
    11    5   37 1   
    12    6   22 1   
    13    6   40 1   
    14    7   11 1   
    15    7   17 1   
    16    8   14 1   
    17    8   15 1   
    18    9   16 1   
    19    9   32 1   
    20    9   34 1   
    21   10   23 1   
    22   12   25 1   
    23   12   30 1   
    24   13   24 1   
    25   13   39 1   
    26   14   31 1   
    27   14   39 1   
    28   15   18 1   
    29   15   33 1   
    30   16   17 1   
    31   16   18 1   
    32   18   21 1   
    33   19   20 1   
    34   19   22 1   
    35   19   24 1   
    36   20   35 1   
    37   20   38 1   
    38   21   23 1   
    39   21   36 1   
    40   39   41 1   
    41   39   42 1   
@<TRIPOS>SUBSTRUCTURE
     1 MK2         1 TEMP              0 ****  ****    0 ROOT
