@<TRIPOS>MOLECULE
MK2
   40    42     1     0     0
SMALL
bcc


@<TRIPOS>ATOM
      1 C1         -0.2230   -2.2700   -0.8270 c2        1 MK2     -0.218000
      2 C2          3.3200   -3.5640    1.7240 c1        1 MK2      0.247000
      3 C3         -0.2240   -1.2100   -0.0160 c2        1 MK2     -0.095000
      4 C4          2.4120   -2.7930    1.1530 c2        1 MK2     -0.427000
      5 C5          0.1870    4.0920   10.5810 c2        1 MK2     -0.343000
      6 C6         -0.3340    5.1700   11.3360 c1        1 MK2     -0.068000
      7 C7         -0.0060   -0.2700    2.3420 c2        1 MK2     -0.178000
      8 C8          0.5160    1.5300    6.4860 c2        1 MK2     -0.189000
      9 C9          0.2190    1.2370    5.0850 c2        1 MK2     -0.086000
     10 C10         4.3410   -1.8140    7.4800 c1        1 MK2      0.112000
     11 C11         0.4210   -1.1400    1.2660 c2        1 MK2     -0.097000
     12 C12         1.5300   -1.8340    1.7400 c2        1 MK2      0.059000
     13 C13        -0.2110    3.9290    9.2380 c2        1 MK2      0.185000
     14 C14         0.0070    2.5900    7.1770 c2        1 MK2      0.108000
     15 C15         1.4290    0.4840    6.9440 c2        1 MK2     -0.159000
     16 C16         0.9040    0.0980    4.7120 c2        1 MK2     -0.065000
     17 C17         0.8500   -0.4840    3.4100 c2        1 MK2      0.040000
     18 C18         1.6630   -0.3820    5.8920 c2        1 MK2     -0.027000
     19 C19        -1.5720    5.8410    9.3740 c2        1 MK2      0.176000
     20 N20        -2.3860    6.7990    8.7510 n8        1 MK2     -0.338000
     21 N21         2.3690   -1.6200    5.9290 nu        1 MK2     -0.041000
     22 N22        -1.1960    6.0140   10.7290 n7        1 MK2     -0.188000
     23 N23         3.4530   -1.6630    6.7080 n2        1 MK2     -0.281000
     24 N24        -1.1090    4.8000    8.6310 n2        1 MK2     -0.286000
     25 O26         1.8120   -1.4450    3.0590 os        1 MK2     -0.125000
     26 H1         -0.7650   -0.2880   -0.3010 ha        1 MK2      0.129000
     27 H2         -0.7370   -2.2550   -1.7970 ha        1 MK2      0.115500
     28 H3          0.2690   -3.2180   -0.5760 ha        1 MK2      0.115500
     29 H4          2.3010   -2.8880    0.0460 ha        1 MK2      0.210000
     30 H6         -1.5460    6.7930   11.2450 hn        1 MK2      0.260000
     31 H7         -0.8530    0.4100    2.3030 ha        1 MK2      0.164000
     32 H8         -0.6850    3.2930    6.6660 h4        1 MK2      0.176000
     33 H9         -0.4360    1.8430    4.4600 ha        1 MK2      0.145000
     34 H10         1.8370    0.4180    7.9500 ha        1 MK2      0.145000
     35 HN20       -2.7030    6.5780    7.8330 hn        1 MK2      0.222500
     36 HN2A       -3.0470    7.2630    9.3290 hn        1 MK2      0.222500
     37 HN21        2.6440   -1.8840    4.9820 hn        1 MK2      0.201000
     38 N25         0.2980    2.8570    8.4900 n7        1 MK2     -0.246000
     39 H5          0.8920    3.4140   11.0760 ha        1 MK2      0.166000
     40 HN25        0.9220    2.2490    8.9790 hn        1 MK2      0.255000
@<TRIPOS>BOND
     1    1    3 1   
     2    1   27 1   
     3    1   28 1   
     4    2    4 1   
     5    3   11 1   
     6    3   26 1   
     7    4   12 1   
     8    4   29 1   
     9    5    6 1   
    10    5   13 1   
    11    5   39 1   
    12    6   22 1   
    13    7   11 1   
    14    7   17 1   
    15    7   31 1   
    16    8    9 1   
    17    8   14 1   
    18    8   15 1   
    19    9   16 1   
    20    9   33 1   
    21   10   23 1   
    22   11   12 1   
    23   12   25 1   
    24   13   24 1   
    25   13   38 1   
    26   14   32 1   
    27   14   38 1   
    28   15   18 1   
    29   15   34 1   
    30   16   17 1   
    31   16   18 1   
    32   17   25 1   
    33   18   21 1   
    34   19   20 1   
    35   19   22 1   
    36   19   24 1   
    37   20   35 1   
    38   20   36 1   
    39   21   23 1   
    40   21   37 1   
    41   22   30 1   
    42   38   40 1   
@<TRIPOS>SUBSTRUCTURE
     1 MK2         1 TEMP              0 ****  ****    0 ROOT
