@<TRIPOS>MOLECULE
MK3
   45    48     1     0     0
SMALL
bcc


@<TRIPOS>ATOM
      1 C1         -0.3610    0.1890    0.9000 ca        1 MK3      0.740900
      2 N1          0.7390   -0.6220    0.8870 nb        1 MK3     -0.663000
      3 O1          5.9320   -0.4370   -3.6580 oh        1 MK3     -0.441100
      4 S1          3.0150   -1.8150   -7.5370 ss        1 MK3      0.216500
      5 C2          0.7790    2.0900    1.5260 ca        1 MK3      0.504200
      6 N2         -0.3980    1.5320    1.2060 nb        1 MK3     -0.615000
      7 O2          1.2700   -4.6140   -9.6480 o         1 MK3     -0.524100
      8 C3          1.9960    1.3600    1.5480 ca        1 MK3     -0.262600
      9 N3         -1.6630   -0.4420    0.5360 n4        1 MK3     -0.817300
     10 C4          1.9180   -0.0090    1.2150 ca        1 MK3      0.546200
     11 N4          3.1490   -0.8410    1.1910 n4        1 MK3     -0.601100
     12 C5          3.8760   -0.7000   -0.0760 ca        1 MK3     -0.147400
     13 N5          2.3060   -2.6070  -10.3340 ne        1 MK3     -0.693100
     14 C6          3.4180   -1.4000   -1.2110 ca        1 MK3     -0.080000
     15 C7          4.1110   -1.3250   -2.4170 cp        1 MK3      0.004000
     16 C8          5.2840   -0.5160   -2.4690 ca        1 MK3      0.218100
     17 C9          5.7350    0.1720   -1.3250 ca        1 MK3     -0.200000
     18 C10         5.0380    0.0910   -0.1300 ca        1 MK3     -0.057000
     19 C11         3.6250   -2.0770   -3.5700 cp        1 MK3     -0.091000
     20 C12         3.1410   -3.3980   -3.3710 ca        1 MK3     -0.145000
     21 C13         2.6560   -4.1400   -4.4260 ca        1 MK3     -0.067000
     22 C14         3.6290   -1.5170   -4.8410 ca        1 MK3     -0.033000
     23 C15         3.1280   -2.2530   -5.9250 ca        1 MK3     -0.133100
     24 C16         2.6320   -3.5750   -5.7130 ca        1 MK3     -0.074800
     25 C17         2.1660   -4.1540   -6.9370 cc        1 MK3     -0.077200
     26 C18         2.3250   -3.2800   -7.9930 cd        1 MK3     -0.154600
     27 C19         1.9250   -3.5950   -9.3760 c         1 MK3      0.712700
     28 C20         2.3660   -2.8730  -11.5850 c2        1 MK3      0.542100
     29 HO1         6.7660    0.0560   -3.5450 ho        1 MK3      0.458000
     30 H2          0.7500    3.1780    1.7760 h4        1 MK3      0.114100
     31 H3          2.9410    1.8660    1.8080 ha        1 MK3      0.218000
     32 HN3        -1.6730   -0.6340   -0.4770 hn        1 MK3      0.500133
     33 HN3A       -1.7850   -1.3240    1.0540 hn        1 MK3      0.500133
     34 HN4         2.9100   -1.8390    1.3200 hn        1 MK3      0.484800
     35 H6          2.5130   -2.0290   -1.1630 ha        1 MK3      0.159000
     36 H9          6.6580    0.7760   -1.3770 ha        1 MK3      0.182000
     37 H10         5.4170    0.6320    0.7520 ha        1 MK3      0.155000
     38 H12         3.1910   -3.8430   -2.3670 ha        1 MK3      0.121000
     39 H13         2.2980   -5.1710   -4.2800 ha        1 MK3      0.155000
     40 H14         4.0300   -0.5040   -5.0090 ha        1 MK3      0.149000
     41 H17         1.7400   -5.1600   -7.0190 ha        1 MK3      0.188000
     42 H20         2.1600   -3.8570  -12.0540 h4        1 MK3      0.012300
     43 H20A        2.6540   -2.0500  -12.2680 h4        1 MK3      0.012300
     44 H33        -2.4410    0.2020    0.7670 hn        1 MK3      0.500133
     45 H42         3.7540   -0.5370    1.9700 hn        1 MK3      0.484800
@<TRIPOS>BOND
     1    1    2 ar  
     2    1    6 ar  
     3    1    9 1   
     4    2   10 ar  
     5    3   16 1   
     6    3   29 1   
     7    4   23 1   
     8    4   26 1   
     9    5    6 ar  
    10    5    8 ar  
    11    5   30 1   
    12    7   27 2   
    13    8   10 ar  
    14    8   31 1   
    15    9   32 1   
    16    9   33 1   
    17    9   44 1   
    18   10   11 1   
    19   11   12 1   
    20   11   34 1   
    21   11   45 1   
    22   12   14 ar  
    23   12   18 ar  
    24   13   27 1   
    25   13   28 2   
    26   14   15 ar  
    27   14   35 1   
    28   15   16 ar  
    29   15   19 1   
    30   16   17 ar  
    31   17   18 ar  
    32   17   36 1   
    33   18   37 1   
    34   19   20 ar  
    35   19   22 ar  
    36   20   21 ar  
    37   20   38 1   
    38   21   24 ar  
    39   21   39 1   
    40   22   23 ar  
    41   22   40 1   
    42   23   24 ar  
    43   24   25 1   
    44   25   26 2   
    45   25   41 1   
    46   26   27 1   
    47   28   42 1   
    48   28   43 1   
@<TRIPOS>SUBSTRUCTURE
     1 MK3         1 TEMP              0 ****  ****    0 ROOT
