@<TRIPOS>MOLECULE
MK3
   43    46     1     0     0
SMALL
bcc


@<TRIPOS>ATOM
      1 C1         -0.2430    0.2540    0.3720 ca        1 MK3      0.898900
      2 N1          1.1050    0.0390    0.1290 nb        1 MK3     -0.803000
      3 O1          6.0460   -0.3440   -3.7860 oh        1 MK3     -0.494100
      4 S1          3.1380   -2.0210   -7.5340 ss        1 MK3      0.120500
      5 C2          0.0310    0.3660    2.6670 ca        1 MK3      0.487200
      6 N2         -0.8140    0.4470    1.6290 nb        1 MK3     -0.775000
      7 O2          1.6940   -5.1180   -9.4790 o         1 MK3     -0.554100
      8 C3          1.4030    0.1220    2.5490 ca        1 MK3     -0.475600
      9 N3         -1.0990    0.2250   -0.7300 nv        1 MK3     -0.931500
     10 C4          1.9170   -0.0480    1.2230 ca        1 MK3      0.706200
     11 N4          3.2800   -0.3560    1.0790 nu        1 MK3     -0.719300
     12 C5          3.9490   -0.3160   -0.1680 ca        1 MK3      0.099600
     13 N5          2.2340   -2.9720  -10.2530 ne        1 MK3     -0.669100
     14 C6          3.5200   -1.1100   -1.2490 ca        1 MK3     -0.069000
     15 C7          4.2200   -1.1300   -2.4610 cp        1 MK3     -0.053000
     16 C8          5.3770   -0.3330   -2.5830 ca        1 MK3      0.125100
     17 C9          5.8230    0.4490   -1.5080 ca        1 MK3     -0.198000
     18 C10         5.1160    0.4650   -0.3140 ca        1 MK3     -0.127000
     19 C11         3.7360   -1.9750   -3.5530 cp        1 MK3     -0.007000
     20 C12         3.2500   -3.2750   -3.2570 ca        1 MK3     -0.128000
     21 C13         2.7660   -4.0980   -4.2530 ca        1 MK3     -0.083000
     22 C14         3.7370   -1.5150   -4.8650 ca        1 MK3     -0.073000
     23 C15         3.2470   -2.3380   -5.8870 ca        1 MK3     -0.087100
     24 C16         2.7550   -3.6390   -5.5810 ca        1 MK3     -0.100800
     25 C17         2.3030   -4.3150   -6.7610 cc        1 MK3     -0.055200
     26 C18         2.4570   -3.5300   -7.8840 cd        1 MK3     -0.180600
     27 C19         2.0770   -3.9620   -9.2300 c         1 MK3      0.722700
     28 C20         1.4780   -2.9410  -11.2810 c2        1 MK3      0.512100
     29 HO1         6.8750    0.1450   -3.6700 ho        1 MK3      0.420000
     30 H2         -0.4300    0.5140    3.6630 h4        1 MK3      0.024100
     31 H3          2.0440    0.0560    3.4330 ha        1 MK3      0.151000
     32 HN3        -2.0030    0.6150   -0.6080 hn        1 MK3      0.431800
     33 HN3A       -0.6860    0.3150   -1.6290 hn        1 MK3      0.431800
     34 HN4         3.8370   -0.0510    1.8510 hn        1 MK3      0.424800
     35 H6          2.6100   -1.7270   -1.1560 ha        1 MK3      0.164000
     36 H9          6.7340    1.0560   -1.6130 ha        1 MK3      0.136000
     37 H10         5.4800    1.0910    0.5150 ha        1 MK3      0.133000
     38 H12         3.2700   -3.6270   -2.2140 ha        1 MK3      0.139000
     39 H13         2.3920   -5.1070   -4.0230 ha        1 MK3      0.139000
     40 H14         4.1320   -0.5150   -5.1010 ha        1 MK3      0.153000
     41 H17         1.8890   -5.3280   -6.7610 ha        1 MK3      0.172000
     42 H20         0.6320   -3.6260  -11.4920 h4        1 MK3     -0.003200
     43 H20A        1.6720   -2.1550  -12.0370 h4        1 MK3     -0.003200
@<TRIPOS>BOND
     1    1    2 ar  
     2    1    6 ar  
     3    1    9 1   
     4    2   10 ar  
     5    3   16 1   
     6    3   29 1   
     7    4   23 1   
     8    4   26 1   
     9    5    6 ar  
    10    5    8 ar  
    11    5   30 1   
    12    7   27 2   
    13    8   10 ar  
    14    8   31 1   
    15    9   32 1   
    16    9   33 1   
    17   10   11 1   
    18   11   12 1   
    19   11   34 1   
    20   12   14 ar  
    21   12   18 ar  
    22   13   27 1   
    23   13   28 2   
    24   14   15 ar  
    25   14   35 1   
    26   15   16 ar  
    27   15   19 1   
    28   16   17 ar  
    29   17   18 ar  
    30   17   36 1   
    31   18   37 1   
    32   19   20 ar  
    33   19   22 ar  
    34   20   21 ar  
    35   20   38 1   
    36   21   24 ar  
    37   21   39 1   
    38   22   23 ar  
    39   22   40 1   
    40   23   24 ar  
    41   24   25 1   
    42   25   26 2   
    43   25   41 1   
    44   26   27 1   
    45   28   42 1   
    46   28   43 1   
@<TRIPOS>SUBSTRUCTURE
     1 MK3         1 TEMP              0 ****  ****    0 ROOT
