@<TRIPOS>MOLECULE
MK3
   43    46     1     0     0
SMALL
bcc


@<TRIPOS>ATOM
      1 C1         -0.2270    0.3160    0.3680 ca        1 MK3      0.897900
      2 N1          1.1150    0.0600    0.1290 nb        1 MK3     -0.801000
      3 O1          6.0410   -0.3280   -3.7860 oh        1 MK3     -0.494100
      4 S1          3.1210   -2.0060   -7.5320 ss        1 MK3      0.123500
      5 C2          0.0260    0.3280    2.6680 ca        1 MK3      0.487200
      6 N2         -0.8120    0.4340    1.6280 nb        1 MK3     -0.775000
      7 O2          1.6870   -5.1040   -9.4820 o         1 MK3     -0.554100
      8 C3          1.4010    0.0990    2.5510 ca        1 MK3     -0.474600
      9 N3         -1.0400    0.5300   -0.7460 nh        1 MK3     -0.932500
     10 C4          1.9210   -0.0490    1.2260 ca        1 MK3      0.704200
     11 N4          3.2810   -0.3760    1.0830 nh        1 MK3     -0.718300
     12 C5          3.9500   -0.3260   -0.1630 ca        1 MK3      0.099600
     13 N5          2.2180   -2.9530  -10.2510 ne        1 MK3     -0.669100
     14 C6          3.5240   -1.1180   -1.2460 ca        1 MK3     -0.068000
     15 C7          4.2220   -1.1300   -2.4600 cp        1 MK3     -0.054000
     16 C8          5.3740   -0.3250   -2.5810 ca        1 MK3      0.126100
     17 C9          5.8170    0.4550   -1.5040 ca        1 MK3     -0.198000
     18 C10         5.1120    0.4630   -0.3090 ca        1 MK3     -0.125000
     19 C11         3.7410   -1.9740   -3.5530 cp        1 MK3     -0.007000
     20 C12         3.2680   -3.2790   -3.2610 ca        1 MK3     -0.129000
     21 C13         2.7860   -4.1030   -4.2590 ca        1 MK3     -0.084000
     22 C14         3.7300   -1.5080   -4.8630 ca        1 MK3     -0.072000
     23 C15         3.2410   -2.3290   -5.8870 ca        1 MK3     -0.087100
     24 C16         2.7630   -3.6360   -5.5840 ca        1 MK3     -0.101800
     25 C17         2.3100   -4.3110   -6.7660 cc        1 MK3     -0.056200
     26 C18         2.4510   -3.5180   -7.8850 cd        1 MK3     -0.180600
     27 C19         2.0680   -3.9470   -9.2310 c         1 MK3      0.722700
     28 C20         1.4620   -2.9250  -11.2800 c2        1 MK3      0.512100
     29 HO1         6.8610    0.1740   -3.6730 ho        1 MK3      0.420000
     30 H2         -0.4440    0.4320    3.6650 h4        1 MK3      0.024100
     31 H3          2.0390    0.0200    3.4370 ha        1 MK3      0.151000
     32 HN3        -2.0210    0.4740   -0.6060 hn        1 MK3      0.431800
     33 HN3A       -0.6920    0.2330   -1.6270 hn        1 MK3      0.431800
     34 HN4         3.8380   -0.0760    1.8570 hn        1 MK3      0.423800
     35 H6          2.6180   -1.7400   -1.1530 ha        1 MK3      0.160000
     36 H9          6.7240    1.0690   -1.6090 ha        1 MK3      0.136000
     37 H10         5.4740    1.0880    0.5220 ha        1 MK3      0.134000
     38 H12         3.2990   -3.6360   -2.2210 ha        1 MK3      0.138000
     39 H13         2.4250   -5.1160   -4.0320 ha        1 MK3      0.139000
     40 H14         4.1150   -0.5020   -5.0960 ha        1 MK3      0.154000
     41 H17         1.9060   -5.3280   -6.7680 ha        1 MK3      0.172000
     42 H20         0.6220   -3.6160  -11.4930 h4        1 MK3     -0.003200
     43 H20A        1.6510   -2.1360  -12.0330 h4        1 MK3     -0.003200
@<TRIPOS>BOND
     1    1    2 ar  
     2    1    6 ar  
     3    1    9 1   
     4    2   10 ar  
     5    3   16 1   
     6    3   29 1   
     7    4   23 1   
     8    4   26 1   
     9    5    6 ar  
    10    5    8 ar  
    11    5   30 1   
    12    7   27 2   
    13    8   10 ar  
    14    8   31 1   
    15    9   32 1   
    16    9   33 1   
    17   10   11 1   
    18   11   12 1   
    19   11   34 1   
    20   12   14 ar  
    21   12   18 ar  
    22   13   27 1   
    23   13   28 2   
    24   14   15 ar  
    25   14   35 1   
    26   15   16 ar  
    27   15   19 1   
    28   16   17 ar  
    29   17   18 ar  
    30   17   36 1   
    31   18   37 1   
    32   19   20 ar  
    33   19   22 ar  
    34   20   21 ar  
    35   20   38 1   
    36   21   24 ar  
    37   21   39 1   
    38   22   23 ar  
    39   22   40 1   
    40   23   24 ar  
    41   24   25 1   
    42   25   26 2   
    43   25   41 1   
    44   26   27 1   
    45   28   42 1   
    46   28   43 1   
@<TRIPOS>SUBSTRUCTURE
     1 MK3         1 TEMP              0 ****  ****    0 ROOT
