@<TRIPOS>MOLECULE
MK3
   43    46     1     0     0
SMALL
bcc


@<TRIPOS>ATOM
      1 C1          4.2690   -2.7770    0.7510 ca        1 MK3      0.897900
      2 N1          3.9600   -1.4600    0.4440 nb        1 MK3     -0.802000
      3 O1          0.1890    3.6660    0.6660 oh        1 MK3     -0.500100
      4 S1         -3.8060    0.1730    0.9660 ss        1 MK3      0.132500
      5 C2          6.4810   -2.5710    0.1020 ca        1 MK3      0.487200
      6 N2          5.5270   -3.3610    0.6150 nb        1 MK3     -0.775000
      7 O2         -6.6650   -1.6210   -1.0480 o         1 MK3     -0.550100
      8 C3          6.2810   -1.2380   -0.2750 ca        1 MK3     -0.475600
      9 N3          3.2200   -3.5910    1.1820 nh        1 MK3     -0.930500
     10 C4          4.9650   -0.7050   -0.0880 ca        1 MK3      0.706200
     11 N4          4.7200    0.6110   -0.5170 nh        1 MK3     -0.718300
     12 C5          3.5470    1.3250   -0.1760 ca        1 MK3      0.095600
     13 N5         -6.6780   -0.7260    1.1210 ne        1 MK3     -0.671100
     14 C6          2.2730    0.8360   -0.5150 ca        1 MK3     -0.062000
     15 C7          1.1190    1.5790   -0.2370 cp        1 MK3     -0.114000
     16 C8          1.2500    2.8450    0.3630 ca        1 MK3      0.129100
     17 C9          2.5180    3.3480    0.6980 ca        1 MK3     -0.144000
     18 C10         3.6510    2.5930    0.4430 ca        1 MK3     -0.131000
     19 C11        -0.1870    1.0150   -0.5820 cp        1 MK3     -0.019000
     20 C12        -0.4010    0.5180   -1.8930 ca        1 MK3     -0.126000
     21 C13        -1.6130   -0.0360   -2.2530 ca        1 MK3     -0.076000
     22 C14        -1.2000    0.9420    0.3670 ca        1 MK3     -0.109000
     23 C15        -2.4370    0.3820    0.0180 ca        1 MK3     -0.089100
     24 C16        -2.6450   -0.1090   -1.3040 ca        1 MK3     -0.100800
     25 C17        -3.9680   -0.6410   -1.4560 cc        1 MK3     -0.056200
     26 C18        -4.6920   -0.5360   -0.2880 cd        1 MK3     -0.177600
     27 C19        -6.0750   -0.9970   -0.1490 c         1 MK3      0.721700
     28 C20        -7.9400   -0.5660    1.2460 c2        1 MK3      0.515100
     29 HO1        -0.6080    3.3010    0.2500 ho        1 MK3      0.428000
     30 H2          7.4760   -3.0430   -0.0090 h4        1 MK3      0.024100
     31 H3          7.0940   -0.6420   -0.6980 ha        1 MK3      0.151000
     32 HN3         2.3950   -3.1380    1.4980 hn        1 MK3      0.430800
     33 HN3A        3.4670   -4.4390    1.6350 hn        1 MK3      0.430800
     34 HN4         5.5450    1.1740   -0.5480 hn        1 MK3      0.424800
     35 H6          2.1620   -0.1490   -0.9980 ha        1 MK3      0.162000
     36 H9          2.5940    4.3390    1.1680 ha        1 MK3      0.153000
     37 H10         4.6360    2.9990    0.7200 ha        1 MK3      0.134000
     38 H12         0.4220    0.5800   -2.6220 ha        1 MK3      0.145000
     39 H13        -1.7800   -0.4210   -3.2700 ha        1 MK3      0.143000
     40 H14        -1.0290    1.3070    1.3920 ha        1 MK3      0.148000
     41 H17        -4.3450   -1.0750   -2.3870 ha        1 MK3      0.174000
     42 H20        -8.6860   -0.5960    0.4280 h4        1 MK3     -0.001700
     43 H20A       -8.3340   -0.3750    2.2630 h4        1 MK3     -0.001700
@<TRIPOS>BOND
     1    1    2 ar  
     2    1    6 ar  
     3    1    9 1   
     4    2   10 ar  
     5    3   16 1   
     6    3   29 1   
     7    4   23 1   
     8    4   26 1   
     9    5    6 ar  
    10    5    8 ar  
    11    5   30 1   
    12    7   27 2   
    13    8   10 ar  
    14    8   31 1   
    15    9   32 1   
    16    9   33 1   
    17   10   11 1   
    18   11   12 1   
    19   11   34 1   
    20   12   14 ar  
    21   12   18 ar  
    22   13   27 1   
    23   13   28 2   
    24   14   15 ar  
    25   14   35 1   
    26   15   16 ar  
    27   15   19 1   
    28   16   17 ar  
    29   17   18 ar  
    30   17   36 1   
    31   18   37 1   
    32   19   20 ar  
    33   19   22 ar  
    34   20   21 ar  
    35   20   38 1   
    36   21   24 ar  
    37   21   39 1   
    38   22   23 ar  
    39   22   40 1   
    40   23   24 ar  
    41   24   25 1   
    42   25   26 2   
    43   25   41 1   
    44   26   27 1   
    45   28   42 1   
    46   28   43 1   
@<TRIPOS>SUBSTRUCTURE
     1 MK3         1 TEMP              0 ****  ****    0 ROOT
