@<TRIPOS>MOLECULE
MK5
   80    80     1     0     0
SMALL
bcc


@<TRIPOS>ATOM
      1 C1         -1.5450    1.1020    0.9790 c3        1 MK5      0.095700
      2 O1         -0.5540    0.1090    0.6470 os        1 MK5     -0.251900
      3 C2          0.5990    0.0940    1.3230 ca        1 MK5      0.320100
      4 C7          1.5370   -0.9080    0.9160 ca        1 MK5     -0.212000
      5 C6          2.7490   -0.9910    1.5360 ca        1 MK5      0.066500
      6 C3          0.9390    0.9790    2.3840 ca        1 MK5     -0.212000
      7 C4          2.1600    0.8730    2.9920 ca        1 MK5      0.066500
      8 C5          3.1370   -0.1020    2.5980 ca        1 MK5     -0.712500
      9 S8          4.5190   -0.1540    3.2180 s4        1 MK5      1.694300
     10 O9          5.4490   -1.0110    2.7170 o         1 MK5     -0.444400
     11 O10         4.8610    0.7680    4.1560 o         1 MK5     -0.444400
     12 N11         4.9100   -1.7180    5.4710 n3        1 MK5     -0.889200
     13 C12         3.7220   -2.2760    6.1110 c3        1 MK5      0.128800
     14 C13         2.6530   -2.7960    5.1330 c3        1 MK5     -0.066700
     15 C14         3.1390   -3.9940    4.3500 c3        1 MK5     -0.104100
     16 C15         1.4030   -3.1420    5.9370 c3        1 MK5     -0.081400
     17 C18         0.1740   -3.2450    5.0720 c3        1 MK5     -0.096100
     18 C16         6.0090   -2.6440    5.2810 c3        1 MK5      0.113800
     19 C17         7.0480   -2.7220    6.4220 c3        1 MK5      0.094100
     20 O18         6.5860   -3.4860    7.5250 oh        1 MK5     -0.634800
     21 C19         8.3360   -3.4330    5.9220 c3        1 MK5      0.154500
     22 C32         8.0220   -4.7540    5.2050 c3        1 MK5     -0.057100
     23 C38         9.2440   -5.5400    4.8870 ca        1 MK5     -0.186300
     24 C33         9.5860   -6.6520    5.6700 ca        1 MK5     -0.135500
     25 C34        10.6810   -7.4420    5.3240 ca        1 MK5     -0.113000
     26 C35        11.4420   -7.1280    4.1960 ca        1 MK5     -0.089000
     27 C36        11.1070   -6.0210    3.4140 ca        1 MK5     -0.113000
     28 C37        10.0100   -5.2300    3.7560 ca        1 MK5     -0.135500
     29 N20         9.2820   -3.7130    7.0860 n4        1 MK5     -0.632800
     30 C21        10.0960   -2.5440    7.4730 c         1 MK5      0.620100
     31 O22         9.8900   -1.3900    7.1260 o         1 MK5     -0.402000
     32 O23        11.1370   -2.8930    8.2900 os        1 MK5     -0.439900
     33 C23        11.9830   -1.7950    8.7270 c3        1 MK5      0.118400
     34 C24        12.5590   -2.2040   10.0790 c3        1 MK5      0.091800
     35 N25        13.7400   -3.1100    9.9980 n4        1 MK5     -0.687800
     36 C26        14.1270   -3.6390   11.3820 c         1 MK5      0.534100
     37 O27        13.2970   -4.3250   11.9420 o         1 MK5     -0.346100
     38 C28        15.5060   -3.2390   11.8690 c3        1 MK5      0.020100
     39 CL2        16.7090   -3.8640   10.7820 cl        1 MK5     -0.029900
     40 CL1        15.5730   -1.5100   12.0430 cl        1 MK5     -0.029900
     41 H1         -2.3660    0.8700    0.2480 h1        1 MK5      0.089367
     42 H2         -1.8880    0.9610    2.0310 h1        1 MK5      0.089367
     43 H3         -1.1310    2.1250    0.8090 h1        1 MK5      0.089367
     44 H4          1.2550   -1.5910    0.0940 ha        1 MK5      0.198000
     45 H5          3.4750   -1.7620    1.2120 ha        1 MK5      0.173500
     46 H6          0.2190    1.7500    2.7080 ha        1 MK5      0.198000
     47 H7          2.4210    1.5700    3.8140 ha        1 MK5      0.173500
     48 H8          3.2510   -1.4620    6.7370 h1        1 MK5      0.058200
     49 H9          3.9820   -3.1260    6.8060 h1        1 MK5      0.058200
     50 H10         2.3920   -1.9720    4.4090 hc        1 MK5      0.026700
     51 H11         2.3030   -4.4220    3.7420 hc        1 MK5      0.045700
     52 H12         3.9650   -3.7120    3.6520 hc        1 MK5      0.045700
     53 H13         3.5070   -4.7950    5.0380 hc        1 MK5      0.045700
     54 H14         1.2300   -2.3540    6.7190 hc        1 MK5      0.054700
     55 H15         1.5680   -4.1130    6.4750 hc        1 MK5      0.054700
     56 H16         0.2750   -4.0650    4.3200 hc        1 MK5      0.046033
     57 H17        -0.7180   -3.4680    5.7080 hc        1 MK5      0.046033
     58 H18        -0.0130   -2.2880    4.5290 hc        1 MK5      0.046033
     59 H19         5.5960   -3.6810    5.1120 h1        1 MK5      0.095700
     60 H20         6.5510   -2.3170    4.3440 h1        1 MK5      0.095700
     61 H21         7.3250   -1.6860    6.7760 h1        1 MK5      0.069700
     62 H22         5.7410   -3.1200    7.8190 ho        1 MK5      0.455000
     63 H23         8.8790   -2.7330    5.2190 hx        1 MK5      0.123700
     64 H24         7.4930   -4.4860    4.2470 hc        1 MK5      0.103700
     65 H25         7.3080   -5.3580    5.8290 hc        1 MK5      0.103700
     66 H26         8.9540   -6.9430    6.5240 ha        1 MK5      0.139500
     67 H27        10.9270   -8.3330    5.9230 ha        1 MK5      0.166000
     68 H28        12.2930   -7.7690    3.9080 ha        1 MK5      0.171000
     69 H29        11.6930   -5.7850    2.5110 ha        1 MK5      0.166000
     70 H30         9.7300   -4.3790    3.1150 ha        1 MK5      0.139500
     71 H31         8.7130   -4.0060    7.9010 hn        1 MK5      0.500300
     72 H32        11.3710   -0.8580    8.8580 h1        1 MK5      0.122700
     73 H33        12.7550   -1.6350    7.9280 h1        1 MK5      0.122700
     74 H34        12.8800   -1.2640   10.6250 hx        1 MK5      0.144200
     75 H35        11.7650   -2.7270   10.6940 hx        1 MK5      0.144200
     76 H36        13.5130   -3.9110    9.3950 hn        1 MK5      0.469800
     77 H37        15.6750   -3.7020   12.8870 h2        1 MK5      0.199700
     78 H111        5.2240   -0.9120    5.9900 hn        1 MK5      0.385800
     79 H202        9.9080   -4.5000    6.8190 hn        1 MK5      0.500300
     80 H252       14.5400   -2.6110    9.5860 hn        1 MK5      0.469800
@<TRIPOS>BOND
     1    1    2 1   
     2    1   41 1   
     3    1   42 1   
     4    1   43 1   
     5    2    3 1   
     6    3    4 ar  
     7    3    6 ar  
     8    4    5 ar  
     9    4   44 1   
    10    5    8 ar  
    11    5   45 1   
    12    6    7 ar  
    13    6   46 1   
    14    7    8 ar  
    15    7   47 1   
    16    8    9 1   
    17    9   10 1   
    18    9   11 1   
    19   12   13 1   
    20   12   18 1   
    21   12   78 1   
    22   13   14 1   
    23   13   48 1   
    24   13   49 1   
    25   14   15 1   
    26   14   16 1   
    27   14   50 1   
    28   15   51 1   
    29   15   52 1   
    30   15   53 1   
    31   16   17 1   
    32   16   54 1   
    33   16   55 1   
    34   17   56 1   
    35   17   57 1   
    36   17   58 1   
    37   18   19 1   
    38   18   59 1   
    39   18   60 1   
    40   19   20 1   
    41   19   21 1   
    42   19   61 1   
    43   20   62 1   
    44   21   22 1   
    45   21   29 1   
    46   21   63 1   
    47   22   23 1   
    48   22   64 1   
    49   22   65 1   
    50   23   24 ar  
    51   23   28 ar  
    52   24   25 ar  
    53   24   66 1   
    54   25   26 ar  
    55   25   67 1   
    56   26   27 ar  
    57   26   68 1   
    58   27   28 ar  
    59   27   69 1   
    60   28   70 1   
    61   29   30 1   
    62   29   71 1   
    63   29   79 1   
    64   30   31 2   
    65   30   32 1   
    66   32   33 1   
    67   33   34 1   
    68   33   72 1   
    69   33   73 1   
    70   34   35 1   
    71   34   74 1   
    72   34   75 1   
    73   35   36 1   
    74   35   76 1   
    75   35   80 1   
    76   36   37 2   
    77   36   38 1   
    78   38   39 1   
    79   38   40 1   
    80   38   77 1   
@<TRIPOS>SUBSTRUCTURE
     1 MK5         1 TEMP              0 ****  ****    0 ROOT
