@<TRIPOS>MOLECULE
MK5
   80    80     1     0     0
SMALL
bcc


@<TRIPOS>ATOM
      1 C1         -1.7360    0.9350    1.1430 c3        1 MK5      0.095700
      2 O1         -0.8850   -0.2060    0.9130 os        1 MK5     -0.252900
      3 C2          0.3640   -0.1880    1.3890 ca        1 MK5      0.320100
      4 C7          1.1510   -1.3460    1.0930 ca        1 MK5     -0.212000
      5 C6          2.4450   -1.4120    1.5200 ca        1 MK5      0.066000
      6 C3          0.9390    0.8730    2.1440 ca        1 MK5     -0.212000
      7 C4          2.2380    0.7810    2.5640 ca        1 MK5      0.066000
      8 C5          3.0670   -0.3520    2.2670 ca        1 MK5     -0.712500
      9 S8          4.5310   -0.4020    2.6580 s4        1 MK5      1.693300
     10 O9          5.3050   -1.4380    2.2360 o         1 MK5     -0.443900
     11 O10         5.0860    0.6640    3.2920 o         1 MK5     -0.443900
     12 N11         5.1400   -1.4860    5.1090 n7        1 MK5     -0.881200
     13 C12         4.0470   -1.8280    6.0160 c3        1 MK5      0.123800
     14 C13         2.8610   -2.5620    5.3700 c3        1 MK5     -0.068700
     15 C14         3.2240   -3.9580    4.9190 c3        1 MK5     -0.100100
     16 C15         1.7230   -2.6040    6.3890 c3        1 MK5     -0.081400
     17 C18         0.3840   -2.8530    5.7430 c3        1 MK5     -0.097100
     18 C16         6.1760   -2.4840    4.9500 c3        1 MK5      0.123800
     19 C17         7.1160   -2.7070    6.1540 c3        1 MK5      0.088100
     20 O18         6.5400   -3.4730    7.1910 oh        1 MK5     -0.612800
     21 C19         8.4340   -3.3930    5.6920 c3        1 MK5      0.112500
     22 C32         8.1670   -4.6670    4.8790 c3        1 MK5     -0.055100
     23 C38         9.4060   -5.4340    4.5880 ca        1 MK5     -0.183300
     24 C33         9.7200   -6.5740    5.3430 ca        1 MK5     -0.136000
     25 C34        10.8380   -7.3410    5.0210 ca        1 MK5     -0.110500
     26 C35        11.6500   -6.9770    3.9450 ca        1 MK5     -0.088000
     27 C36        11.3430   -5.8430    3.1920 ca        1 MK5     -0.110500
     28 C37        10.2240   -5.0740    3.5110 ca        1 MK5     -0.136000
     29 N20         9.2880   -3.7390    6.9060 ny        1 MK5     -0.630800
     30 C21        10.0850   -2.5980    7.4010 c         1 MK5      0.621100
     31 O22         9.9480   -1.4350    7.0520 o         1 MK5     -0.400000
     32 O23        11.0200   -2.9860    8.3210 os        1 MK5     -0.438900
     33 C23        11.8280   -1.9130    8.8780 c3        1 MK5      0.118400
     34 C24        12.2580   -2.3730   10.2670 c3        1 MK5      0.091800
     35 N25        13.4460   -3.2730   10.2790 ny        1 MK5     -0.687800
     36 C26        13.6860   -3.8520   11.6760 c         1 MK5      0.534100
     37 O27        12.8070   -4.5640   12.1170 o         1 MK5     -0.346100
     38 C28        15.0000   -3.4640   12.3240 c3        1 MK5      0.020100
     39 Cl2        16.3190   -4.0410   11.3520 cl        1 MK5     -0.029900
     40 Cl1        15.0320   -1.7420   12.5690 cl        1 MK5     -0.029900
     41 H1         -1.9010    1.0710    2.2390 h1        1 MK5      0.089033
     42 H2         -2.6840    0.6320    0.6230 h1        1 MK5      0.089033
     43 H3         -1.2900    1.8440    0.6730 h1        1 MK5      0.089033
     44 H4          0.6880   -2.1630    0.5100 ha        1 MK5      0.197500
     45 H5          3.0540   -2.3050    1.2790 ha        1 MK5      0.173500
     46 H6          0.3370    1.7670    2.3820 ha        1 MK5      0.197500
     47 H7          2.6810    1.6140    3.1460 ha        1 MK5      0.173500
     48 H8          4.4120   -2.4460    6.8870 h1        1 MK5      0.065200
     49 H9          3.6570   -0.8570    6.4440 h1        1 MK5      0.065200
     50 H10         2.5110   -1.9730    4.4750 hc        1 MK5      0.032700
     51 H11         3.8260   -3.9340    3.9780 hc        1 MK5      0.041700
     52 H12         3.8070   -4.4920    5.7100 hc        1 MK5      0.041700
     53 H13         2.2990   -4.5530    4.7160 hc        1 MK5      0.041700
     54 H14         1.9340   -3.4080    7.1430 hc        1 MK5      0.054200
     55 H15         1.6790   -1.6300    6.9460 hc        1 MK5      0.054200
     56 H16         0.3630   -3.8370    5.2170 hc        1 MK5      0.046033
     57 H17         0.1440   -2.0520    5.0030 hc        1 MK5      0.046033
     58 H18        -0.4160   -2.8590    6.5240 hc        1 MK5      0.046033
     59 H19         5.6940   -3.4710    4.6910 h1        1 MK5      0.089700
     60 H20         6.8070   -2.1630    4.0680 h1        1 MK5      0.089700
     61 H21         7.3820   -1.7200    6.6400 h1        1 MK5      0.102700
     62 H22         5.8980   -4.0940    6.8140 ho        1 MK5      0.443000
     63 H23         9.0280   -2.6610    5.0670 hx        1 MK5      0.127700
     64 H24         7.4210   -5.3110    5.4200 hc        1 MK5      0.095200
     65 H25         7.6920   -4.3400    3.9100 hc        1 MK5      0.095200
     66 H26         9.0500   -6.9050    6.1520 ha        1 MK5      0.138000
     67 H27        11.0630   -8.2540    5.5970 ha        1 MK5      0.166500
     68 H28        12.5210   -7.5990    3.6760 ha        1 MK5      0.172000
     69 H29        11.9720   -5.5660    2.3290 ha        1 MK5      0.166500
     70 H30         9.9690   -4.2000    2.8910 ha        1 MK5      0.138000
     71 H31         8.6520   -4.0510    7.6640 hn        1 MK5      0.497800
     72 H32        12.6780   -1.7370    8.1660 h1        1 MK5      0.122700
     73 H33        11.2120   -0.9750    8.9750 h1        1 MK5      0.122700
     74 H34        11.4050   -2.9190   10.7740 hx        1 MK5      0.144200
     75 H35        12.5140   -1.4530   10.8790 hx        1 MK5      0.144200
     76 H36        13.2890   -4.0520    9.6260 hn        1 MK5      0.469800
     77 H37        15.0630   -3.9640   13.3370 h2        1 MK5      0.199700
     78 H111        5.5600   -0.6220    5.4220 hn        1 MK5      0.388800
     79 H202        9.9220   -4.5240    6.6560 hn        1 MK5      0.497800
     80 H252       14.2830   -2.7580    9.9740 hn        1 MK5      0.469800
@<TRIPOS>BOND
     1    1    2 1   
     2    1   41 1   
     3    1   42 1   
     4    1   43 1   
     5    2    3 1   
     6    3    4 ar  
     7    3    6 ar  
     8    4    5 ar  
     9    4   44 1   
    10    5    8 ar  
    11    5   45 1   
    12    6    7 ar  
    13    6   46 1   
    14    7    8 ar  
    15    7   47 1   
    16    8    9 1   
    17    9   10 1   
    18    9   11 1   
    19   12   13 1   
    20   12   18 1   
    21   12   78 1   
    22   13   14 1   
    23   13   48 1   
    24   13   49 1   
    25   14   15 1   
    26   14   16 1   
    27   14   50 1   
    28   15   51 1   
    29   15   52 1   
    30   15   53 1   
    31   16   17 1   
    32   16   54 1   
    33   16   55 1   
    34   17   56 1   
    35   17   57 1   
    36   17   58 1   
    37   18   19 1   
    38   18   59 1   
    39   18   60 1   
    40   19   20 1   
    41   19   21 1   
    42   19   61 1   
    43   20   62 1   
    44   21   22 1   
    45   21   29 1   
    46   21   63 1   
    47   22   23 1   
    48   22   64 1   
    49   22   65 1   
    50   23   24 ar  
    51   23   28 ar  
    52   24   25 ar  
    53   24   66 1   
    54   25   26 ar  
    55   25   67 1   
    56   26   27 ar  
    57   26   68 1   
    58   27   28 ar  
    59   27   69 1   
    60   28   70 1   
    61   29   30 1   
    62   29   71 1   
    63   29   79 1   
    64   30   31 2   
    65   30   32 1   
    66   32   33 1   
    67   33   34 1   
    68   33   72 1   
    69   33   73 1   
    70   34   35 1   
    71   34   74 1   
    72   34   75 1   
    73   35   36 1   
    74   35   76 1   
    75   35   80 1   
    76   36   37 2   
    77   36   38 1   
    78   38   39 1   
    79   38   40 1   
    80   38   77 1   
@<TRIPOS>SUBSTRUCTURE
     1 MK5         1 TEMP              0 ****  ****    0 ROOT
