@<TRIPOS>MOLECULE
MK5
   80    80     1     0     0
SMALL
bcc


@<TRIPOS>ATOM
      1 C1         -1.5460    1.0670    0.9500 c3        1 MK5      0.095700
      2 O1         -0.5560    0.0690    0.6260 os        1 MK5     -0.251900
      3 C2          0.5980    0.0590    1.3010 ca        1 MK5      0.320100
      4 C7          1.5350   -0.9470    0.9020 ca        1 MK5     -0.212000
      5 C6          2.7470   -1.0260    1.5230 ca        1 MK5      0.066500
      6 C3          0.9400    0.9540    2.3540 ca        1 MK5     -0.212000
      7 C4          2.1610    0.8520    2.9620 ca        1 MK5      0.066500
      8 C5          3.1370   -0.1270    2.5760 ca        1 MK5     -0.712500
      9 S8          4.5200   -0.1750    3.1950 s4        1 MK5      1.694300
     10 O9          5.4480   -1.0370    2.7010 o         1 MK5     -0.444400
     11 O10         4.8630    0.7550    4.1240 o         1 MK5     -0.444400
     12 N11         4.9110   -1.7190    5.4620 n3        1 MK5     -0.889200
     13 C12         3.7230   -2.2720    6.1060 c3        1 MK5      0.128800
     14 C13         2.6540   -2.7990    5.1340 c3        1 MK5     -0.066700
     15 C14         3.1390   -4.0050    4.3610 c3        1 MK5     -0.104100
     16 C15         1.4040   -3.1380    5.9420 c3        1 MK5     -0.081400
     17 C18         0.1750   -3.2490    5.0780 c3        1 MK5     -0.096100
     18 C16         6.0100   -2.6470    5.2790 c3        1 MK5      0.113800
     19 C17         7.0490   -2.7160    6.4200 c3        1 MK5      0.094100
     20 O18         6.5880   -3.4700    7.5300 oh        1 MK5     -0.634800
     21 C19         8.3360   -3.4310    5.9260 c3        1 MK5      0.154500
     22 C32         8.0230   -4.7580    5.2190 c3        1 MK5     -0.057100
     23 C38         9.2440   -5.5470    4.9080 ca        1 MK5     -0.186300
     24 C33         9.5860   -6.6520    5.7000 ca        1 MK5     -0.135500
     25 C34        10.6810   -7.4450    5.3600 ca        1 MK5     -0.113000
     26 C35        11.4420   -7.1410    4.2290 ca        1 MK5     -0.089000
     27 C36        11.1060   -6.0400    3.4390 ca        1 MK5     -0.113000
     28 C37        10.0100   -5.2460    3.7750 ca        1 MK5     -0.135500
     29 N20         9.2830   -3.7020    7.0920 n4        1 MK5     -0.632800
     30 C21        10.0970   -2.5300    7.4700 c         1 MK5      0.620100
     31 O22         9.8930   -1.3790    7.1120 o         1 MK5     -0.402000
     32 O23        11.1370   -2.8720    8.2900 os        1 MK5     -0.439900
     33 C23        11.9840   -1.7720    8.7190 c3        1 MK5      0.118400
     34 C24        12.5590   -2.1690   10.0750 c3        1 MK5      0.091800
     35 N25        13.7390   -3.0760   10.0030 n4        1 MK5     -0.687800
     36 C26        14.1240   -3.5920   11.3930 c         1 MK5      0.534100
     37 O27        13.2930   -4.2730   11.9580 o         1 MK5     -0.346100
     38 C28        15.5030   -3.1890   11.8770 c3        1 MK5      0.020100
     39 CL2        16.7060   -3.8250   10.7970 cl        1 MK5     -0.029900
     40 CL1        15.5710   -1.4580   12.0350 cl        1 MK5     -0.029900
     41 H1         -2.3680    0.8290    0.2230 h1        1 MK5      0.089367
     42 H2         -1.1300    2.0870    0.7700 h1        1 MK5      0.089367
     43 H3         -1.8870    0.9350    2.0040 h1        1 MK5      0.089367
     44 H4          1.2510   -1.6380    0.0870 ha        1 MK5      0.198000
     45 H5          3.4730   -1.8000    1.2040 ha        1 MK5      0.173500
     46 H6          0.2210    1.7290    2.6710 ha        1 MK5      0.198000
     47 H7          2.4240    1.5570    3.7770 ha        1 MK5      0.173500
     48 H8          3.9830   -3.1160    6.8090 h1        1 MK5      0.058200
     49 H9          3.2530   -1.4520    6.7260 h1        1 MK5      0.058200
     50 H10         2.3920   -1.9810    4.4030 hc        1 MK5      0.026700
     51 H11         2.3030   -4.4380    3.7570 hc        1 MK5      0.045700
     52 H12         3.5070   -4.7990    5.0550 hc        1 MK5      0.045700
     53 H13         3.9650   -3.7280    3.6600 hc        1 MK5      0.045700
     54 H14         1.2320   -2.3440    6.7170 hc        1 MK5      0.054700
     55 H15         1.5690   -4.1050    6.4870 hc        1 MK5      0.054700
     56 H16        -0.7170   -3.4660    5.7160 hc        1 MK5      0.046033
     57 H17         0.2750   -4.0740    4.3320 hc        1 MK5      0.046033
     58 H18        -0.0130   -2.2960    4.5270 hc        1 MK5      0.046033
     59 H19         5.5960   -3.6860    5.1190 h1        1 MK5      0.095700
     60 H20         6.5520   -2.3290    4.3390 h1        1 MK5      0.095700
     61 H21         7.3270   -1.6770    6.7660 h1        1 MK5      0.069700
     62 H22         5.7420   -3.1020    7.8210 ho        1 MK5      0.455000
     63 H23         8.8800   -2.7370    5.2170 hx        1 MK5      0.123700
     64 H24         7.3090   -5.3570    5.8490 hc        1 MK5      0.103700
     65 H25         7.4930   -4.4980    4.2590 hc        1 MK5      0.103700
     66 H26         8.9550   -6.9360    6.5560 ha        1 MK5      0.139500
     67 H27        10.9280   -8.3320    5.9670 ha        1 MK5      0.166000
     68 H28        12.2930   -7.7840    3.9460 ha        1 MK5      0.171000
     69 H29        11.6930   -5.8120    2.5330 ha        1 MK5      0.166000
     70 H30         9.7300   -4.4010    3.1270 ha        1 MK5      0.139500
     71 H31         8.7140   -3.9890    7.9090 hn        1 MK5      0.500300
     72 H32        12.7570   -1.6200    7.9180 h1        1 MK5      0.122700
     73 H33        11.3720   -0.8330    8.8400 h1        1 MK5      0.122700
     74 H34        12.8790   -1.2240   10.6120 hx        1 MK5      0.144200
     75 H35        11.7630   -2.6850   10.6940 hx        1 MK5      0.144200
     76 H36        14.5400   -2.5820    9.5880 hn        1 MK5      0.469800
     77 H37        15.6700   -3.6430   12.8990 h2        1 MK5      0.199700
     78 H111        5.2260   -0.9090    5.9740 hn        1 MK5      0.385800
     79 H202        9.9080   -4.4910    6.8310 hn        1 MK5      0.500300
     80 H252       13.5120   -3.8830    9.4070 hn        1 MK5      0.469800
@<TRIPOS>BOND
     1    1    2 1   
     2    1   41 1   
     3    1   42 1   
     4    1   43 1   
     5    2    3 1   
     6    3    4 ar  
     7    3    6 ar  
     8    4    5 ar  
     9    4   44 1   
    10    5    8 ar  
    11    5   45 1   
    12    6    7 ar  
    13    6   46 1   
    14    7    8 ar  
    15    7   47 1   
    16    8    9 1   
    17    9   10 1   
    18    9   11 1   
    19   12   13 1   
    20   12   18 1   
    21   12   78 1   
    22   13   14 1   
    23   13   48 1   
    24   13   49 1   
    25   14   15 1   
    26   14   16 1   
    27   14   50 1   
    28   15   51 1   
    29   15   52 1   
    30   15   53 1   
    31   16   17 1   
    32   16   54 1   
    33   16   55 1   
    34   17   56 1   
    35   17   57 1   
    36   17   58 1   
    37   18   19 1   
    38   18   59 1   
    39   18   60 1   
    40   19   20 1   
    41   19   21 1   
    42   19   61 1   
    43   20   62 1   
    44   21   22 1   
    45   21   29 1   
    46   21   63 1   
    47   22   23 1   
    48   22   64 1   
    49   22   65 1   
    50   23   24 ar  
    51   23   28 ar  
    52   24   25 ar  
    53   24   66 1   
    54   25   26 ar  
    55   25   67 1   
    56   26   27 ar  
    57   26   68 1   
    58   27   28 ar  
    59   27   69 1   
    60   28   70 1   
    61   29   30 1   
    62   29   71 1   
    63   29   79 1   
    64   30   31 2   
    65   30   32 1   
    66   32   33 1   
    67   33   34 1   
    68   33   72 1   
    69   33   73 1   
    70   34   35 1   
    71   34   74 1   
    72   34   75 1   
    73   35   36 1   
    74   35   76 1   
    75   35   80 1   
    76   36   37 2   
    77   36   38 1   
    78   38   39 1   
    79   38   40 1   
    80   38   77 1   
@<TRIPOS>SUBSTRUCTURE
     1 MK5         1 TEMP              0 ****  ****    0 ROOT
