@<TRIPOS>MOLECULE
MK5
   77    78     1     0     0
SMALL
bcc


@<TRIPOS>ATOM
      1 C1          8.1660   -2.4020    2.7070 c3        1 MK5      0.109700
      2 O1          6.7570   -2.3320    2.9100 os        1 MK5     -0.318900
      3 C2          6.1010   -1.2850    2.3110 ca        1 MK5      0.190100
      4 C7          4.7140   -1.2270    2.5670 ca        1 MK5     -0.211000
      5 C6          3.9680   -0.2070    1.9990 ca        1 MK5      0.017500
      6 C3          6.7160   -0.3220    1.4980 ca        1 MK5     -0.211000
      7 C4          5.9390    0.6880    0.9420 ca        1 MK5      0.017500
      8 C5          4.5610    0.7620    1.1730 ca        1 MK5     -0.427500
      9 S8          3.6490    2.0160    0.5270 sy        1 MK5      1.511200
     10 O9          2.4910    2.1770    1.3200 o         1 MK5     -0.654300
     11 O10         4.4710    3.1530    0.3700 o         1 MK5     -0.654300
     12 N11         3.2150    1.4430   -0.9490 n3        1 MK5     -0.799500
     13 C12         3.6950    2.0500   -2.1630 c3        1 MK5      0.221800
     14 C13         4.9770    1.4380   -2.7610 c3        1 MK5     -0.085700
     15 C14         4.7620    0.0100   -3.2080 c3        1 MK5     -0.090100
     16 C15         5.4230    2.3150   -3.9260 c3        1 MK5     -0.077400
     17 C18         6.8650    2.0840   -4.2980 c3        1 MK5     -0.092100
     18 C16         2.2500    0.3890   -1.0710 c3        1 MK5      0.198800
     19 C17         0.7780    0.8570   -1.0220 c3        1 MK5      0.072100
     20 O18         0.4360    1.6810   -2.1170 oh        1 MK5     -0.585800
     21 C19        -0.1650   -0.3770   -0.9250 c3        1 MK5      0.074700
     22 C32        -0.2820   -1.0670   -2.2980 c3        1 MK5     -0.042100
     23 C38        -0.9400   -2.3980   -2.2120 ca        1 MK5     -0.079300
     24 C33        -2.2130   -2.5970   -2.7580 ca        1 MK5     -0.120500
     25 C34        -2.8170   -3.8520   -2.6920 ca        1 MK5     -0.126000
     26 C35        -2.1560   -4.9170   -2.0830 ca        1 MK5     -0.127000
     27 C36        -0.8870   -4.7250   -1.5370 ca        1 MK5     -0.126000
     28 C37        -0.2800   -3.4720   -1.6020 ca        1 MK5     -0.120500
     29 N20        -1.4710   -0.0130   -0.4130 n         1 MK5     -0.512900
     30 C21        -1.7480   -0.2080    0.9270 c         1 MK5      0.737100
     31 O22        -1.1590   -0.9380    1.7420 o         1 MK5     -0.584000
     32 O23        -2.8740    0.4760    1.3450 os        1 MK5     -0.455900
     33 C23        -3.2820    0.2020    2.6970 c3        1 MK5      0.123400
     34 C24        -4.4860    1.1120    2.9660 c3        1 MK5      0.083000
     35 N25        -5.6500    0.8090    2.1800 n         1 MK5     -0.541900
     36 C26        -6.7820    0.2610    2.7280 c         1 MK5      0.653100
     37 O27        -6.9450    0.0990    3.9510 o         1 MK5     -0.581100
     38 C28        -7.9150   -0.1210    1.7710 c3        1 MK5      0.056100
     39 CL2        -8.4960    1.2850    0.9080 cl        1 MK5     -0.129400
     40 CL1        -7.3850   -1.3780    0.6730 cl        1 MK5     -0.129400
     41 H1          8.4000   -2.5390    1.6230 h1        1 MK5      0.051367
     42 H2          8.6670   -1.4870    3.1060 h1        1 MK5      0.051367
     43 H3          8.4660   -3.3070    3.2950 h1        1 MK5      0.051367
     44 H4          4.2510   -1.9840    3.2150 ha        1 MK5      0.153500
     45 H5          2.8850   -0.1410    2.2150 ha        1 MK5      0.157000
     46 H6          7.7970   -0.3520    1.3020 ha        1 MK5      0.153500
     47 H7          6.4210    1.4600    0.3140 ha        1 MK5      0.157000
     48 H8          2.8820    2.0100   -2.9440 h1        1 MK5      0.062200
     49 H9          3.9030    3.1410   -1.9450 h1        1 MK5      0.062200
     50 H10         5.7840    1.4530   -1.9750 hc        1 MK5      0.050700
     51 H11         3.8960   -0.0580   -3.9110 hc        1 MK5      0.034367
     52 H12         5.6700   -0.3720   -3.7350 hc        1 MK5      0.034367
     53 H13         4.5650   -0.6530   -2.3320 hc        1 MK5      0.034367
     54 H14         4.7660    2.1140   -4.8130 hc        1 MK5      0.043700
     55 H15         5.2900    3.3960   -3.6510 hc        1 MK5      0.043700
     56 H16         7.1580    2.7640   -5.1340 hc        1 MK5      0.035033
     57 H17         7.5360    2.2880   -3.4280 hc        1 MK5      0.035033
     58 H18         7.0320    1.0300   -4.6290 hc        1 MK5      0.035033
     59 H19         2.4210   -0.1700   -2.0350 h1        1 MK5      0.056200
     60 H20         2.4080   -0.3370   -0.2180 h1        1 MK5      0.056200
     61 H21         0.6280    1.5280   -0.1210 h1        1 MK5      0.118700
     62 H22         0.6890    1.2180   -2.9250 ho        1 MK5      0.396000
     63 H23         0.2960   -1.1130   -0.1980 h1        1 MK5      0.095700
     64 H24        -0.8440   -0.4040   -3.0100 hc        1 MK5      0.052700
     65 H25         0.7570   -1.1980   -2.7040 hc        1 MK5      0.052700
     66 H26        -2.7420   -1.7590   -3.2360 ha        1 MK5      0.129000
     67 H27        -3.8190   -3.9990   -3.1220 ha        1 MK5      0.132500
     68 H28        -2.6350   -5.9060   -2.0300 ha        1 MK5      0.132000
     69 H29        -0.3640   -5.5620   -1.0510 ha        1 MK5      0.132500
     70 H30         0.7190   -3.3240   -1.1670 ha        1 MK5      0.129000
     71 H31        -1.9310    0.7440   -0.8690 hn        1 MK5      0.324500
     72 H32        -3.5280   -0.8870    2.7900 h1        1 MK5      0.069200
     73 H33        -2.4420    0.4580    3.3940 h1        1 MK5      0.069200
     74 H34        -4.7390    1.0260    4.0620 h1        1 MK5      0.080200
     75 H35        -4.1860    2.1760    2.7400 h1        1 MK5      0.080200
     76 H36        -5.5340    0.8070    1.1920 hn        1 MK5      0.330500
     77 H37        -8.7730   -0.5310    2.3620 h2        1 MK5      0.131700
@<TRIPOS>BOND
     1    1    2 1   
     2    1   41 1   
     3    1   42 1   
     4    1   43 1   
     5    2    3 1   
     6    3    4 ar  
     7    3    6 ar  
     8    4    5 ar  
     9    4   44 1   
    10    5    8 ar  
    11    5   45 1   
    12    6    7 ar  
    13    6   46 1   
    14    7    8 ar  
    15    7   47 1   
    16    8    9 1   
    17    9   10 2   
    18    9   11 2   
    19    9   12 1   
    20   12   13 1   
    21   12   18 1   
    22   13   14 1   
    23   13   48 1   
    24   13   49 1   
    25   14   15 1   
    26   14   16 1   
    27   14   50 1   
    28   15   51 1   
    29   15   52 1   
    30   15   53 1   
    31   16   17 1   
    32   16   54 1   
    33   16   55 1   
    34   17   56 1   
    35   17   57 1   
    36   17   58 1   
    37   18   19 1   
    38   18   59 1   
    39   18   60 1   
    40   19   20 1   
    41   19   21 1   
    42   19   61 1   
    43   20   62 1   
    44   21   22 1   
    45   21   29 1   
    46   21   63 1   
    47   22   23 1   
    48   22   64 1   
    49   22   65 1   
    50   23   24 ar  
    51   23   28 ar  
    52   24   25 ar  
    53   24   66 1   
    54   25   26 ar  
    55   25   67 1   
    56   26   27 ar  
    57   26   68 1   
    58   27   28 ar  
    59   27   69 1   
    60   28   70 1   
    61   29   30 1   
    62   29   71 1   
    63   30   31 2   
    64   30   32 1   
    65   32   33 1   
    66   33   34 1   
    67   33   72 1   
    68   33   73 1   
    69   34   35 1   
    70   34   74 1   
    71   34   75 1   
    72   35   36 1   
    73   35   76 1   
    74   36   37 2   
    75   36   38 1   
    76   38   39 1   
    77   38   40 1   
    78   38   77 1   
@<TRIPOS>SUBSTRUCTURE
     1 MK5         1 TEMP              0 ****  ****    0 ROOT
