@<TRIPOS>MOLECULE
MK7
   46    47     1     0     0
SMALL
bcc


@<TRIPOS>ATOM
      1 C4         -0.1620    1.2820   -0.1700 c3        1 MK7     -0.096400
      2 C5          6.8080   -2.7540    1.4550 c3        1 MK7      0.170300
      3 C6          7.2930   -0.8550    2.8720 c3        1 MK7      0.170300
      4 C7         -0.0610    2.4220    2.1120 c3        1 MK7      0.059000
      5 C8          1.9720    3.5610    1.3140 c         1 MK7      0.635900
      6 C10         1.7780    1.0730    1.4210 c3        1 MK7      0.007700
      7 C1          1.2000    0.6530    0.0530 c3        1 MK7     -0.115400
      8 C2          5.3060   -2.4500    1.4780 c3        1 MK7     -0.101400
      9 C3          5.8120   -0.4730    2.9490 c3        1 MK7     -0.101400
     10 C9          5.0980   -0.9440    1.6780 c3        1 MK7      0.127500
     11 C11         3.2830    0.8100    1.4130 c         1 MK7      0.552100
     12 C12        -0.9220    1.5910    1.1200 c3        1 MK7      0.098500
     13 N13         7.4800   -2.2710    2.6410 n3        1 MK7     -0.832200
     14 N14         3.6280   -0.6180    1.7180 n4        1 MK7     -0.665800
     15 N15        -1.5130    0.3380    1.7550 n4        1 MK7     -0.443500
     16 N16         1.3670    2.3980    1.8360 n         1 MK7     -0.458800
     17 O17        -0.8180   -2.1630    0.9120 o         1 MK7     -0.709200
     18 O18         1.3620    4.6330    1.2640 o         1 MK7     -0.530100
     19 O19         4.1900    1.5930    1.1730 o         1 MK7     -0.429100
     20 O20        -0.5890   -2.7250    3.2210 o         1 MK7     -0.709200
     21 O21         1.2250   -1.8260    1.9930 o         1 MK7     -0.709200
     22 O22        -0.6370   -0.3610    2.4470 os        1 MK7     -0.446000
     23 S23        -0.1290   -2.1240    2.1000 s6        1 MK7      1.741300
     24 H1         -0.0430    2.2620   -0.7100 hc        1 MK7      0.092700
     25 H2         -0.7680    0.6130   -0.8400 hc        1 MK7      0.092700
     26 H3          7.2390   -2.3210    0.5040 h1        1 MK7      0.054200
     27 H4          6.9410   -3.8730    1.4160 h1        1 MK7      0.054200
     28 H5          7.7760   -0.6010    3.8580 h1        1 MK7      0.054200
     29 H6          7.7790   -0.2170    2.0740 h1        1 MK7      0.054200
     30 H7         -0.2070    2.0420    3.1650 h1        1 MK7      0.108700
     31 H8         -0.4200    3.4920    2.0680 h1        1 MK7      0.108700
     32 H9          3.0450    3.4480    1.0370 h5        1 MK7      0.074200
     33 H10         1.3340    0.3760    2.2150 h1        1 MK7      0.144700
     34 H11         1.8830    0.9560   -0.7820 hc        1 MK7      0.080700
     35 H12         1.1080   -0.4680    0.0450 hc        1 MK7      0.080700
     36 H13         4.8620   -2.7860    0.5060 hc        1 MK7      0.072950
     37 H14         4.8180   -3.0260    2.3090 hc        1 MK7      0.072950
     38 H15         5.3510   -0.9450    3.8570 hc        1 MK7      0.072950
     39 H16         5.7370    0.6420    3.0460 hc        1 MK7      0.072950
     40 H17         5.5290   -0.3890    0.7900 hx        1 MK7      0.106700
     41 H18        -1.8340    2.2080    0.8520 hx        1 MK7      0.104700
     42 H19         8.4530   -2.5120    2.6310 hn        1 MK7      0.399800
     43 H21         3.1120   -1.2250    1.0560 hn        1 MK7      0.487300
     44 H22        -1.9200   -0.2510    0.9930 hn        1 MK7      0.453300
     45 H142        3.2440   -0.8550    2.6480 hn        1 MK7      0.487300
     46 H152       -2.2670    0.6350    2.4030 hn        1 MK7      0.453300
@<TRIPOS>BOND
     1    1    7 1   
     2    1   12 1   
     3    1   24 1   
     4    1   25 1   
     5    2    8 1   
     6    2   13 1   
     7    2   26 1   
     8    2   27 1   
     9    3    9 1   
    10    3   13 1   
    11    3   28 1   
    12    3   29 1   
    13    4   12 1   
    14    4   16 1   
    15    4   30 1   
    16    4   31 1   
    17    5   16 1   
    18    5   18 2   
    19    5   32 1   
    20    6    7 1   
    21    6   11 1   
    22    6   16 1   
    23    6   33 1   
    24    7   34 1   
    25    7   35 1   
    26    8   10 1   
    27    8   36 1   
    28    8   37 1   
    29    9   10 1   
    30    9   38 1   
    31    9   39 1   
    32   10   14 1   
    33   10   40 1   
    34   11   14 1   
    35   11   19 2   
    36   12   15 1   
    37   12   41 1   
    38   13   42 1   
    39   14   43 1   
    40   14   45 1   
    41   15   22 1   
    42   15   44 1   
    43   15   46 1   
    44   17   23 1   
    45   20   23 1   
    46   21   23 1   
    47   22   23 1   
@<TRIPOS>SUBSTRUCTURE
     1 MK7         1 TEMP              0 ****  ****    0 ROOT
