@<TRIPOS>MOLECULE
MK7
   46    47     1     0     0
SMALL
bcc


@<TRIPOS>ATOM
      1 C4         -0.0100    1.5100   -0.2280 c3        1 MK7     -0.096400
      2 C5          6.7270   -2.8690    1.4830 c3        1 MK7      0.170300
      3 C6          7.1780   -1.1050    3.0740 c3        1 MK7      0.170300
      4 C7         -0.0190    2.4660    2.1400 c3        1 MK7      0.059000
      5 C8          2.0910    3.5950    1.5590 c         1 MK7      0.635900
      6 C10         1.8210    1.1140    1.4560 c3        1 MK7      0.007700
      7 C1          1.3170    0.8200    0.0270 c3        1 MK7     -0.115400
      8 C2          5.2360   -2.5180    1.4410 c3        1 MK7     -0.101400
      9 C3          5.7060   -0.6800    3.0940 c3        1 MK7     -0.101400
     10 C9          5.0590   -1.0260    1.7490 c3        1 MK7      0.127500
     11 C11         3.3140    0.8030    1.5170 c         1 MK7      0.552100
     12 C12        -0.8400    1.7430    1.0360 c3        1 MK7      0.098500
     13 N13         7.3380   -2.5030    2.7420 n7        1 MK7     -0.832200
     14 N14         3.6000   -0.6550    1.7280 ny        1 MK7     -0.665800
     15 N15        -1.5040    0.4660    1.5320 ny        1 MK7     -0.443500
     16 N16         1.4220    2.4160    1.9500 n         1 MK7     -0.458800
     17 O17        -0.8300   -1.9850    0.5370 o         1 MK7     -0.709200
     18 O18         1.5160    4.6870    1.5570 o         1 MK7     -0.530100
     19 O19         4.2570    1.5710    1.3960 o         1 MK7     -0.429100
     20 O20        -0.7610   -2.7310    2.8040 o         1 MK7     -0.709200
     21 O21         1.1510   -1.8000    1.7620 o         1 MK7     -0.709200
     22 O22        -0.6930   -0.3140    2.2180 os        1 MK7     -0.446000
     23 S23        -0.2150   -2.0610    1.7640 s6        1 MK7      1.741300
     24 H1         -0.5920    0.9150   -0.9830 hc        1 MK7      0.092700
     25 H2          0.1710    2.5250   -0.6790 hc        1 MK7      0.092700
     26 H3          6.8310   -3.9850    1.3620 h1        1 MK7      0.054200
     27 H4          7.2290   -2.3760    0.5970 h1        1 MK7      0.054200
     28 H5          7.7300   -0.4220    2.3620 h1        1 MK7      0.054200
     29 H6          7.6060   -0.9460    4.1050 h1        1 MK7      0.054200
     30 H7         -0.3440    3.5480    2.1590 h1        1 MK7      0.108700
     31 H8         -0.2410    2.0110    3.1490 h1        1 MK7      0.108700
     32 H9          3.1760    3.4680    1.3380 h5        1 MK7      0.074200
     33 H10         1.3080    0.3730    2.1640 h1        1 MK7      0.144700
     34 H11         1.1940   -0.2930   -0.0760 hc        1 MK7      0.080700
     35 H12         2.0600    1.1640   -0.7390 hc        1 MK7      0.080700
     36 H13         4.8440   -2.7610    0.4190 hc        1 MK7      0.072950
     37 H14         4.6820   -3.1400    2.1920 hc        1 MK7      0.072950
     38 H15         5.1760   -1.2070    3.9310 hc        1 MK7      0.072950
     39 H16         5.6570    0.4250    3.2760 hc        1 MK7      0.072950
     40 H17         5.5600   -0.4170    0.9360 hx        1 MK7      0.106700
     41 H18        -1.7160    2.4090    0.7620 hx        1 MK7      0.104700
     42 H19         8.3030   -2.7750    2.7700 hn        1 MK7      0.399800
     43 H21         3.1520   -0.9510    2.6110 hn        1 MK7      0.487300
     44 H22        -1.8800   -0.0490    0.7030 hn        1 MK7      0.453300
     45 H142        3.1080   -1.1910    0.9900 hn        1 MK7      0.487300
     46 H152       -2.2890    0.7360    2.1560 hn        1 MK7      0.453300
@<TRIPOS>BOND
     1    1    7 1   
     2    1   12 1   
     3    1   24 1   
     4    1   25 1   
     5    2    8 1   
     6    2   13 1   
     7    2   26 1   
     8    2   27 1   
     9    3    9 1   
    10    3   13 1   
    11    3   28 1   
    12    3   29 1   
    13    4   12 1   
    14    4   16 1   
    15    4   30 1   
    16    4   31 1   
    17    5   16 1   
    18    5   18 2   
    19    5   32 1   
    20    6    7 1   
    21    6   11 1   
    22    6   16 1   
    23    6   33 1   
    24    7   34 1   
    25    7   35 1   
    26    8   10 1   
    27    8   36 1   
    28    8   37 1   
    29    9   10 1   
    30    9   38 1   
    31    9   39 1   
    32   10   14 1   
    33   10   40 1   
    34   11   14 1   
    35   11   19 2   
    36   12   15 1   
    37   12   41 1   
    38   13   42 1   
    39   14   43 1   
    40   14   45 1   
    41   15   22 1   
    42   15   44 1   
    43   15   46 1   
    44   17   23 1   
    45   20   23 1   
    46   21   23 1   
    47   22   23 1   
@<TRIPOS>SUBSTRUCTURE
     1 MK7         1 TEMP              0 ****  ****    0 ROOT
