@<TRIPOS>MOLECULE
MK7
   46    47     1     0     0
SMALL
bcc


@<TRIPOS>ATOM
      1 C4         -0.0840    1.3920   -0.2140 c3        1 MK7     -0.096400
      2 C5          6.7080   -2.8980    1.5130 c3        1 MK7      0.170300
      3 C6          7.2350   -1.0240    2.9470 c3        1 MK7      0.170300
      4 C7          0.0170    2.5150    2.0760 c3        1 MK7      0.059000
      5 C8          2.1030    3.5860    1.3210 c         1 MK7      0.635900
      6 C10         1.8190    1.1050    1.4100 c3        1 MK7      0.007700
      7 C1          1.2510    0.7140    0.0300 c3        1 MK7     -0.115400
      8 C2          5.2180   -2.5410    1.5110 c3        1 MK7     -0.101400
      9 C3          5.7670   -0.5890    3.0010 c3        1 MK7     -0.101400
     10 C9          5.0600   -1.0300    1.7150 c3        1 MK7      0.127500
     11 C11         3.3130    0.7900    1.4270 c         1 MK7      0.552100
     12 C12        -0.8550    1.7210    1.0640 c3        1 MK7      0.098500
     13 N13         7.3760   -2.4440    2.7130 n3        1 MK7     -0.832200
     14 N14         3.6020   -0.6510    1.7300 n4        1 MK7     -0.665800
     15 N15        -1.5020    0.4870    1.6810 n4        1 MK7     -0.443500
     16 N16         1.4480    2.4420    1.8260 n         1 MK7     -0.458800
     17 O17        -0.8810   -2.0330    0.8350 o         1 MK7     -0.709200
     18 O18         1.5320    4.6780    1.2660 o         1 MK7     -0.530100
     19 O19         4.2520    1.5400    1.2070 o         1 MK7     -0.429100
     20 O20        -0.7140   -2.6150    3.1450 o         1 MK7     -0.709200
     21 O21         1.1530   -1.7750    1.9550 o         1 MK7     -0.709200
     22 O22        -0.6630   -0.2460    2.3840 os        1 MK7     -0.446000
     23 S23        -0.2130   -2.0250    2.0360 s6        1 MK7      1.741300
     24 H1         -0.7010    0.7490   -0.8990 hc        1 MK7      0.092700
     25 H2          0.0800    2.3710   -0.7460 hc        1 MK7      0.092700
     26 H3          7.1710   -2.4760    0.5720 h1        1 MK7      0.054200
     27 H4          6.8020   -4.0210    1.4710 h1        1 MK7      0.054200
     28 H5          7.7570   -0.4000    2.1620 h1        1 MK7      0.054200
     29 H6          7.7090   -0.7920    3.9430 h1        1 MK7      0.054200
     30 H7         -0.3030    3.5990    2.0320 h1        1 MK7      0.108700
     31 H8         -0.1610    2.1360    3.1240 h1        1 MK7      0.108700
     32 H9          3.1760    3.4360    1.0620 h5        1 MK7      0.074200
     33 H10         1.3360    0.4200    2.1910 h1        1 MK7      0.144700
     34 H11         1.1190   -0.4030    0.0130 hc        1 MK7      0.080700
     35 H12         1.9590    0.9960   -0.7910 hc        1 MK7      0.080700
     36 H13         4.6950   -3.1030    2.3300 hc        1 MK7      0.072950
     37 H14         4.7790   -2.8570    0.5290 hc        1 MK7      0.072950
     38 H15         5.2740   -1.0490    3.8970 hc        1 MK7      0.072950
     39 H16         5.7300    0.5270    3.1010 hc        1 MK7      0.072950
     40 H17         5.5260   -0.4860    0.8380 hx        1 MK7      0.106700
     41 H18        -1.7400    2.3720    0.7830 hx        1 MK7      0.104700
     42 H19         8.3390   -2.7200    2.7180 hn        1 MK7      0.399800
     43 H21         3.1930   -0.8790    2.6520 hn        1 MK7      0.487300
     44 H22        -1.9160   -0.0830    0.9080 hn        1 MK7      0.453300
     45 H142        3.0760   -1.2360    1.0560 hn        1 MK7      0.487300
     46 H152       -2.2560    0.8070    2.3170 hn        1 MK7      0.453300
@<TRIPOS>BOND
     1    1    7 1   
     2    1   12 1   
     3    1   24 1   
     4    1   25 1   
     5    2    8 1   
     6    2   13 1   
     7    2   26 1   
     8    2   27 1   
     9    3    9 1   
    10    3   13 1   
    11    3   28 1   
    12    3   29 1   
    13    4   12 1   
    14    4   16 1   
    15    4   30 1   
    16    4   31 1   
    17    5   16 1   
    18    5   18 2   
    19    5   32 1   
    20    6    7 1   
    21    6   11 1   
    22    6   16 1   
    23    6   33 1   
    24    7   34 1   
    25    7   35 1   
    26    8   10 1   
    27    8   36 1   
    28    8   37 1   
    29    9   10 1   
    30    9   38 1   
    31    9   39 1   
    32   10   14 1   
    33   10   40 1   
    34   11   14 1   
    35   11   19 2   
    36   12   15 1   
    37   12   41 1   
    38   13   42 1   
    39   14   43 1   
    40   14   45 1   
    41   15   22 1   
    42   15   44 1   
    43   15   46 1   
    44   17   23 1   
    45   20   23 1   
    46   21   23 1   
    47   22   23 1   
@<TRIPOS>SUBSTRUCTURE
     1 MK7         1 TEMP              0 ****  ****    0 ROOT
