@<TRIPOS>MOLECULE
MK8
   24    22     1     0     0
SMALL
bcc


@<TRIPOS>ATOM
      1 C           1.4500   -0.9550    1.3240 c1        1 MK8      0.777000
      2 N          -0.5370   -0.9550    2.6640 nh        1 MK8     -0.473100
      3 O           2.0790   -1.8390    0.6850 o         1 MK8     -0.810500
      4 CA         -0.0630   -0.9550    1.3240 c2        1 MK8      0.127300
      5 CB         -0.5670    0.2790    0.6110 c3        1 MK8     -0.118700
      6 CD         -0.2810    1.7180   -1.3760 c3        1 MK8     -0.076400
      7 CE          0.4060    1.8450   -2.7180 c3        1 MK8     -0.087100
      8 CG          0.1940    0.4590   -0.6840 c3        1 MK8     -0.093400
      9 CB1        -0.5670   -2.1900    0.6110 c3        1 MK8     -0.139400
     10 O2          2.0790   -0.0720    1.9620 o         1 MK8     -0.810500
     11 HN         -1.4440   -1.0470    2.6660 hn        1 MK8      0.176200
     12 HNA        -0.3100   -0.1690    3.0670 hn        1 MK8      0.176200
     13 HB         -1.5190    0.1770    0.4180 hc        1 MK8      0.023200
     14 HBA        -0.4320    1.0610    1.1800 hc        1 MK8      0.023200
     15 HD         -1.2470    1.6780   -1.5080 hc        1 MK8      0.026200
     16 HDA        -0.0590    2.4920   -0.8230 hc        1 MK8      0.026200
     17 HE          0.1990    1.0630   -3.2650 hc        1 MK8      0.022033
     18 HEA         0.0910    2.6510   -3.1700 hc        1 MK8      0.022033
     19 HEB         1.3720    1.9030   -2.5850 hc        1 MK8      0.022033
     20 HG          1.1480    0.5330   -0.4930 hc        1 MK8      0.061200
     21 HGA         0.0360   -0.3100   -1.2640 hc        1 MK8      0.061200
     22 HB1        -1.5270   -2.1060    0.4550 hc        1 MK8      0.022367
     23 HB1A       -0.3950   -2.9770    1.1620 hc        1 MK8      0.022367
     24 HB1B       -0.1050   -2.2840   -0.2430 hc        1 MK8      0.022367
@<TRIPOS>BOND
     1    1    3 2   
     2    1   10 2   
     3    2    4 2   
     4    2   11 1   
     5    2   12 1   
     6    4    5 1   
     7    4    9 1   
     8    5    8 1   
     9    5   13 1   
    10    5   14 1   
    11    6    7 1   
    12    6    8 1   
    13    6   15 1   
    14    6   16 1   
    15    7   17 1   
    16    7   18 1   
    17    7   19 1   
    18    8   20 1   
    19    8   21 1   
    20    9   22 1   
    21    9   23 1   
    22    9   24 1   
@<TRIPOS>SUBSTRUCTURE
     1 MK8         1 TEMP              0 ****  ****    0 ROOT
