@<TRIPOS>MOLECULE
MK8
   24    23     1     0     0
SMALL
bcc


@<TRIPOS>ATOM
      1 C           1.9760   -0.4910   -0.0130 c         1 MK8      0.891600
      2 N           0.7460    1.5560   -0.8760 n3        1 MK8     -0.882800
      3 O           2.0310   -1.4860    0.7590 o         1 MK8     -0.841300
      4 CA          0.7130    0.4570    0.1000 c3        1 MK8      0.024200
      5 CB         -0.5100   -0.4500   -0.1160 c3        1 MK8     -0.055400
      6 CD         -2.9910   -0.7090   -0.2200 c3        1 MK8     -0.082400
      7 CE         -4.3270   -0.0250   -0.0880 c3        1 MK8     -0.087100
      8 CG         -1.8430    0.2550    0.0060 c3        1 MK8     -0.074400
      9 CB1         0.7130    0.9980    1.5320 c3        1 MK8     -0.062100
     10 O2          2.8600   -0.1970   -0.8670 o         1 MK8     -0.841300
     11 HN          1.6180    2.0400   -0.7430 hn        1 MK8      0.330800
     12 HNA         0.7950    1.1390   -1.7890 hn        1 MK8      0.330800
     13 HB         -0.4340   -0.9240   -1.1300 hc        1 MK8      0.043700
     14 HBA        -0.4420   -1.2760    0.6420 hc        1 MK8      0.043700
     15 HD         -2.9240   -1.5500    0.5200 hc        1 MK8      0.032200
     16 HDA        -2.9000   -1.1630   -1.2420 hc        1 MK8      0.032200
     17 HE         -5.1590   -0.7500   -0.2620 hc        1 MK8      0.020700
     18 HEA        -4.4470    0.4100    0.9330 hc        1 MK8      0.020700
     19 HEB        -4.4200    0.8030   -0.8320 hc        1 MK8      0.020700
     20 HG         -1.9390    0.7110    1.0260 hc        1 MK8      0.036700
     21 HGA        -1.9070    1.0910   -0.7380 hc        1 MK8      0.036700
     22 HB1         1.6520    1.5700    1.7280 hc        1 MK8      0.021367
     23 HB1A       -0.1570    1.6700    1.7210 hc        1 MK8      0.021367
     24 HB1B        0.6740    0.1320    2.2350 hc        1 MK8      0.021367
@<TRIPOS>BOND
     1    1    3 1   
     2    1    4 1   
     3    1   10 1   
     4    2    4 1   
     5    2   11 1   
     6    2   12 1   
     7    4    5 1   
     8    4    9 1   
     9    5    8 1   
    10    5   13 1   
    11    5   14 1   
    12    6    7 1   
    13    6    8 1   
    14    6   15 1   
    15    6   16 1   
    16    7   17 1   
    17    7   18 1   
    18    7   19 1   
    19    8   20 1   
    20    8   21 1   
    21    9   22 1   
    22    9   23 1   
    23    9   24 1   
@<TRIPOS>SUBSTRUCTURE
     1 MK8         1 TEMP              0 ****  ****    0 ROOT
