@<TRIPOS>MOLECULE
MKC
   44    45     1     0     0
SMALL
bcc


@<TRIPOS>ATOM
      1 C1         -0.0660   -0.1640    0.1460 ca        1 MKC     -0.084300
      2 C2          0.9080   -1.0670    0.5880 ca        1 MKC     -0.120000
      3 C3          1.3790   -1.0060    1.8980 ca        1 MKC     -0.129000
      4 C4          0.8870   -0.0400    2.7760 ca        1 MKC     -0.124000
      5 C5         -0.0740    0.8700    2.3370 ca        1 MKC     -0.129000
      6 C6         -0.5490    0.8110    1.0280 ca        1 MKC     -0.120000
      7 C7         -1.0910   -1.5440   -1.6730 cc        1 MKC      0.111400
      8 N8         -0.3330   -2.3460   -2.5400 n         1 MKC     -0.407000
      9 C9         -0.7160   -3.6920   -2.7790 c         1 MKC      0.803500
     10 O9          0.0440   -4.4760   -3.3940 o         1 MKC     -0.658500
     11 N10        -1.9670   -4.1220   -2.3350 n         1 MKC     -0.582500
     12 C11        -2.8450   -3.2860   -1.6230 c         1 MKC      0.720700
     13 O11        -3.9810   -3.7300   -1.3830 o         1 MKC     -0.612500
     14 C12        -2.3200   -1.9650   -1.2240 cd        1 MKC     -0.241400
     15 C13        -0.5410   -0.1960   -1.2680 c3        1 MKC     -0.005900
     16 C14        -3.1960   -1.1510   -0.3240 c3        1 MKC      0.000500
     17 C15        -4.4470   -0.7010   -1.0580 c3        1 MKC     -0.095600
     18 C16        -3.5640   -1.9100    0.9380 c3        1 MKC     -0.095600
     19 C17         0.8580   -1.8710   -3.2340 c3        1 MKC      0.290800
     20 O17         2.0010   -1.7810   -2.4020 os        1 MKC     -0.430600
     21 C18         2.6890   -3.0250   -2.2200 c3        1 MKC      0.121400
     22 C19         3.8430   -2.7510   -1.2860 c3        1 MKC     -0.100100
     23 H2          1.3120   -1.8150   -0.1150 ha        1 MKC      0.139500
     24 H3          2.1430   -1.7220    2.2370 ha        1 MKC      0.133000
     25 H4          1.2590    0.0060    3.8100 ha        1 MKC      0.133000
     26 H5         -0.4590    1.6380    3.0240 ha        1 MKC      0.133000
     27 H6         -1.3050    1.5360    0.6890 ha        1 MKC      0.139500
     28 HN1        -2.2430   -5.0520   -2.5680 hn        1 MKC      0.353500
     29 H131        0.3270    0.1190   -1.9100 hc        1 MKC      0.075200
     30 H132       -1.3530    0.5660   -1.4310 hc        1 MKC      0.075200
     31 H14        -2.6350   -0.2280    0.0030 hc        1 MKC      0.050700
     32 H151       -5.0770   -0.0770   -0.3800 hc        1 MKC      0.042700
     33 H152       -4.1760   -0.0940   -1.9550 hc        1 MKC      0.042700
     34 H153       -5.0440   -1.5860   -1.3880 hc        1 MKC      0.042700
     35 H161       -4.2080   -2.7910    0.6990 hc        1 MKC      0.042700
     36 H162       -4.1270   -1.2360    1.6280 hc        1 MKC      0.042700
     37 H163       -2.6450   -2.2680    1.4600 hc        1 MKC      0.042700
     38 H171        1.0550   -2.5590   -4.1090 h2        1 MKC      0.085700
     39 H172        0.6870   -0.8150   -3.5920 h2        1 MKC      0.085700
     40 H181        3.0510   -3.3900   -3.2180 h1        1 MKC      0.043200
     41 H182        1.9830   -3.7860   -1.7920 h1        1 MKC      0.043200
     42 H191        4.5140   -1.9680   -1.7130 hc        1 MKC      0.047367
     43 H192        4.4250   -3.6920   -1.1370 hc        1 MKC      0.047367
     44 H193        3.4700   -2.3910   -0.2960 hc        1 MKC      0.047367
@<TRIPOS>BOND
     1    1    2 ar  
     2    1    6 ar  
     3    1   15 1   
     4    2    3 ar  
     5    2   23 1   
     6    3    4 ar  
     7    3   24 1   
     8    4    5 ar  
     9    4   25 1   
    10    5    6 ar  
    11    5   26 1   
    12    6   27 1   
    13    7    8 1   
    14    7   14 2   
    15    7   15 1   
    16    8    9 1   
    17    8   19 1   
    18    9   10 2   
    19    9   11 1   
    20   11   12 1   
    21   11   28 1   
    22   12   13 2   
    23   12   14 1   
    24   14   16 1   
    25   15   29 1   
    26   15   30 1   
    27   16   17 1   
    28   16   18 1   
    29   16   31 1   
    30   17   32 1   
    31   17   33 1   
    32   17   34 1   
    33   18   35 1   
    34   18   36 1   
    35   18   37 1   
    36   19   20 1   
    37   19   38 1   
    38   19   39 1   
    39   20   21 1   
    40   21   22 1   
    41   21   40 1   
    42   21   41 1   
    43   22   42 1   
    44   22   43 1   
    45   22   44 1   
@<TRIPOS>SUBSTRUCTURE
     1 MKC         1 TEMP              0 ****  ****    0 ROOT
