@<TRIPOS>MOLECULE
MKC
   44    41     1     0     0
SMALL
bcc


@<TRIPOS>ATOM
      1 C1          0.5770   -1.3610    1.7280 c1        1 MKC     -0.088000
      2 C2          1.3190   -2.4350    2.2000 c1        1 MKC     -0.125500
      3 C3          1.9730   -2.3370    3.4040 c1        1 MKC     -0.125500
      4 C4          1.8910   -1.1730    4.1400 c1        1 MKC     -0.125500
      5 C5          1.1550   -0.1130    3.6680 c1        1 MKC     -0.125500
      6 C6          0.4990   -0.2090    2.4630 c1        1 MKC     -0.119000
      7 C7         -0.5350    0.0050   -0.1480 c1        1 MKC      0.109000
      8 N8          0.4290    0.7610   -0.8620 n2        1 MKC     -0.292000
      9 C9          0.1560    2.1660   -1.2020 c2        1 MKC      0.399000
     10 O9          1.0780    2.9110   -1.4590 o         1 MKC     -0.354000
     11 N10        -1.1900    2.7110   -1.0180 n         1 MKC     -0.365000
     12 C11        -2.1990    1.9200   -0.4000 c2        1 MKC      0.359000
     13 O11        -3.2900    2.3310   -0.3180 o         1 MKC     -0.343000
     14 C12        -1.8920    0.5390    0.0350 c2        1 MKC     -0.230000
     15 C13        -0.1700   -1.4680    0.3810 c3        1 MKC     -0.106000
     16 C14        -3.0370   -0.4080    0.4430 c3        1 MKC     -0.042000
     17 C15        -3.9270   -0.7410   -0.8390 c3        1 MKC     -0.214500
     18 C16        -3.8790    0.2400    1.4740 c3        1 MKC     -0.214500
     19 C17         1.6680    0.1220   -1.3300 c3        1 MKC      0.099000
     20 O17         2.2860    0.9450   -2.2560 os        1 MKC     -0.268000
     21 C18         3.1360    0.2740   -3.1230 c3        1 MKC     -0.029000
     22 C19         3.8290    1.2700   -4.0110 c3        1 MKC     -0.215000
     23 H2          1.3760   -3.2410    1.6880 ha        1 MKC      0.134750
     24 H3          2.4840   -3.0730    3.7330 ha        1 MKC      0.134750
     25 H4          2.3420   -1.1050    4.9690 ha        1 MKC      0.134750
     26 H5          1.0970    0.7120    4.1920 ha        1 MKC      0.134750
     27 H6         -0.0060    0.5230    2.1430 ha        1 MKC      0.144000
     28 HN1        -1.3580    3.5620   -1.2250 hn        1 MKC      0.267000
     29 H131        0.4030   -1.9190   -0.2800 hc        1 MKC      0.114000
     30 H132       -1.0260   -2.0040    0.5090 hc        1 MKC      0.114000
     31 H14        -2.6710   -1.2160    0.7970 hc        1 MKC      0.083000
     32 H151       -3.3410   -0.7440   -1.6640 hc        1 MKC      0.083000
     33 H152       -4.6330   -0.0530   -0.9380 hc        1 MKC      0.083000
     34 H153       -4.3530   -1.6410   -0.7270 hc        1 MKC      0.083000
     35 H161       -4.1310   -0.4270    2.1630 hc        1 MKC      0.083000
     36 H162       -3.3830    0.9610    1.8890 hc        1 MKC      0.083000
     37 H163       -4.7070    0.6060    1.0450 hc        1 MKC      0.083000
     38 H171        2.2510   -0.0160   -0.5910 h2        1 MKC      0.132000
     39 H172        1.4520   -0.7660   -1.7600 h2        1 MKC      0.132000
     40 H181        2.5990   -0.3700   -3.6920 h1        1 MKC      0.064000
     41 H182        3.8060   -0.2260   -2.6060 h1        1 MKC      0.064000
     42 H191        3.1390    1.7890   -4.5400 hc        1 MKC      0.089000
     43 H192        4.4210    0.8010   -4.6240 hc        1 MKC      0.089000
     44 H193        4.3600    1.8960   -3.4560 hc        1 MKC      0.089000
@<TRIPOS>BOND
     1    1    6 1   
     2    1   15 1   
     3    2    3 1   
     4    2   23 1   
     5    3   24 1   
     6    4    5 1   
     7    4   25 1   
     8    5   26 1   
     9    6   27 1   
    10    7   14 1   
    11    7   15 1   
    12    8    9 1   
    13    8   19 1   
    14    9   10 1   
    15    9   11 1   
    16   11   12 1   
    17   11   28 1   
    18   12   13 1   
    19   12   14 1   
    20   14   16 1   
    21   15   29 1   
    22   15   30 1   
    23   16   17 1   
    24   16   18 1   
    25   16   31 1   
    26   17   32 1   
    27   17   33 1   
    28   17   34 1   
    29   18   35 1   
    30   18   36 1   
    31   18   37 1   
    32   19   20 1   
    33   19   38 1   
    34   19   39 1   
    35   20   21 1   
    36   21   22 1   
    37   21   40 1   
    38   21   41 1   
    39   22   42 1   
    40   22   43 1   
    41   22   44 1   
@<TRIPOS>SUBSTRUCTURE
     1 MKC         1 TEMP              0 ****  ****    0 ROOT
