@<TRIPOS>MOLECULE
MKC
   44    45     1     0     0
SMALL
bcc


@<TRIPOS>ATOM
      1 C1          1.6620    0.4930   -0.9810 ca        1 MKC     -0.084300
      2 C2          1.1230   -0.4720   -1.8400 ca        1 MKC     -0.120000
      3 C3          1.9630   -1.3080   -2.5730 ca        1 MKC     -0.129000
      4 C4          3.3480   -1.1820   -2.4610 ca        1 MKC     -0.124000
      5 C5          3.8900   -0.2140   -1.6160 ca        1 MKC     -0.129000
      6 C6          3.0530    0.6210   -0.8790 ca        1 MKC     -0.120000
      7 C7         -0.2400    0.6930    0.6340 cc        1 MKC      0.111400
      8 N8         -1.5840    0.6830    0.2330 n         1 MKC     -0.407000
      9 C9         -2.5180   -0.1540    0.9000 c         1 MKC      0.803500
     10 O9         -3.6720   -0.3200    0.4430 o         1 MKC     -0.658500
     11 N10        -2.1330   -0.7710    2.0910 n         1 MKC     -0.582500
     12 C11        -0.8440   -0.6320    2.6330 c         1 MKC      0.720700
     13 O11        -0.6450   -1.1230    3.7570 o         1 MKC     -0.612500
     14 C12         0.1480    0.0790    1.8010 cd        1 MKC     -0.241400
     15 C13         0.7670    1.4190   -0.2280 c3        1 MKC     -0.005900
     16 C14         1.5570    0.0750    2.3060 c3        1 MKC      0.000500
     17 C15         1.6730    0.9010    3.5750 c3        1 MKC     -0.095600
     18 C16         2.0660   -1.3350    2.5410 c3        1 MKC     -0.095600
     19 C17        -2.1010    1.5010   -0.8560 c3        1 MKC      0.290800
     20 O17        -1.7680    1.0100   -2.1430 os        1 MKC     -0.430600
     21 C18        -2.6330   -0.0330   -2.6100 c3        1 MKC      0.121400
     22 C19        -2.1110   -0.4570   -3.9620 c3        1 MKC     -0.100100
     23 H2          0.0280   -0.5530   -1.9440 ha        1 MKC      0.139500
     24 H3          1.5300   -2.0640   -3.2440 ha        1 MKC      0.133000
     25 H4          4.0100   -1.8430   -3.0390 ha        1 MKC      0.133000
     26 H5          4.9820   -0.1080   -1.5300 ha        1 MKC      0.133000
     27 H6          3.4890    1.3850   -0.2180 ha        1 MKC      0.139500
     28 HN1        -2.8230   -1.3040    2.5770 hn        1 MKC      0.353500
     29 H131        0.2730    2.0850   -0.9880 hc        1 MKC      0.075200
     30 H132        1.3680    2.0920    0.4450 hc        1 MKC      0.075200
     31 H14         2.2310    0.5390    1.5290 hc        1 MKC      0.050700
     32 H151        2.7330    0.9060    3.9260 hc        1 MKC      0.042700
     33 H152        1.3520    1.9530    3.3880 hc        1 MKC      0.042700
     34 H153        1.0320    0.4670    4.3820 hc        1 MKC      0.042700
     35 H161        1.5060   -1.8270    3.3730 hc        1 MKC      0.042700
     36 H162        1.9510   -1.9500    1.6170 hc        1 MKC      0.042700
     37 H163        3.1480   -1.3000    2.8150 hc        1 MKC      0.042700
     38 H171       -1.6260    2.5240   -0.8150 h2        1 MKC      0.085700
     39 H172       -3.2220    1.5810   -0.7380 h2        1 MKC      0.085700
     40 H181       -3.6790    0.3690   -2.6840 h1        1 MKC      0.043200
     41 H182       -2.6240   -0.8840   -1.8780 h1        1 MKC      0.043200
     42 H191       -2.7750   -1.2530   -4.3770 hc        1 MKC      0.047367
     43 H192       -2.0950    0.4100   -4.6640 hc        1 MKC      0.047367
     44 H193       -1.0720   -0.8560   -3.8740 hc        1 MKC      0.047367
@<TRIPOS>BOND
     1    1    2 ar  
     2    1    6 ar  
     3    1   15 1   
     4    2    3 ar  
     5    2   23 1   
     6    3    4 ar  
     7    3   24 1   
     8    4    5 ar  
     9    4   25 1   
    10    5    6 ar  
    11    5   26 1   
    12    6   27 1   
    13    7    8 1   
    14    7   14 2   
    15    7   15 1   
    16    8    9 1   
    17    8   19 1   
    18    9   10 2   
    19    9   11 1   
    20   11   12 1   
    21   11   28 1   
    22   12   13 2   
    23   12   14 1   
    24   14   16 1   
    25   15   29 1   
    26   15   30 1   
    27   16   17 1   
    28   16   18 1   
    29   16   31 1   
    30   17   32 1   
    31   17   33 1   
    32   17   34 1   
    33   18   35 1   
    34   18   36 1   
    35   18   37 1   
    36   19   20 1   
    37   19   38 1   
    38   19   39 1   
    39   20   21 1   
    40   21   22 1   
    41   21   40 1   
    42   21   41 1   
    43   22   42 1   
    44   22   43 1   
    45   22   44 1   
@<TRIPOS>SUBSTRUCTURE
     1 MKC         1 TEMP              0 ****  ****    0 ROOT
