@<TRIPOS>MOLECULE
MKC
   44    45     1     0     0
SMALL
bcc


@<TRIPOS>ATOM
      1 C1         -0.0830   -0.1620    0.1520 ca        1 MKC     -0.084300
      2 C2          0.9040   -1.0540    0.5860 ca        1 MKC     -0.120000
      3 C3          1.3790   -0.9940    1.8950 ca        1 MKC     -0.129000
      4 C4          0.8770   -0.0390    2.7790 ca        1 MKC     -0.124000
      5 C5         -0.0980    0.8600    2.3480 ca        1 MKC     -0.129000
      6 C6         -0.5770    0.8010    1.0400 ca        1 MKC     -0.120000
      7 C7         -1.0950   -1.5470   -1.6710 cc        1 MKC      0.111400
      8 N8         -0.3290   -2.3340   -2.5440 n         1 MKC     -0.407000
      9 C9         -0.6940   -3.6840   -2.7890 c         1 MKC      0.803500
     10 O9          0.0740   -4.4540   -3.4100 o         1 MKC     -0.658500
     11 N10        -1.9380   -4.1330   -2.3430 ns        1 MKC     -0.582500
     12 C11        -2.8250   -3.3140   -1.6240 c         1 MKC      0.720700
     13 O11        -3.9540   -3.7740   -1.3830 o         1 MKC     -0.612500
     14 C12        -2.3170   -1.9870   -1.2200 cd        1 MKC     -0.241400
     15 C13        -0.5620   -0.1940   -1.2600 c3        1 MKC     -0.005900
     16 C14        -3.2010   -1.1900   -0.3130 c3        1 MKC      0.000500
     17 C15        -4.4600   -0.7530   -1.0400 c3        1 MKC     -0.095600
     18 C16        -3.5540   -1.9600    0.9460 c3        1 MKC     -0.095600
     19 C17         0.8530   -1.8400   -3.2400 c3        1 MKC      0.290800
     20 O17         1.9980   -1.7380   -2.4110 os        1 MKC     -0.430600
     21 C18         2.7030   -2.9740   -2.2370 c3        1 MKC      0.121400
     22 C19         3.8570   -2.6880   -1.3060 c3        1 MKC     -0.100100
     23 H2          1.3160   -1.7930   -0.1220 ha        1 MKC      0.139500
     24 H3          2.1540   -1.7000    2.2280 ha        1 MKC      0.133000
     25 H4          1.2520    0.0070    3.8120 ha        1 MKC      0.133000
     26 H5         -0.4910    1.6190    3.0410 ha        1 MKC      0.133000
     27 H6         -1.3430    1.5170    0.7080 ha        1 MKC      0.139500
     28 HN1        -2.2020   -5.0660   -2.5790 hn        1 MKC      0.353500
     29 H131        0.3000    0.1370   -1.9040 hc        1 MKC      0.075200
     30 H132       -1.3850    0.5580   -1.4170 hc        1 MKC      0.075200
     31 H14        -2.6510   -0.2610    0.0170 hc        1 MKC      0.050700
     32 H151       -5.0970   -0.1410   -0.3570 hc        1 MKC      0.042700
     33 H152       -4.2010   -0.1380   -1.9350 hc        1 MKC      0.042700
     34 H153       -5.0460   -1.6440   -1.3730 hc        1 MKC      0.042700
     35 H161       -4.1870   -2.8480    0.7040 hc        1 MKC      0.042700
     36 H162       -4.1240   -1.2970    1.6410 hc        1 MKC      0.042700
     37 H163       -2.6290   -2.3080    1.4630 hc        1 MKC      0.042700
     38 H171        1.0560   -2.5200   -4.1190 h2        1 MKC      0.085700
     39 H172        0.6660   -0.7840   -3.5920 h2        1 MKC      0.085700
     40 H181        3.0660   -3.3280   -3.2390 h1        1 MKC      0.043200
     41 H182        2.0090   -3.7450   -1.8110 h1        1 MKC      0.043200
     42 H191        4.5160   -1.8940   -1.7310 hc        1 MKC      0.047367
     43 H192        4.4520   -3.6210   -1.1640 hc        1 MKC      0.047367
     44 H193        3.4830   -2.3380   -0.3140 hc        1 MKC      0.047367
@<TRIPOS>BOND
     1    1    2 ar  
     2    1    6 ar  
     3    1   15 1   
     4    2    3 ar  
     5    2   23 1   
     6    3    4 ar  
     7    3   24 1   
     8    4    5 ar  
     9    4   25 1   
    10    5    6 ar  
    11    5   26 1   
    12    6   27 1   
    13    7    8 1   
    14    7   14 2   
    15    7   15 1   
    16    8    9 1   
    17    8   19 1   
    18    9   10 2   
    19    9   11 1   
    20   11   12 1   
    21   11   28 1   
    22   12   13 2   
    23   12   14 1   
    24   14   16 1   
    25   15   29 1   
    26   15   30 1   
    27   16   17 1   
    28   16   18 1   
    29   16   31 1   
    30   17   32 1   
    31   17   33 1   
    32   17   34 1   
    33   18   35 1   
    34   18   36 1   
    35   18   37 1   
    36   19   20 1   
    37   19   38 1   
    38   19   39 1   
    39   20   21 1   
    40   21   22 1   
    41   21   40 1   
    42   21   41 1   
    43   22   42 1   
    44   22   43 1   
    45   22   44 1   
@<TRIPOS>SUBSTRUCTURE
     1 MKC         1 TEMP              0 ****  ****    0 ROOT
