@<TRIPOS>MOLECULE
MKC
   44    45     1     0     0
SMALL
bcc


@<TRIPOS>ATOM
      1 C1         -0.0760   -0.1590    0.1440 ca        1 MKC     -0.084300
      2 C2          0.9050   -1.0540    0.5870 ca        1 MKC     -0.120000
      3 C3          1.3760   -0.9890    1.8970 ca        1 MKC     -0.129000
      4 C4          0.8770   -0.0250    2.7730 ca        1 MKC     -0.124000
      5 C5         -0.0900    0.8780    2.3330 ca        1 MKC     -0.129000
      6 C6         -0.5660    0.8130    1.0240 ca        1 MKC     -0.120000
      7 C7         -1.0910   -1.5500   -1.6730 cc        1 MKC      0.111400
      8 N8         -0.3280   -2.3480   -2.5380 n         1 MKC     -0.407000
      9 C9         -0.7020   -3.6970   -2.7750 c         1 MKC      0.803500
     10 O9          0.0630   -4.4770   -3.3880 o         1 MKC     -0.658500
     11 N10        -1.9500   -4.1350   -2.3300 n         1 MKC     -0.582500
     12 C11        -2.8330   -3.3040   -1.6200 c         1 MKC      0.720700
     13 O11        -3.9670   -3.7540   -1.3790 o         1 MKC     -0.612500
     14 C12        -2.3180   -1.9780   -1.2230 cd        1 MKC     -0.241400
     15 C13        -0.5500   -0.1970   -1.2700 c3        1 MKC     -0.005900
     16 C14        -3.1990   -1.1680   -0.3250 c3        1 MKC      0.000500
     17 C15        -4.4520   -0.7270   -1.0600 c3        1 MKC     -0.095600
     18 C16        -3.5630   -1.9280    0.9380 c3        1 MKC     -0.095600
     19 C17         0.8590   -1.8670   -3.2330 c3        1 MKC      0.290800
     20 O17         2.0020   -1.7670   -2.4020 os        1 MKC     -0.430600
     21 C18         2.6980   -3.0060   -2.2170 c3        1 MKC      0.121400
     22 C19         3.8510   -2.7230   -1.2850 c3        1 MKC     -0.100100
     23 H2          1.3140   -1.8010   -0.1150 ha        1 MKC      0.139500
     24 H3          2.1450   -1.6980    2.2360 ha        1 MKC      0.133000
     25 H4          1.2490    0.0260    3.8070 ha        1 MKC      0.133000
     26 H5         -0.4810    1.6440    3.0190 ha        1 MKC      0.133000
     27 H6         -1.3270    1.5320    0.6840 ha        1 MKC      0.139500
     28 HN1        -2.2200   -5.0670   -2.5610 hn        1 MKC      0.353500
     29 H131        0.3150    0.1230   -1.9130 hc        1 MKC      0.075200
     30 H132       -1.3680    0.5590   -1.4350 hc        1 MKC      0.075200
     31 H14        -2.6440   -0.2410    0.0010 hc        1 MKC      0.050700
     32 H151       -5.0440   -1.6170   -1.3880 hc        1 MKC      0.042700
     33 H152       -4.1860   -0.1200   -1.9570 hc        1 MKC      0.042700
     34 H153       -5.0880   -0.1070   -0.3830 hc        1 MKC      0.042700
     35 H161       -2.6420   -2.2790    1.4610 hc        1 MKC      0.042700
     36 H162       -4.2010   -2.8130    0.7000 hc        1 MKC      0.042700
     37 H163       -4.1300   -1.2560    1.6270 hc        1 MKC      0.042700
     38 H171        0.6810   -0.8120   -3.5930 h2        1 MKC      0.085700
     39 H172        1.0610   -2.5540   -4.1070 h2        1 MKC      0.085700
     40 H181        3.0620   -3.3710   -3.2160 h1        1 MKC      0.043200
     41 H182        1.9980   -3.7700   -1.7880 h1        1 MKC      0.043200
     42 H191        3.4770   -2.3620   -0.2960 hc        1 MKC      0.047033
     43 H192        4.4390   -3.6590   -1.1350 hc        1 MKC      0.047033
     44 H193        4.5170   -1.9360   -1.7140 hc        1 MKC      0.047033
@<TRIPOS>BOND
     1    1    2 ar  
     2    1    6 ar  
     3    1   15 1   
     4    2    3 ar  
     5    2   23 1   
     6    3    4 ar  
     7    3   24 1   
     8    4    5 ar  
     9    4   25 1   
    10    5    6 ar  
    11    5   26 1   
    12    6   27 1   
    13    7    8 1   
    14    7   14 2   
    15    7   15 1   
    16    8    9 1   
    17    8   19 1   
    18    9   10 2   
    19    9   11 1   
    20   11   12 1   
    21   11   28 1   
    22   12   13 2   
    23   12   14 1   
    24   14   16 1   
    25   15   29 1   
    26   15   30 1   
    27   16   17 1   
    28   16   18 1   
    29   16   31 1   
    30   17   32 1   
    31   17   33 1   
    32   17   34 1   
    33   18   35 1   
    34   18   36 1   
    35   18   37 1   
    36   19   20 1   
    37   19   38 1   
    38   19   39 1   
    39   20   21 1   
    40   21   22 1   
    41   21   40 1   
    42   21   41 1   
    43   22   42 1   
    44   22   43 1   
    45   22   44 1   
@<TRIPOS>SUBSTRUCTURE
     1 MKC         1 TEMP              0 ****  ****    0 ROOT
