@<TRIPOS>MOLECULE
MKE
   20    19     1     0     0
SMALL
bcc


@<TRIPOS>ATOM
      1 N           1.5020   -1.9050   -0.2940 n3        1 MKE     -0.901800
      2 CA          1.2630   -0.4790   -0.4480 c3        1 MKE      0.057500
      3 CB          0.0060    0.0660    0.2550 c3        1 MKE     -0.097400
      4 CG         -1.2560   -0.5910   -0.2440 c3        1 MKE     -0.204400
      5 CD         -2.4880    0.3070   -0.0060 c         1 MKE      0.911600
      6 OE1        -3.5640   -0.2600    0.3340 o         1 MKE     -0.846300
      7 OE2        -2.3650    1.5540   -0.1840 o         1 MKE     -0.846300
      8 C           2.4470    0.3610    0.0160 c         1 MKE      0.579100
      9 O           3.1760    0.0430    0.9630 o         1 MKE     -0.563100
     10 CMK         2.6510    1.6280   -0.7510 c3        1 MKE     -0.205100
     11 HN1         1.8690   -2.0910    0.6210 hn        1 MKE      0.349800
     12 HN2         0.6280   -2.3900   -0.3900 hn        1 MKE      0.349800
     13 HA          1.1350   -0.3050   -1.5610 h1        1 MKE      0.067700
     14 HB1         0.1040   -0.0770    1.3610 hc        1 MKE      0.057700
     15 HB2        -0.0710    1.1710    0.0590 hc        1 MKE      0.057700
     16 HG1        -1.1900   -0.7770   -1.3460 hc        1 MKE      0.023700
     17 HG2        -1.4200   -1.5750    0.2620 hc        1 MKE      0.023700
     18 HMK1        3.4450    2.2570   -0.2800 hc        1 MKE      0.062033
     19 HMK2        2.9560    1.3820   -1.7980 hc        1 MKE      0.062033
     20 HMK3        1.6950    2.2070   -0.7850 hc        1 MKE      0.062033
@<TRIPOS>BOND
     1    1    2 1   
     2    1   11 1   
     3    1   12 1   
     4    2    3 1   
     5    2    8 1   
     6    2   13 1   
     7    3    4 1   
     8    3   14 1   
     9    3   15 1   
    10    4    5 1   
    11    4   16 1   
    12    4   17 1   
    13    5    6 1   
    14    5    7 1   
    15    8    9 2   
    16    8   10 1   
    17   10   18 1   
    18   10   19 1   
    19   10   20 1   
@<TRIPOS>SUBSTRUCTURE
     1 MKE         1 TEMP              0 ****  ****    0 ROOT
