@<TRIPOS>MOLECULE
MKH
   60    63     1     0     0
SMALL
bcc


@<TRIPOS>ATOM
      1 O1         -0.4670   -1.1610    0.3630 o         1 MKH     -0.608500
      2 C2          0.7580   -1.0600    0.1820 c         1 MKH      0.714700
      3 N3          1.5010   -0.2100    1.0220 n         1 MKH     -0.585500
      4 C4          2.8860   -0.0320    0.8990 c         1 MKH      0.807500
      5 N5          3.5660   -0.7270   -0.1400 n         1 MKH     -0.377000
      6 C6          2.8600   -1.5870   -0.9670 cc        1 MKH      0.050600
      7 C7          1.5190   -1.7660   -0.8550 cd        1 MKH     -0.319200
      8 O8          3.5000    0.7330    1.6740 o         1 MKH     -0.640500
      9 C9          5.0050   -0.6140   -0.2540 c3        1 MKH      0.099000
     10 C10         5.7720   -1.8620    0.1850 c3        1 MKH     -0.077400
     11 C11         7.2550   -1.6300    0.0300 c3        1 MKH     -0.311600
     12 S12         8.1400   -3.0610    0.4010 s6        1 MKH      1.454900
     13 N13         9.6850   -2.5730    0.3300 n3        1 MKH     -0.816500
     14 C14        10.4160   -2.1440    1.5100 c3        1 MKH      0.207800
     15 C15        11.8680   -2.6300    1.3620 c3        1 MKH     -0.095400
     16 C16        11.9800   -3.1650   -0.0620 c3        1 MKH     -0.098400
     17 C17        10.6200   -2.8580   -0.7480 c3        1 MKH      0.218500
     18 O18         7.8110   -3.4440    1.7200 o         1 MKH     -0.654300
     19 O19         7.8830   -4.0180   -0.6060 o         1 MKH     -0.654300
     20 C20        10.7860   -1.6940   -1.7860 c3        1 MKH      0.244400
     21 O21        11.1100   -0.4830   -1.0970 oh        1 MKH     -0.590800
     22 C22        11.8930   -2.0590   -2.7600 ca        1 MKH     -0.104300
     23 C23        12.9690   -1.1860   -2.9630 ca        1 MKH     -0.116500
     24 C24        13.9810   -1.5120   -3.8640 ca        1 MKH     -0.132500
     25 C25        13.9280   -2.7100   -4.5760 ca        1 MKH     -0.127000
     26 C26        12.8530   -3.5780   -4.3870 ca        1 MKH     -0.132500
     27 C27        11.8390   -3.2540   -3.4860 ca        1 MKH     -0.116500
     28 C28         9.5320   -1.3990   -2.5820 ca        1 MKH     -0.104300
     29 C29         9.2280   -0.0700   -2.9090 ca        1 MKH     -0.116500
     30 C30         8.1220    0.2280   -3.7040 ca        1 MKH     -0.132500
     31 C31         7.3110   -0.7980   -4.1880 ca        1 MKH     -0.127000
     32 C32         7.6040   -2.1210   -3.8620 ca        1 MKH     -0.132500
     33 C33         8.7060   -2.4230   -3.0610 ca        1 MKH     -0.116500
     34 HN3         1.0430    0.2930    1.7520 hn        1 MKH      0.352500
     35 H6          3.4650   -2.1100   -1.7330 h4        1 MKH      0.165000
     36 H7          0.9520   -2.4320   -1.5160 ha        1 MKH      0.180000
     37 H9          5.3410    0.2640    0.3730 h1        1 MKH      0.077700
     38 H9A         5.2490   -0.3930   -1.3330 h1        1 MKH      0.077700
     39 H10         5.4610   -2.7430   -0.4410 hc        1 MKH      0.069200
     40 H10A        5.5380   -2.1030    1.2570 hc        1 MKH      0.069200
     41 H11         7.5540   -0.7700    0.6860 h1        1 MKH      0.121700
     42 H11A        7.4710   -1.2910   -1.0220 h1        1 MKH      0.121700
     43 H14        10.3910   -1.0200    1.5730 h1        1 MKH      0.062700
     44 H14A        9.9390   -2.5680    2.4370 h1        1 MKH      0.062700
     45 H15        12.0940   -3.4280    2.1100 hc        1 MKH      0.056700
     46 H15A       12.5780   -1.7850    1.5360 hc        1 MKH      0.056700
     47 H16        12.8280   -2.6910   -0.6130 hc        1 MKH      0.064700
     48 H16A       12.1520   -4.2700   -0.0580 hc        1 MKH      0.064700
     49 H17        10.2630   -3.7690   -1.3110 h1        1 MKH      0.083700
     50 HO21       11.8000   -0.6990   -0.4560 ho        1 MKH      0.408000
     51 H23        13.0070   -0.2280   -2.4200 ha        1 MKH      0.146250
     52 H24        14.8200   -0.8170   -4.0170 ha        1 MKH      0.135750
     53 H25        14.7260   -2.9660   -5.2870 ha        1 MKH      0.134000
     54 H26        12.8000   -4.5200   -4.9520 ha        1 MKH      0.135750
     55 H27        10.9870   -3.9400   -3.3610 ha        1 MKH      0.146250
     56 H29         9.8710    0.7440   -2.5380 ha        1 MKH      0.146250
     57 H30         7.8980    1.2740   -3.9560 ha        1 MKH      0.135750
     58 H31         6.4470   -0.5640   -4.8280 ha        1 MKH      0.134000
     59 H32         6.9690   -2.9370   -4.2370 ha        1 MKH      0.135750
     60 H33         8.8980   -3.4780   -2.8040 ha        1 MKH      0.146250
@<TRIPOS>BOND
     1    1    2 2   
     2    2    3 1   
     3    2    7 1   
     4    3    4 1   
     5    3   34 1   
     6    4    5 1   
     7    4    8 2   
     8    5    6 1   
     9    5    9 1   
    10    6    7 2   
    11    6   35 1   
    12    7   36 1   
    13    9   10 1   
    14    9   37 1   
    15    9   38 1   
    16   10   11 1   
    17   10   39 1   
    18   10   40 1   
    19   11   12 1   
    20   11   41 1   
    21   11   42 1   
    22   12   13 1   
    23   12   18 2   
    24   12   19 2   
    25   13   14 1   
    26   13   17 1   
    27   14   15 1   
    28   14   43 1   
    29   14   44 1   
    30   15   16 1   
    31   15   45 1   
    32   15   46 1   
    33   16   17 1   
    34   16   47 1   
    35   16   48 1   
    36   17   20 1   
    37   17   49 1   
    38   20   21 1   
    39   20   22 1   
    40   20   28 1   
    41   21   50 1   
    42   22   23 ar  
    43   22   27 ar  
    44   23   24 ar  
    45   23   51 1   
    46   24   25 ar  
    47   24   52 1   
    48   25   26 ar  
    49   25   53 1   
    50   26   27 ar  
    51   26   54 1   
    52   27   55 1   
    53   28   29 ar  
    54   28   33 ar  
    55   29   30 ar  
    56   29   56 1   
    57   30   31 ar  
    58   30   57 1   
    59   31   32 ar  
    60   31   58 1   
    61   32   33 ar  
    62   32   59 1   
    63   33   60 1   
@<TRIPOS>SUBSTRUCTURE
     1 MKH         1 TEMP              0 ****  ****    0 ROOT
