@<TRIPOS>MOLECULE
MKH
   60    63     1     0     0
SMALL
bcc


@<TRIPOS>ATOM
      1 O1          8.4550   -0.0990   -1.7030 o         1 MKH     -0.606500
      2 C2          7.2850   -0.1510   -1.2900 c         1 MKH      0.714700
      3 N3          6.9730    0.4420   -0.0530 n         1 MKH     -0.585500
      4 C4          5.6810    0.4370    0.4940 c         1 MKH      0.807500
      5 N5          4.6460   -0.2220   -0.2260 n         1 MKH     -0.377000
      6 C6          4.9230   -0.7950   -1.4580 cc        1 MKH      0.049600
      7 C7          6.1700   -0.7940   -1.9960 cd        1 MKH     -0.317200
      8 O8          5.4550    0.9830    1.5960 o         1 MKH     -0.641500
      9 C9          3.2910   -0.1890    0.2820 c3        1 MKH      0.099000
     10 C10         2.3490    0.7350   -0.4920 c3        1 MKH     -0.077400
     11 C11         0.9820    0.7240    0.1500 c3        1 MKH     -0.307600
     12 S12        -0.1340    1.6570   -0.7780 s6        1 MKH      1.440900
     13 N13        -1.4290    1.7510    0.2030 n3        1 MKH     -0.817500
     14 C14        -1.6180    2.9020    1.0730 c3        1 MKH      0.199800
     15 C15        -3.1020    3.3000    1.0180 c3        1 MKH     -0.088400
     16 C16        -3.7950    2.2050    0.2180 c3        1 MKH     -0.085400
     17 C17        -2.7180    1.1210   -0.0590 c3        1 MKH      0.212500
     18 O18         0.4320    2.9350   -0.9770 o         1 MKH     -0.652800
     19 O19        -0.4490    0.9300   -1.9490 o         1 MKH     -0.652800
     20 C20        -3.0270   -0.1430    0.8180 c3        1 MKH      0.248400
     21 O21        -3.1410    0.2640    2.1850 oh        1 MKH     -0.593800
     22 C22        -4.3830   -0.6890    0.4090 ca        1 MKH     -0.102300
     23 C23        -5.4430   -0.7240    1.3240 ca        1 MKH     -0.119750
     24 C24        -6.6840   -1.2310    0.9420 ca        1 MKH     -0.133000
     25 C25        -6.8800   -1.7060   -0.3540 ca        1 MKH     -0.126500
     26 C26        -5.8270   -1.6750   -1.2680 ca        1 MKH     -0.133000
     27 C27        -4.5840   -1.1710   -0.8900 ca        1 MKH     -0.119750
     28 C28        -1.9970   -1.2450    0.6970 ca        1 MKH     -0.102300
     29 C29        -1.6790   -2.0000    1.8360 ca        1 MKH     -0.119750
     30 C30        -0.7840   -3.0640    1.7540 ca        1 MKH     -0.133000
     31 C31        -0.2000   -3.3960    0.5320 ca        1 MKH     -0.126500
     32 C32        -0.5140   -2.6530   -0.6050 ca        1 MKH     -0.133000
     33 C33        -1.4060   -1.5820   -0.5250 ca        1 MKH     -0.119750
     34 HN3         7.6850    0.9020    0.4730 hn        1 MKH      0.353500
     35 H6          4.0590   -1.2630   -1.9670 h4        1 MKH      0.165000
     36 H7          6.3990   -1.2600   -2.9620 ha        1 MKH      0.180000
     37 H9          2.8840   -1.2400    0.2470 h1        1 MKH      0.077200
     38 H9A         3.3270    0.1420    1.3610 h1        1 MKH      0.077200
     39 H10         2.7530    1.7840   -0.4980 hc        1 MKH      0.070700
     40 H10A        2.2680    0.3930   -1.5590 hc        1 MKH      0.070700
     41 H11         0.6250   -0.3400    0.2390 h1        1 MKH      0.118200
     42 H11A        1.0790    1.1000    1.2020 h1        1 MKH      0.118200
     43 H14        -1.3300    2.6210    2.1250 h1        1 MKH      0.058700
     44 H14A       -0.9610    3.7550    0.7430 h1        1 MKH      0.058700
     45 H15        -3.5190    3.3660    2.0520 hc        1 MKH      0.058200
     46 H15A       -3.2230    4.2970    0.5290 hc        1 MKH      0.058200
     47 H16        -4.6500    1.7680    0.7910 hc        1 MKH      0.067700
     48 H16A       -4.1860    2.6010   -0.7510 hc        1 MKH      0.067700
     49 H17        -2.7580    0.7970   -1.1390 h1        1 MKH      0.082700
     50 HO21       -2.2800    0.6120    2.4460 ho        1 MKH      0.411000
     51 H23        -5.2950   -0.3500    2.3500 ha        1 MKH      0.149500
     52 H24        -7.5090   -1.2570    1.6680 ha        1 MKH      0.135500
     53 H25        -7.8590   -2.1070   -0.6540 ha        1 MKH      0.133500
     54 H26        -5.9740   -2.0520   -2.2910 ha        1 MKH      0.135500
     55 H27        -3.7590   -1.1650   -1.6180 ha        1 MKH      0.149500
     56 H29        -2.1570   -1.7590    2.7990 ha        1 MKH      0.149500
     57 H30        -0.5470   -3.6490    2.6550 ha        1 MKH      0.135500
     58 H31         0.4960   -4.2440    0.4640 ha        1 MKH      0.133500
     59 H32        -0.0650   -2.9110   -1.5760 ha        1 MKH      0.135500
     60 H33        -1.6270   -1.0070   -1.4410 ha        1 MKH      0.149500
@<TRIPOS>BOND
     1    1    2 2   
     2    2    3 1   
     3    2    7 1   
     4    3    4 1   
     5    3   34 1   
     6    4    5 1   
     7    4    8 2   
     8    5    6 1   
     9    5    9 1   
    10    6    7 2   
    11    6   35 1   
    12    7   36 1   
    13    9   10 1   
    14    9   37 1   
    15    9   38 1   
    16   10   11 1   
    17   10   39 1   
    18   10   40 1   
    19   11   12 1   
    20   11   41 1   
    21   11   42 1   
    22   12   13 1   
    23   12   18 2   
    24   12   19 2   
    25   13   14 1   
    26   13   17 1   
    27   14   15 1   
    28   14   43 1   
    29   14   44 1   
    30   15   16 1   
    31   15   45 1   
    32   15   46 1   
    33   16   17 1   
    34   16   47 1   
    35   16   48 1   
    36   17   20 1   
    37   17   49 1   
    38   20   21 1   
    39   20   22 1   
    40   20   28 1   
    41   21   50 1   
    42   22   23 ar  
    43   22   27 ar  
    44   23   24 ar  
    45   23   51 1   
    46   24   25 ar  
    47   24   52 1   
    48   25   26 ar  
    49   25   53 1   
    50   26   27 ar  
    51   26   54 1   
    52   27   55 1   
    53   28   29 ar  
    54   28   33 ar  
    55   29   30 ar  
    56   29   56 1   
    57   30   31 ar  
    58   30   57 1   
    59   31   32 ar  
    60   31   58 1   
    61   32   33 ar  
    62   32   59 1   
    63   33   60 1   
@<TRIPOS>SUBSTRUCTURE
     1 MKH         1 TEMP              0 ****  ****    0 ROOT
