@<TRIPOS>MOLECULE
MKH
   60    57     1     0     0
SMALL
bcc


@<TRIPOS>ATOM
      1 O1         -6.8280   -4.8860   -4.2530 o         1 MKH     -0.333000
      2 C2         -6.3870   -3.9180   -3.6590 c1        1 MKH      0.353000
      3 N3         -6.6230   -3.7720   -2.2640 n2        1 MKH     -0.365000
      4 C4         -5.9780   -2.6890   -1.5210 c2        1 MKH      0.398000
      5 N5         -5.1160   -1.7260   -2.2210 n         1 MKH     -0.269000
      6 C6         -4.8630   -1.8790   -3.6110 c2        1 MKH      0.048000
      7 C7         -5.5230   -2.9540   -4.3620 c2        1 MKH     -0.301000
      8 O8         -6.2140   -2.5410   -0.3410 o         1 MKH     -0.366000
      9 C9         -4.6230   -0.5560   -1.5210 c3        1 MKH     -0.018000
     10 C10        -3.2630   -0.8800   -0.8690 c3        1 MKH     -0.153000
     11 C11        -2.3260    0.3360   -1.0020 c3        1 MKH     -0.853000
     12 S12        -0.9860    0.2000    0.2040 s4        1 MKH      2.030800
     13 N13         0.0040    1.5460    0.1240 n2        1 MKH     -0.811000
     14 C14        -0.3510    2.7290   -0.2820 c3        1 MKH     -0.036000
     15 C15         0.9860    3.5310   -0.4270 c3        1 MKH     -0.177000
     16 C16         2.0550    2.6740    0.2550 c3        1 MKH     -0.178000
     17 C17         1.3840    1.7450    0.9100 c3        1 MKH      0.064000
     18 O18        -0.2390   -1.0060    0.0180 o         1 MKH     -0.541400
     19 O19        -1.4980    0.0090    1.5320 o         1 MKH     -0.541400
     20 C20         2.1720    0.4440    0.9230 c3        1 MKH      0.172000
     21 O21         1.5130   -0.5100    0.1310 oh        1 MKH     -0.352000
     22 C22         2.2820   -0.0780    2.3750 c2        1 MKH     -0.103500
     23 C23         1.8600   -1.3660    2.6840 c2        1 MKH     -0.103000
     24 C24         1.8810   -1.8070    3.9990 c1        1 MKH     -0.127500
     25 C25         2.3230   -0.9630    5.0070 c1        1 MKH     -0.126250
     26 C26         2.7450    0.3250    4.6990 c1        1 MKH     -0.126250
     27 C27         2.7240    0.7670    3.3840 c1        1 MKH     -0.120000
     28 C28         3.6220    0.6990    0.3440 c2        1 MKH     -0.103500
     29 C29         3.9990    0.1240   -0.8660 c2        1 MKH     -0.103000
     30 C30         5.2830    0.3390   -1.3710 c1        1 MKH     -0.127500
     31 C31         6.1840    1.1270   -0.6660 c1        1 MKH     -0.126250
     32 C32         5.8070    1.7010    0.5440 c1        1 MKH     -0.126250
     33 C33         4.5240    1.4870    1.0490 c1        1 MKH     -0.120000
     34 HN3        -7.1590   -4.3700   -1.8260 hn        1 MKH      0.266000
     35 H6         -4.2930   -1.2420   -4.0740 h4        1 MKH      0.165000
     36 H7         -5.3500   -3.0590   -5.3180 ha        1 MKH      0.179000
     37 H9         -5.2630   -0.2960   -0.8280 h1        1 MKH      0.114000
     38 H9A        -4.5130    0.1790   -2.1540 h1        1 MKH      0.114000
     39 H10        -2.8640   -1.6490   -1.3170 hc        1 MKH      0.107500
     40 H10A       -3.3970   -1.0870    0.0800 hc        1 MKH      0.107500
     41 H11        -1.9520    0.3610   -1.9020 h1        1 MKH      0.151500
     42 H11A       -2.8330    1.1600   -0.8360 h1        1 MKH      0.151500
     43 H14        -0.8080    2.6680   -1.1500 h1        1 MKH      0.100500
     44 H14A       -0.9330    3.1550    0.3800 h1        1 MKH      0.100500
     45 H15         0.9090    4.4000    0.0230 hc        1 MKH      0.094000
     46 H15A        1.2050    3.6560   -1.3710 hc        1 MKH      0.094000
     47 H16         2.5820    3.2200    0.8810 hc        1 MKH      0.102500
     48 H16A        2.6390    2.2640   -0.4140 hc        1 MKH      0.102500
     49 H17         1.2100    2.0390    1.8230 h1        1 MKH      0.104000
     50 HO21        2.0380   -1.2210    0.0230 ho        1 MKH      0.230000
     51 H23         1.5500   -1.9580    1.9770 ha        1 MKH      0.146000
     52 H24         1.5830   -2.7170    4.2160 ha        1 MKH      0.135500
     53 H25         2.3380   -1.2740    5.9340 ha        1 MKH      0.134000
     54 H26         3.0570    0.9210    5.4110 ha        1 MKH      0.134000
     55 H27         3.0200    1.6710    3.1680 ha        1 MKH      0.129000
     56 H29         3.3680   -0.4280   -1.3600 ha        1 MKH      0.146000
     57 H30         5.5490   -0.0670   -2.2250 ha        1 MKH      0.135500
     58 H31         7.0880    1.2780   -1.0220 ha        1 MKH      0.134000
     59 H32         6.4410    2.2550    1.0390 ha        1 MKH      0.134000
     60 H33         4.2610    1.8890    1.8960 ha        1 MKH      0.129000
@<TRIPOS>BOND
     1    1    2 1   
     2    2    7 1   
     3    3    4 1   
     4    3   34 1   
     5    4    5 1   
     6    4    8 1   
     7    5    6 1   
     8    5    9 1   
     9    6    7 1   
    10    6   35 1   
    11    7   36 1   
    12    9   10 1   
    13    9   37 1   
    14    9   38 1   
    15   10   11 1   
    16   10   39 1   
    17   10   40 1   
    18   11   12 1   
    19   11   41 1   
    20   11   42 1   
    21   12   18 1   
    22   12   19 1   
    23   13   14 1   
    24   13   17 1   
    25   14   15 1   
    26   14   43 1   
    27   14   44 1   
    28   15   16 1   
    29   15   45 1   
    30   15   46 1   
    31   16   17 1   
    32   16   47 1   
    33   16   48 1   
    34   17   20 1   
    35   17   49 1   
    36   20   21 1   
    37   20   22 1   
    38   20   28 1   
    39   21   50 1   
    40   22   23 1   
    41   22   27 1   
    42   23   24 1   
    43   23   51 1   
    44   24   52 1   
    45   25   26 1   
    46   25   53 1   
    47   26   54 1   
    48   27   55 1   
    49   28   29 1   
    50   28   33 1   
    51   29   30 1   
    52   29   56 1   
    53   30   57 1   
    54   31   32 1   
    55   31   58 1   
    56   32   59 1   
    57   33   60 1   
@<TRIPOS>SUBSTRUCTURE
     1 MKH         1 TEMP              0 ****  ****    0 ROOT
