@<TRIPOS>MOLECULE
MKH
   60    63     1     0     0
SMALL
bcc


@<TRIPOS>ATOM
      1 O1         -0.4530   -1.1460    0.4320 o         1 MKH     -0.608500
      2 C2          0.7690   -1.0460    0.2370 c         1 MKH      0.714700
      3 N3          1.5170   -0.1660    1.0420 ns        1 MKH     -0.585500
      4 C4          2.9010    0.0120    0.9000 c         1 MKH      0.807500
      5 N5          3.5730   -0.7120   -0.1240 n         1 MKH     -0.377000
      6 C6          2.8620   -1.6000   -0.9160 cc        1 MKH      0.050600
      7 C7          1.5230   -1.7810   -0.7850 cd        1 MKH     -0.319200
      8 O8          3.5190    0.8040    1.6440 o         1 MKH     -0.640500
      9 C9          5.0100   -0.5960   -0.2560 c3        1 MKH      0.099000
     10 C10         5.7870   -1.8280    0.2140 c3        1 MKH     -0.077400
     11 C11         7.2680   -1.5940    0.0370 c3        1 MKH     -0.311600
     12 S12         8.1620   -3.0090    0.4440 s6        1 MKH      1.454900
     13 N13         9.7050   -2.5190    0.3420 n3        1 MKH     -0.816500
     14 C14        10.4450   -2.0490    1.4990 c3        1 MKH      0.207800
     15 C15        11.8980   -2.5340    1.3520 c3        1 MKH     -0.095400
     16 C16        11.9980   -3.1130   -0.0550 c3        1 MKH     -0.098400
     17 C17        10.6290   -2.8340   -0.7360 c3        1 MKH      0.218500
     18 O18         7.8480   -3.3520    1.7770 o         1 MKH     -0.654300
     19 O19         7.8990   -3.9990   -0.5300 o         1 MKH     -0.654300
     20 C20        10.7800   -1.7020   -1.8130 c3        1 MKH      0.244400
     21 O21        11.1050   -0.4690   -1.1650 oh        1 MKH     -0.590800
     22 C22        11.8790   -2.0930   -2.7850 ca        1 MKH     -0.104300
     23 C23        12.9480   -1.2220   -3.0270 ca        1 MKH     -0.116500
     24 C24        13.9520   -1.5720   -3.9280 ca        1 MKH     -0.132500
     25 C25        13.8970   -2.7920   -4.6010 ca        1 MKH     -0.127000
     26 C26        12.8280   -3.6590   -4.3730 ca        1 MKH     -0.132500
     27 C27        11.8230   -3.3110   -3.4740 ca        1 MKH     -0.116500
     28 C28         9.5170   -1.4370   -2.6040 ca        1 MKH     -0.104300
     29 C29         9.2030   -0.1200   -2.9700 ca        1 MKH     -0.116500
     30 C30         8.0880    0.1470   -3.7630 ca        1 MKH     -0.132500
     31 C31         7.2760   -0.8960   -4.2060 ca        1 MKH     -0.127000
     32 C32         7.5790   -2.2070   -3.8410 ca        1 MKH     -0.132500
     33 C33         8.6900   -2.4790   -3.0430 ca        1 MKH     -0.116500
     34 HN3         1.0650    0.3570    1.7610 hn        1 MKH      0.352500
     35 H6          3.4620   -2.1450   -1.6720 h4        1 MKH      0.165000
     36 H7          0.9530   -2.4700   -1.4200 ha        1 MKH      0.180000
     37 H9          5.2420   -0.4090   -1.3440 h1        1 MKH      0.077700
     38 H9A         5.3480    0.3010    0.3390 h1        1 MKH      0.077700
     39 H10         5.5650   -2.0350    1.2960 hc        1 MKH      0.069200
     40 H10A        5.4740   -2.7290   -0.3800 hc        1 MKH      0.069200
     41 H11         7.5700   -0.7130    0.6630 h1        1 MKH      0.121700
     42 H11A        7.4710   -1.2880   -1.0270 h1        1 MKH      0.121700
     43 H14         9.9800   -2.4460    2.4450 h1        1 MKH      0.062700
     44 H14A       10.4160   -0.9240    1.5280 h1        1 MKH      0.062700
     45 H15        12.6060   -1.6810    1.4920 hc        1 MKH      0.056700
     46 H15A       12.1350   -3.3070    2.1230 hc        1 MKH      0.056700
     47 H16        12.1740   -4.2160   -0.0190 hc        1 MKH      0.064700
     48 H16A       12.8380   -2.6530   -0.6300 hc        1 MKH      0.064700
     49 H17        10.2700   -3.7630   -1.2670 h1        1 MKH      0.083700
     50 HO21       11.8030   -0.6610   -0.5250 ho        1 MKH      0.408000
     51 H23        12.9880   -0.2480   -2.5150 ha        1 MKH      0.146250
     52 H24        14.7870   -0.8790   -4.1110 ha        1 MKH      0.135750
     53 H25        14.6900   -3.0680   -5.3120 ha        1 MKH      0.134000
     54 H26        12.7740   -4.6190   -4.9080 ha        1 MKH      0.135750
     55 H27        10.9750   -3.9950   -3.3180 ha        1 MKH      0.146250
     56 H29         9.8470    0.7080   -2.6310 ha        1 MKH      0.146250
     57 H30         7.8570    1.1850   -4.0450 ha        1 MKH      0.135750
     58 H31         6.4060   -0.6860   -4.8440 ha        1 MKH      0.134000
     59 H32         6.9430   -3.0370   -4.1830 ha        1 MKH      0.135750
     60 H33         8.8890   -3.5240   -2.7550 ha        1 MKH      0.146250
@<TRIPOS>BOND
     1    1    2 2   
     2    2    3 1   
     3    2    7 1   
     4    3    4 1   
     5    3   34 1   
     6    4    5 1   
     7    4    8 2   
     8    5    6 1   
     9    5    9 1   
    10    6    7 2   
    11    6   35 1   
    12    7   36 1   
    13    9   10 1   
    14    9   37 1   
    15    9   38 1   
    16   10   11 1   
    17   10   39 1   
    18   10   40 1   
    19   11   12 1   
    20   11   41 1   
    21   11   42 1   
    22   12   13 1   
    23   12   18 2   
    24   12   19 2   
    25   13   14 1   
    26   13   17 1   
    27   14   15 1   
    28   14   43 1   
    29   14   44 1   
    30   15   16 1   
    31   15   45 1   
    32   15   46 1   
    33   16   17 1   
    34   16   47 1   
    35   16   48 1   
    36   17   20 1   
    37   17   49 1   
    38   20   21 1   
    39   20   22 1   
    40   20   28 1   
    41   21   50 1   
    42   22   23 ar  
    43   22   27 ar  
    44   23   24 ar  
    45   23   51 1   
    46   24   25 ar  
    47   24   52 1   
    48   25   26 ar  
    49   25   53 1   
    50   26   27 ar  
    51   26   54 1   
    52   27   55 1   
    53   28   29 ar  
    54   28   33 ar  
    55   29   30 ar  
    56   29   56 1   
    57   30   31 ar  
    58   30   57 1   
    59   31   32 ar  
    60   31   58 1   
    61   32   33 ar  
    62   32   59 1   
    63   33   60 1   
@<TRIPOS>SUBSTRUCTURE
     1 MKH         1 TEMP              0 ****  ****    0 ROOT
