@<TRIPOS>MOLECULE
MKH
   60    63     1     0     0
SMALL
bcc


@<TRIPOS>ATOM
      1 O1         -0.4610   -1.2460    0.4100 o         1 MKH     -0.608500
      2 C2          0.7620   -1.1330    0.2260 c         1 MKH      0.714700
      3 N3          1.5010   -0.2830    1.0700 n         1 MKH     -0.585500
      4 C4          2.8850   -0.0930    0.9430 c         1 MKH      0.807500
      5 N5          3.5660   -0.7730   -0.1040 n         1 MKH     -0.377000
      6 C6          2.8640   -1.6330   -0.9350 cc        1 MKH      0.050600
      7 C7          1.5250   -1.8250   -0.8190 cd        1 MKH     -0.319200
      8 O8          3.4950    0.6720    1.7210 o         1 MKH     -0.640500
      9 C9          5.0030   -0.6460   -0.2230 c3        1 MKH      0.099000
     10 C10         5.7830   -1.8920    0.2030 c3        1 MKH     -0.077400
     11 C11         7.2640   -1.6450    0.0420 c3        1 MKH     -0.311600
     12 S12         8.1620   -3.0720    0.3990 s6        1 MKH      1.454900
     13 N13         9.7040   -2.5720    0.3190 n3        1 MKH     -0.816500
     14 C14        10.4390   -2.1430    1.4960 c3        1 MKH      0.207800
     15 C15        11.8940   -2.6160    1.3340 c3        1 MKH     -0.095400
     16 C16        12.0000   -3.1420   -0.0930 c3        1 MKH     -0.098400
     17 C17        10.6320   -2.8430   -0.7670 c3        1 MKH      0.218500
     18 O18         7.8460   -3.4650    1.7170 o         1 MKH     -0.654300
     19 O19         7.9060   -4.0260   -0.6130 o         1 MKH     -0.654300
     20 C20        10.7810   -1.6710   -1.8000 c3        1 MKH      0.244400
     21 O21        11.0990   -0.4620   -1.1060 oh        1 MKH     -0.590800
     22 C22        11.8840   -2.0210   -2.7840 ca        1 MKH     -0.104300
     23 C23        12.9500   -1.1370   -2.9900 ca        1 MKH     -0.116500
     24 C24        13.9580   -1.4490   -3.9010 ca        1 MKH     -0.132500
     25 C25        13.9100   -2.6430   -4.6190 ca        1 MKH     -0.127000
     26 C26        12.8450   -3.5220   -4.4260 ca        1 MKH     -0.132500
     27 C27        11.8350   -3.2120   -3.5170 ca        1 MKH     -0.116500
     28 C28         9.5190   -1.3830   -2.5850 ca        1 MKH     -0.104300
     29 C29         9.2010   -0.0540   -2.9030 ca        1 MKH     -0.116500
     30 C30         8.0870    0.2380   -3.6880 ca        1 MKH     -0.132500
     31 C31         7.2810   -0.7910   -4.1720 ca        1 MKH     -0.127000
     32 C32         7.5880   -2.1140   -3.8560 ca        1 MKH     -0.132500
     33 C33         8.6980   -2.4100   -3.0650 ca        1 MKH     -0.116500
     34 HN3         1.0420    0.2110    1.8060 hn        1 MKH      0.352500
     35 H6          3.4700   -2.1450   -1.7070 h4        1 MKH      0.165000
     36 H7          0.9620   -2.4900   -1.4840 ha        1 MKH      0.180000
     37 H9          5.3340    0.2290    0.4090 h1        1 MKH      0.077700
     38 H9A         5.2410   -0.4160   -1.3010 h1        1 MKH      0.077700
     39 H10         5.4770   -2.7710   -0.4270 hc        1 MKH      0.069700
     40 H10A        5.5570   -2.1410    1.2750 hc        1 MKH      0.069700
     41 H11         7.5590   -0.7880    0.7030 h1        1 MKH      0.121700
     42 H11A        7.4710   -1.2980   -1.0090 h1        1 MKH      0.121700
     43 H14        10.4060   -1.0190    1.5660 h1        1 MKH      0.062700
     44 H14A        9.9730   -2.5770    2.4240 h1        1 MKH      0.062700
     45 H15        12.5980   -1.7660    1.5080 hc        1 MKH      0.056700
     46 H15A       12.1320   -3.4170    2.0760 hc        1 MKH      0.056700
     47 H16        12.1810   -4.2450   -0.0980 hc        1 MKH      0.064700
     48 H16A       12.8400   -2.6560   -0.6480 hc        1 MKH      0.064700
     49 H17        10.2790   -3.7530   -1.3330 h1        1 MKH      0.083700
     50 HO21       11.7960   -0.6740   -0.4720 ho        1 MKH      0.408000
     51 H23        12.9850   -0.1820   -2.4420 ha        1 MKH      0.146250
     52 H24        14.7900   -0.7460   -4.0560 ha        1 MKH      0.135750
     53 H25        14.7060   -2.8890   -5.3370 ha        1 MKH      0.134000
     54 H26        12.7960   -4.4620   -4.9970 ha        1 MKH      0.135750
     55 H27        10.9900   -3.9060   -3.3890 ha        1 MKH      0.146250
     56 H29         9.8390    0.7630   -2.5310 ha        1 MKH      0.146250
     57 H30         7.8510    1.2850   -3.9330 ha        1 MKH      0.135750
     58 H31         6.4110   -0.5620   -4.8040 ha        1 MKH      0.134000
     59 H32         6.9570   -2.9330   -4.2310 ha        1 MKH      0.135750
     60 H33         8.9010   -3.4650   -2.8150 ha        1 MKH      0.146250
@<TRIPOS>BOND
     1    1    2 2   
     2    2    3 1   
     3    2    7 1   
     4    3    4 1   
     5    3   34 1   
     6    4    5 1   
     7    4    8 2   
     8    5    6 1   
     9    5    9 1   
    10    6    7 2   
    11    6   35 1   
    12    7   36 1   
    13    9   10 1   
    14    9   37 1   
    15    9   38 1   
    16   10   11 1   
    17   10   39 1   
    18   10   40 1   
    19   11   12 1   
    20   11   41 1   
    21   11   42 1   
    22   12   13 1   
    23   12   18 2   
    24   12   19 2   
    25   13   14 1   
    26   13   17 1   
    27   14   15 1   
    28   14   43 1   
    29   14   44 1   
    30   15   16 1   
    31   15   45 1   
    32   15   46 1   
    33   16   17 1   
    34   16   47 1   
    35   16   48 1   
    36   17   20 1   
    37   17   49 1   
    38   20   21 1   
    39   20   22 1   
    40   20   28 1   
    41   21   50 1   
    42   22   23 ar  
    43   22   27 ar  
    44   23   24 ar  
    45   23   51 1   
    46   24   25 ar  
    47   24   52 1   
    48   25   26 ar  
    49   25   53 1   
    50   26   27 ar  
    51   26   54 1   
    52   27   55 1   
    53   28   29 ar  
    54   28   33 ar  
    55   29   30 ar  
    56   29   56 1   
    57   30   31 ar  
    58   30   57 1   
    59   31   32 ar  
    60   31   58 1   
    61   32   33 ar  
    62   32   59 1   
    63   33   60 1   
@<TRIPOS>SUBSTRUCTURE
     1 MKH         1 TEMP              0 ****  ****    0 ROOT
