@<TRIPOS>MOLECULE
MKK
   67    70     1     0     0
SMALL
bcc


@<TRIPOS>ATOM
      1 C1         -0.1190   -0.5230    0.5040 ca        1 MKK     -0.085300
      2 C2          1.2260   -0.3680    0.1660 ca        1 MKK     -0.093000
      3 C3          2.1760    0.0370    1.1240 ca        1 MKK      0.086600
      4 C4          1.7320    0.2900    2.4490 ca        1 MKK      0.110900
      5 C5          0.3700    0.1480    2.7770 ca        1 MKK     -0.158000
      6 C6         -0.5410   -0.2560    1.8120 ca        1 MKK     -0.106000
      7 N4          3.5320    0.1940    0.6820 nh        1 MKK     -0.333100
      8 N1          4.2400    1.2800    1.0830 n2        1 MKK     -0.359400
      9 C24         5.5170    0.9800    1.2310 ce        1 MKK      0.243300
     10 C13         5.8180   -0.5220    1.0410 c3        1 MKK     -0.056000
     11 C14         4.3710   -1.0420    0.7240 c3        1 MKK      0.146800
     12 C17         6.6990   -0.7470   -0.1510 ca        1 MKK     -0.078300
     13 C19         6.3880   -0.1050   -1.3610 ca        1 MKK     -0.121000
     14 C20         7.1740   -0.3010   -2.4930 ca        1 MKK     -0.130000
     15 C21         8.2840   -1.1440   -2.4370 ca        1 MKK     -0.124000
     16 C22         8.5990   -1.7890   -1.2430 ca        1 MKK     -0.130000
     17 C23         7.8120   -1.5940   -0.1070 ca        1 MKK     -0.121000
     18 C29         6.5800    1.9740    1.5250 c         1 MKK      0.522800
     19 C9          6.4760    3.2650    0.7840 c3        1 MKK     -0.193100
     20 O39         7.4860    1.7270    2.3250 o         1 MKK     -0.515100
     21 F40         2.5980    0.6670    3.4200 f         1 MKK     -0.134900
     22 C10        -1.0960   -0.9700   -0.5170 c3        1 MKK     -0.054800
     23 C7          6.3740   -1.1330    2.3180 c3        1 MKK     -0.070400
     24 C8          5.6100   -0.7320    3.5630 c3        1 MKK     -0.085400
     25 C11         6.1000   -1.5580    4.7510 c3        1 MKK      0.175800
     26 N2          5.6160   -1.0910    6.0430 n3        1 MKK     -0.725600
     27 C12         4.1650   -1.0540    6.1340 c3        1 MKK      0.141800
     28 C15         6.2310   -1.8300    7.1380 c3        1 MKK      0.141800
     29 C16         5.7180   -1.3950    8.5270 c3        1 MKK      0.083000
     30 C18         3.6600   -0.6160    7.5280 c3        1 MKK      0.083000
     31 N3          4.2750   -1.3330    8.6190 n         1 MKK     -0.461800
     32 C25         3.5840   -2.2530    9.4020 c         1 MKK      0.653100
     33 C26         2.0750   -2.2530    9.3930 c3        1 MKK     -0.169100
     34 O1          4.2070   -3.0270   10.1580 o         1 MKK     -0.610100
     35 H2          1.5470   -0.5620   -0.8710 ha        1 MKK      0.151000
     36 H5          0.0440    0.3630    3.8050 ha        1 MKK      0.150000
     37 H6         -1.6040   -0.3660    2.0770 ha        1 MKK      0.141000
     38 H141        4.3170   -1.5170   -0.2890 h1        1 MKK      0.070700
     39 H142        4.0180   -1.7690    1.4980 h1        1 MKK      0.070700
     40 H19         5.5120    0.5600   -1.4150 ha        1 MKK      0.139500
     41 H20         6.9180    0.2110   -3.4320 ha        1 MKK      0.133500
     42 H21         8.9070   -1.2980   -3.3300 ha        1 MKK      0.133000
     43 H22         9.4720   -2.4550   -1.1900 ha        1 MKK      0.133500
     44 H23         8.0870   -2.1180    0.8210 ha        1 MKK      0.139500
     45 H91         6.4140    3.0680   -0.3140 hc        1 MKK      0.071700
     46 H92         7.3630    3.9100    0.9930 hc        1 MKK      0.071700
     47 H93         5.5480    3.8040    1.1010 hc        1 MKK      0.071700
     48 H101       -1.2100   -2.0830   -0.4730 hc        1 MKK      0.048367
     49 H102       -2.0980   -0.5080   -0.3380 hc        1 MKK      0.048367
     50 H103       -0.7580   -0.6930   -1.5460 hc        1 MKK      0.048367
     51 H71         7.4400   -0.7960    2.4380 hc        1 MKK      0.059200
     52 H72         6.3650   -2.2510    2.2120 hc        1 MKK      0.059200
     53 H81         4.5090   -0.8870    3.4160 hc        1 MKK      0.057700
     54 H82         5.7730    0.3630    3.7580 hc        1 MKK      0.057700
     55 H111        7.2260   -1.5000    4.7840 h1        1 MKK      0.030700
     56 H112        5.8210   -2.6400    4.5710 h1        1 MKK      0.030700
     57 H121        3.7030   -2.0520    5.8770 h1        1 MKK      0.040450
     58 H122        3.7920   -0.2960    5.3870 h1        1 MKK      0.040450
     59 H151        6.0800   -2.9440    7.0280 h1        1 MKK      0.040450
     60 H152        7.3380   -1.6290    7.1060 h1        1 MKK      0.040450
     61 H161        6.1160   -0.3660    8.7590 h1        1 MKK      0.064200
     62 H162        6.1190   -2.1180    9.2930 h1        1 MKK      0.064200
     63 H181        2.5430   -0.7370    7.5420 h1        1 MKK      0.064200
     64 H182        3.8950    0.4790    7.6680 h1        1 MKK      0.064200
     65 H261        1.6730   -1.2320    9.5970 hc        1 MKK      0.064700
     66 H262        1.6940   -2.6130    8.4080 hc        1 MKK      0.064700
     67 H263        1.7180   -2.9480   10.1930 hc        1 MKK      0.064700
@<TRIPOS>BOND
     1    1    2 ar  
     2    1    6 ar  
     3    1   22 1   
     4    2    3 ar  
     5    2   35 1   
     6    3    4 ar  
     7    3    7 1   
     8    4    5 ar  
     9    4   21 1   
    10    5    6 ar  
    11    5   36 1   
    12    6   37 1   
    13    7    8 1   
    14    7   11 1   
    15    8    9 2   
    16    9   10 1   
    17    9   18 1   
    18   10   11 1   
    19   10   12 1   
    20   10   23 1   
    21   11   38 1   
    22   11   39 1   
    23   12   13 ar  
    24   12   17 ar  
    25   13   14 ar  
    26   13   40 1   
    27   14   15 ar  
    28   14   41 1   
    29   15   16 ar  
    30   15   42 1   
    31   16   17 ar  
    32   16   43 1   
    33   17   44 1   
    34   18   19 1   
    35   18   20 2   
    36   19   45 1   
    37   19   46 1   
    38   19   47 1   
    39   22   48 1   
    40   22   49 1   
    41   22   50 1   
    42   23   24 1   
    43   23   51 1   
    44   23   52 1   
    45   24   25 1   
    46   24   53 1   
    47   24   54 1   
    48   25   26 1   
    49   25   55 1   
    50   25   56 1   
    51   26   27 1   
    52   26   28 1   
    53   27   30 1   
    54   27   57 1   
    55   27   58 1   
    56   28   29 1   
    57   28   59 1   
    58   28   60 1   
    59   29   31 1   
    60   29   61 1   
    61   29   62 1   
    62   30   31 1   
    63   30   63 1   
    64   30   64 1   
    65   31   32 1   
    66   32   33 1   
    67   32   34 2   
    68   33   65 1   
    69   33   66 1   
    70   33   67 1   
@<TRIPOS>SUBSTRUCTURE
     1 MKK         1 TEMP              0 ****  ****    0 ROOT
