@<TRIPOS>MOLECULE
MKK
   67    70     1     0     0
SMALL
bcc


@<TRIPOS>ATOM
      1 C1         -0.1120   -0.5400    0.4930 ca        1 MKK     -0.084300
      2 C2          1.2340   -0.3830    0.1580 ca        1 MKK     -0.093000
      3 C3          2.1810    0.0280    1.1170 ca        1 MKK      0.086600
      4 C4          1.7330    0.2820    2.4410 ca        1 MKK      0.110900
      5 C5          0.3710    0.1360    2.7650 ca        1 MKK     -0.158000
      6 C6         -0.5370   -0.2740    1.8000 ca        1 MKK     -0.106000
      7 N4          3.5370    0.1860    0.6790 nh        1 MKK     -0.333100
      8 N1          4.2420    1.2740    1.0800 n2        1 MKK     -0.359400
      9 C24         5.5190    0.9780    1.2320 ce        1 MKK      0.243300
     10 C13         5.8240   -0.5240    1.0460 c3        1 MKK     -0.056000
     11 C14         4.3790   -1.0480    0.7250 c3        1 MKK      0.146800
     12 C17         6.7090   -0.7500   -0.1440 ca        1 MKK     -0.078300
     13 C19         6.3990   -0.1120   -1.3560 ca        1 MKK     -0.121000
     14 C20         7.1890   -0.3080   -2.4850 ca        1 MKK     -0.130000
     15 C21         8.3020   -1.1480   -2.4240 ca        1 MKK     -0.124000
     16 C22         8.6140   -1.7890   -1.2280 ca        1 MKK     -0.130000
     17 C23         7.8240   -1.5930   -0.0940 ca        1 MKK     -0.121000
     18 C29         6.5800    1.9740    1.5260 c         1 MKK      0.522800
     19 C9          6.4750    3.2640    0.7830 c3        1 MKK     -0.193100
     20 O39         7.4840    1.7300    2.3290 o         1 MKK     -0.515100
     21 F40         2.5950    0.6630    3.4130 f         1 MKK     -0.134900
     22 C10        -1.0890   -0.9620   -0.5370 c3        1 MKK     -0.054800
     23 C7          6.3770   -1.1320    2.3250 c3        1 MKK     -0.070400
     24 C8          5.6090   -0.7300    3.5670 c3        1 MKK     -0.085400
     25 C11         6.0970   -1.5540    4.7580 c3        1 MKK      0.175800
     26 N2          5.6080   -1.0850    6.0480 n3        1 MKK     -0.725600
     27 C12         4.1570   -1.0520    6.1340 c3        1 MKK      0.141800
     28 C15         6.2220   -1.8210    7.1460 c3        1 MKK      0.141800
     29 C16         5.7040   -1.3850    8.5330 c3        1 MKK      0.083000
     30 C18         3.6460   -0.6130    7.5260 c3        1 MKK      0.083000
     31 N3          4.2600   -1.3260    8.6200 n         1 MKK     -0.461800
     32 C25         3.5690   -2.2470    9.4030 c         1 MKK      0.653100
     33 C26         2.0600   -2.2510    9.3890 c3        1 MKK     -0.169100
     34 O1          4.1920   -3.0180   10.1620 o         1 MKK     -0.610100
     35 H2          1.5590   -0.5810   -0.8770 ha        1 MKK      0.151000
     36 H5          0.0410    0.3500    3.7930 ha        1 MKK      0.150000
     37 H6         -1.6000   -0.3890    2.0630 ha        1 MKK      0.141000
     38 H141        4.0250   -1.7740    1.5000 h1        1 MKK      0.070700
     39 H142        4.3290   -1.5250   -0.2870 h1        1 MKK      0.070700
     40 H19         5.5210    0.5510   -1.4140 ha        1 MKK      0.139500
     41 H20         6.9340    0.2010   -3.4260 ha        1 MKK      0.133500
     42 H21         8.9270   -1.3020   -3.3160 ha        1 MKK      0.133000
     43 H22         9.4900   -2.4530   -1.1720 ha        1 MKK      0.133500
     44 H23         8.0980   -2.1150    0.8350 ha        1 MKK      0.139500
     45 H91         6.4170    3.0640   -0.3150 hc        1 MKK      0.071700
     46 H92         7.3600    3.9110    0.9930 hc        1 MKK      0.071700
     47 H93         5.5450    3.8010    1.0960 hc        1 MKK      0.071700
     48 H101       -0.5960   -1.5700   -1.3360 hc        1 MKK      0.048700
     49 H102       -1.5490   -0.0610   -1.0170 hc        1 MKK      0.048700
     50 H103       -1.9080   -1.5730   -0.0830 hc        1 MKK      0.048700
     51 H71         6.3720   -2.2500    2.2220 hc        1 MKK      0.059200
     52 H72         7.4430   -0.7920    2.4470 hc        1 MKK      0.059200
     53 H81         4.5080   -0.8890    3.4170 hc        1 MKK      0.057700
     54 H82         5.7680    0.3650    3.7610 hc        1 MKK      0.057700
     55 H111        5.8210   -2.6360    4.5790 h1        1 MKK      0.030700
     56 H112        7.2230   -1.4930    4.7940 h1        1 MKK      0.030700
     57 H121        3.7830   -0.2970    5.3850 h1        1 MKK      0.040450
     58 H122        3.6980   -2.0520    5.8780 h1        1 MKK      0.040450
     59 H151        7.3290   -1.6160    7.1170 h1        1 MKK      0.040450
     60 H152        6.0740   -2.9350    7.0370 h1        1 MKK      0.040450
     61 H161        6.1040   -2.1050    9.3000 h1        1 MKK      0.064200
     62 H162        6.0980   -0.3540    8.7640 h1        1 MKK      0.064200
     63 H181        3.8780    0.4830    7.6650 h1        1 MKK      0.064200
     64 H182        2.5290   -0.7370    7.5360 h1        1 MKK      0.064200
     65 H261        1.7020   -2.9460   10.1890 hc        1 MKK      0.064700
     66 H262        1.6830   -2.6140    8.4030 hc        1 MKK      0.064700
     67 H263        1.6540   -1.2310    9.5890 hc        1 MKK      0.064700
@<TRIPOS>BOND
     1    1    2 ar  
     2    1    6 ar  
     3    1   22 1   
     4    2    3 ar  
     5    2   35 1   
     6    3    4 ar  
     7    3    7 1   
     8    4    5 ar  
     9    4   21 1   
    10    5    6 ar  
    11    5   36 1   
    12    6   37 1   
    13    7    8 1   
    14    7   11 1   
    15    8    9 2   
    16    9   10 1   
    17    9   18 1   
    18   10   11 1   
    19   10   12 1   
    20   10   23 1   
    21   11   38 1   
    22   11   39 1   
    23   12   13 ar  
    24   12   17 ar  
    25   13   14 ar  
    26   13   40 1   
    27   14   15 ar  
    28   14   41 1   
    29   15   16 ar  
    30   15   42 1   
    31   16   17 ar  
    32   16   43 1   
    33   17   44 1   
    34   18   19 1   
    35   18   20 2   
    36   19   45 1   
    37   19   46 1   
    38   19   47 1   
    39   22   48 1   
    40   22   49 1   
    41   22   50 1   
    42   23   24 1   
    43   23   51 1   
    44   23   52 1   
    45   24   25 1   
    46   24   53 1   
    47   24   54 1   
    48   25   26 1   
    49   25   55 1   
    50   25   56 1   
    51   26   27 1   
    52   26   28 1   
    53   27   30 1   
    54   27   57 1   
    55   27   58 1   
    56   28   29 1   
    57   28   59 1   
    58   28   60 1   
    59   29   31 1   
    60   29   61 1   
    61   29   62 1   
    62   30   31 1   
    63   30   63 1   
    64   30   64 1   
    65   31   32 1   
    66   32   33 1   
    67   32   34 2   
    68   33   65 1   
    69   33   66 1   
    70   33   67 1   
@<TRIPOS>SUBSTRUCTURE
     1 MKK         1 TEMP              0 ****  ****    0 ROOT
