@<TRIPOS>MOLECULE
MKK
   67    70     1     0     0
SMALL
bcc


@<TRIPOS>ATOM
      1 C1         -0.1160   -0.5280    0.5020 ca        1 MKK     -0.084300
      2 C2          1.2290   -0.3740    0.1650 ca        1 MKK     -0.093000
      3 C3          2.1780    0.0340    1.1220 ca        1 MKK      0.086600
      4 C4          1.7340    0.2890    2.4470 ca        1 MKK      0.110900
      5 C5          0.3720    0.1450    2.7740 ca        1 MKK     -0.158000
      6 C6         -0.5390   -0.2620    1.8100 ca        1 MKK     -0.106000
      7 N4          3.5340    0.1890    0.6810 nh        1 MKK     -0.333100
      8 N1          4.2420    1.2760    1.0820 n2        1 MKK     -0.359400
      9 C24         5.5190    0.9760    1.2310 ce        1 MKK      0.243300
     10 C13         5.8210   -0.5260    1.0430 c3        1 MKK     -0.056000
     11 C14         4.3730   -1.0460    0.7250 c3        1 MKK      0.146800
     12 C17         6.7020   -0.7530   -0.1490 ca        1 MKK     -0.078300
     13 C19         6.3920   -0.1130   -1.3590 ca        1 MKK     -0.121000
     14 C20         7.1790   -0.3100   -2.4900 ca        1 MKK     -0.130000
     15 C21         8.2890   -1.1530   -2.4330 ca        1 MKK     -0.124000
     16 C22         8.6030   -1.7960   -1.2370 ca        1 MKK     -0.130000
     17 C23         7.8160   -1.5990   -0.1020 ca        1 MKK     -0.121000
     18 C29         6.5830    1.9700    1.5240 c         1 MKK      0.522800
     19 C9          6.4790    3.2600    0.7810 c3        1 MKK     -0.193100
     20 O39         7.4880    1.7240    2.3250 o         1 MKK     -0.515100
     21 F40         2.5990    0.6670    3.4180 f         1 MKK     -0.134900
     22 C10        -1.0970   -0.9480   -0.5260 c3        1 MKK     -0.054800
     23 C7          6.3750   -1.1370    2.3200 c3        1 MKK     -0.070400
     24 C8          5.6100   -0.7330    3.5650 c3        1 MKK     -0.085400
     25 C11         6.0980   -1.5590    4.7540 c3        1 MKK      0.175800
     26 N2          5.6130   -1.0900    6.0450 n3        1 MKK     -0.725600
     27 C12         4.1620   -1.0520    6.1350 c3        1 MKK      0.141800
     28 C15         6.2270   -1.8290    7.1410 c3        1 MKK      0.141800
     29 C16         5.7130   -1.3930    8.5300 c3        1 MKK      0.083000
     30 C18         3.6560   -0.6130    7.5270 c3        1 MKK      0.083000
     31 N3          4.2690   -1.3290    8.6190 n         1 MKK     -0.461800
     32 C25         3.5770   -2.2480    9.4030 c         1 MKK      0.653100
     33 C26         2.0680   -2.2480    9.3930 c3        1 MKK     -0.169100
     34 O1          4.1990   -3.0220   10.1610 o         1 MKK     -0.610100
     35 H2          1.5520   -0.5720   -0.8710 ha        1 MKK      0.151000
     36 H5          0.0450    0.3600    3.8030 ha        1 MKK      0.150000
     37 H6         -1.6010   -0.3750    2.0760 ha        1 MKK      0.141000
     38 H141        4.0190   -1.7730    1.5000 h1        1 MKK      0.070700
     39 H142        4.3210   -1.5230   -0.2870 h1        1 MKK      0.070700
     40 H19         5.5160    0.5520   -1.4150 ha        1 MKK      0.139500
     41 H20         6.9230    0.2000   -3.4300 ha        1 MKK      0.133500
     42 H21         8.9130   -1.3080   -3.3250 ha        1 MKK      0.133000
     43 H22         9.4770   -2.4620   -1.1830 ha        1 MKK      0.133500
     44 H23         8.0910   -2.1220    0.8270 ha        1 MKK      0.139500
     45 H91         5.5520    3.8000    1.0960 hc        1 MKK      0.071700
     46 H92         6.4190    3.0610   -0.3170 hc        1 MKK      0.071700
     47 H93         7.3670    3.9050    0.9900 hc        1 MKK      0.071700
     48 H101       -1.5570   -0.0460   -1.0040 hc        1 MKK      0.048700
     49 H102       -0.6070   -1.5560   -1.3260 hc        1 MKK      0.048700
     50 H103       -1.9150   -1.5580   -0.0700 hc        1 MKK      0.048700
     51 H71         7.4410   -0.7990    2.4410 hc        1 MKK      0.059200
     52 H72         6.3660   -2.2540    2.2170 hc        1 MKK      0.059200
     53 H81         5.7730    0.3610    3.7590 hc        1 MKK      0.057700
     54 H82         4.5090   -0.8890    3.4170 hc        1 MKK      0.057700
     55 H111        5.8190   -2.6400    4.5750 h1        1 MKK      0.030700
     56 H112        7.2240   -1.5010    4.7880 h1        1 MKK      0.030700
     57 H121        3.7900   -0.2960    5.3860 h1        1 MKK      0.040450
     58 H122        3.7000   -2.0500    5.8780 h1        1 MKK      0.040450
     59 H151        7.3340   -1.6280    7.1110 h1        1 MKK      0.040450
     60 H152        6.0750   -2.9430    7.0320 h1        1 MKK      0.040450
     61 H161        6.1110   -0.3630    8.7610 h1        1 MKK      0.064200
     62 H162        6.1130   -2.1150    9.2960 h1        1 MKK      0.064200
     63 H181        2.5390   -0.7340    7.5400 h1        1 MKK      0.064200
     64 H182        3.8920    0.4820    7.6670 h1        1 MKK      0.064200
     65 H261        1.7100   -2.9410   10.1930 hc        1 MKK      0.064700
     66 H262        1.6880   -2.6080    8.4070 hc        1 MKK      0.064700
     67 H263        1.6660   -1.2260    9.5940 hc        1 MKK      0.064700
@<TRIPOS>BOND
     1    1    2 ar  
     2    1    6 ar  
     3    1   22 1   
     4    2    3 ar  
     5    2   35 1   
     6    3    4 ar  
     7    3    7 1   
     8    4    5 ar  
     9    4   21 1   
    10    5    6 ar  
    11    5   36 1   
    12    6   37 1   
    13    7    8 1   
    14    7   11 1   
    15    8    9 2   
    16    9   10 1   
    17    9   18 1   
    18   10   11 1   
    19   10   12 1   
    20   10   23 1   
    21   11   38 1   
    22   11   39 1   
    23   12   13 ar  
    24   12   17 ar  
    25   13   14 ar  
    26   13   40 1   
    27   14   15 ar  
    28   14   41 1   
    29   15   16 ar  
    30   15   42 1   
    31   16   17 ar  
    32   16   43 1   
    33   17   44 1   
    34   18   19 1   
    35   18   20 2   
    36   19   45 1   
    37   19   46 1   
    38   19   47 1   
    39   22   48 1   
    40   22   49 1   
    41   22   50 1   
    42   23   24 1   
    43   23   51 1   
    44   23   52 1   
    45   24   25 1   
    46   24   53 1   
    47   24   54 1   
    48   25   26 1   
    49   25   55 1   
    50   25   56 1   
    51   26   27 1   
    52   26   28 1   
    53   27   30 1   
    54   27   57 1   
    55   27   58 1   
    56   28   29 1   
    57   28   59 1   
    58   28   60 1   
    59   29   31 1   
    60   29   61 1   
    61   29   62 1   
    62   30   31 1   
    63   30   63 1   
    64   30   64 1   
    65   31   32 1   
    66   32   33 1   
    67   32   34 2   
    68   33   65 1   
    69   33   66 1   
    70   33   67 1   
@<TRIPOS>SUBSTRUCTURE
     1 MKK         1 TEMP              0 ****  ****    0 ROOT
