@<TRIPOS>MOLECULE
MKK
   67    70     1     0     0
SMALL
bcc


@<TRIPOS>ATOM
      1 C1         -2.1580    4.6590    0.7170 ca        1 MKK     -0.084300
      2 C2         -2.5920    3.3490    0.5110 ca        1 MKK     -0.093000
      3 C3         -1.7600    2.3940   -0.1050 ca        1 MKK      0.086600
      4 C4         -0.4620    2.7960   -0.5170 ca        1 MKK      0.110900
      5 C5         -0.0380    4.1240   -0.3190 ca        1 MKK     -0.158000
      6 C6         -0.8790    5.0410    0.2940 ca        1 MKK     -0.106000
      7 N4         -2.2970    1.0780   -0.2980 nh        1 MKK     -0.333100
      8 N1         -2.0980    0.4470   -1.4820 n2        1 MKK     -0.359400
      9 C24        -1.9830   -0.8570   -1.3070 ce        1 MKK      0.243300
     10 C13        -1.9710   -1.2750    0.1790 c3        1 MKK     -0.056000
     11 C14        -2.1270    0.1360    0.8500 c3        1 MKK      0.146800
     12 C17        -3.1680   -2.1160    0.5100 ca        1 MKK     -0.078300
     13 C19        -4.4370   -1.6960    0.0810 ca        1 MKK     -0.121000
     14 C20        -5.5720   -2.4440    0.3810 ca        1 MKK     -0.130000
     15 C21        -5.4600   -3.6230    1.1180 ca        1 MKK     -0.124000
     16 C22        -4.2060   -4.0460    1.5520 ca        1 MKK     -0.130000
     17 C23        -3.0660   -3.2980    1.2520 ca        1 MKK     -0.121000
     18 C29        -1.8970   -1.8450   -2.4120 c         1 MKK      0.522800
     19 C9         -2.8100   -1.5980   -3.5670 c3        1 MKK     -0.193100
     20 O39        -1.1230   -2.8040   -2.3570 o         1 MKK     -0.515100
     21 F40         0.3930    1.9210   -1.0990 f         1 MKK     -0.134900
     22 C10        -3.0570    5.6480    1.3580 c3        1 MKK     -0.054800
     23 C7         -0.6540   -1.9380    0.5500 c3        1 MKK     -0.070400
     24 C8          0.5620   -1.2000    0.0280 c3        1 MKK     -0.085400
     25 C11         1.8260   -1.8120    0.6300 c3        1 MKK      0.175800
     26 N2          3.0640   -1.3500    0.0150 n3        1 MKK     -0.725600
     27 C12         3.2320    0.0930    0.0770 c3        1 MKK      0.141800
     28 C15         4.2160   -2.0750    0.5350 c3        1 MKK      0.141800
     29 C16         5.5560   -1.5910   -0.0600 c3        1 MKK      0.083000
     30 C18         4.5740    0.5700   -0.5220 c3        1 MKK      0.083000
     31 N3          5.7200   -0.1530   -0.0240 n         1 MKK     -0.461800
     32 C25         6.6660    0.4210    0.8200 c         1 MKK      0.653100
     33 C26         6.7440    1.9240    0.9380 c3        1 MKK     -0.169100
     34 O1          7.4880   -0.2990    1.4240 o         1 MKK     -0.610100
     35 H2         -3.6060    3.0600    0.8340 ha        1 MKK      0.151000
     36 H5          0.9670    4.4190   -0.6560 ha        1 MKK      0.150000
     37 H6         -0.5390    6.0770    0.4490 ha        1 MKK      0.141000
     38 H141       -1.2360    0.3910    1.4790 h1        1 MKK      0.070700
     39 H142       -3.0560    0.1960    1.4720 h1        1 MKK      0.070700
     40 H19        -4.5360   -0.7650   -0.4990 ha        1 MKK      0.139500
     41 H20        -6.5590   -2.1020    0.0350 ha        1 MKK      0.133500
     42 H21        -6.3560   -4.2150    1.3540 ha        1 MKK      0.133000
     43 H22        -4.1080   -4.9740    2.1340 ha        1 MKK      0.133500
     44 H23        -2.0900   -3.6590    1.6090 ha        1 MKK      0.139500
     45 H91        -2.5210   -0.6440   -4.0740 hc        1 MKK      0.071700
     46 H92        -2.7470   -2.4370   -4.3020 hc        1 MKK      0.071700
     47 H93        -3.8630   -1.5040   -3.2040 hc        1 MKK      0.071700
     48 H101       -3.6310    6.2040    0.5740 hc        1 MKK      0.048700
     49 H102       -3.7890    5.1460    2.0370 hc        1 MKK      0.048700
     50 H103       -2.4720    6.3890    1.9550 hc        1 MKK      0.048700
     51 H71        -0.5970   -2.0190    1.6680 hc        1 MKK      0.059200
     52 H72        -0.6460   -2.9770    0.1170 hc        1 MKK      0.059200
     53 H81         0.5880   -1.2790   -1.0920 hc        1 MKK      0.057700
     54 H82         0.5030   -0.1110    0.2880 hc        1 MKK      0.057700
     55 H111        1.8200   -1.6180    1.7440 h1        1 MKK      0.030700
     56 H112        1.7860   -2.9300    0.4810 h1        1 MKK      0.030700
     57 H121        2.4060    0.5630   -0.5300 h1        1 MKK      0.040450
     58 H122        3.1480    0.4810    1.1350 h1        1 MKK      0.040450
     59 H151        4.2760   -2.0130    1.6610 h1        1 MKK      0.040450
     60 H152        4.0920   -3.1580    0.2550 h1        1 MKK      0.040450
     61 H161        6.3930   -2.0860    0.5080 h1        1 MKK      0.064200
     62 H162        5.6140   -1.9100   -1.1400 h1        1 MKK      0.064200
     63 H181        4.5420    0.4220   -1.6410 h1        1 MKK      0.064200
     64 H182        4.6690    1.6710   -0.3190 h1        1 MKK      0.064200
     65 H261        5.8440    2.3180    1.4680 hc        1 MKK      0.064700
     66 H262        7.6540    2.1840    1.5320 hc        1 MKK      0.064700
     67 H263        6.8210    2.4010   -0.0680 hc        1 MKK      0.064700
@<TRIPOS>BOND
     1    1    2 ar  
     2    1    6 ar  
     3    1   22 1   
     4    2    3 ar  
     5    2   35 1   
     6    3    4 ar  
     7    3    7 1   
     8    4    5 ar  
     9    4   21 1   
    10    5    6 ar  
    11    5   36 1   
    12    6   37 1   
    13    7    8 1   
    14    7   11 1   
    15    8    9 2   
    16    9   10 1   
    17    9   18 1   
    18   10   11 1   
    19   10   12 1   
    20   10   23 1   
    21   11   38 1   
    22   11   39 1   
    23   12   13 ar  
    24   12   17 ar  
    25   13   14 ar  
    26   13   40 1   
    27   14   15 ar  
    28   14   41 1   
    29   15   16 ar  
    30   15   42 1   
    31   16   17 ar  
    32   16   43 1   
    33   17   44 1   
    34   18   19 1   
    35   18   20 2   
    36   19   45 1   
    37   19   46 1   
    38   19   47 1   
    39   22   48 1   
    40   22   49 1   
    41   22   50 1   
    42   23   24 1   
    43   23   51 1   
    44   23   52 1   
    45   24   25 1   
    46   24   53 1   
    47   24   54 1   
    48   25   26 1   
    49   25   55 1   
    50   25   56 1   
    51   26   27 1   
    52   26   28 1   
    53   27   30 1   
    54   27   57 1   
    55   27   58 1   
    56   28   29 1   
    57   28   59 1   
    58   28   60 1   
    59   29   31 1   
    60   29   61 1   
    61   29   62 1   
    62   30   31 1   
    63   30   63 1   
    64   30   64 1   
    65   31   32 1   
    66   32   33 1   
    67   32   34 2   
    68   33   65 1   
    69   33   66 1   
    70   33   67 1   
@<TRIPOS>SUBSTRUCTURE
     1 MKK         1 TEMP              0 ****  ****    0 ROOT
