@<TRIPOS>MOLECULE
MKR
   66    64     1     0     0
SMALL
bcc


@<TRIPOS>ATOM
      1 C1         -6.3710   -1.6100   -2.6860 c1        1 MKR      0.078000
      2 C2         -5.0030   -1.2630   -2.5930 c1        1 MKR     -0.139000
      3 C3         -4.3040   -1.4940   -1.4140 c1        1 MKR      0.014000
      4 C4         -5.0010   -2.1140   -0.2390 c2        1 MKR      0.022000
      5 C5         -6.3340   -2.4510   -0.3320 c1        1 MKR     -0.108000
      6 C6         -7.0480   -2.2110   -1.5450 c1        1 MKR     -0.154000
      7 N2         -2.8670   -1.1570   -1.2540 n2        1 MKR     -0.151000
      8 N12        -1.8280   -1.1150   -2.0550 n2        1 MKR      0.009000
      9 C8         -0.6950   -1.6030   -1.5040 c1        1 MKR     -0.189000
     10 C14        -0.6940   -1.5680   -0.2640 c3        1 MKR      0.020000
     11 C15        -2.2990   -1.3480    0.0420 c3        1 MKR     -0.076000
     12 C18        -0.4100   -2.9400    0.1550 c2        1 MKR     -0.076000
     13 C20         0.5930   -1.5110   -2.2520 c1        1 MKR      0.302000
     14 C9          0.6060   -0.9970   -3.6760 c3        1 MKR     -0.261000
     15 O25         1.6220   -1.9520   -1.7550 o         1 MKR     -0.276000
     16 C26         0.0040   -3.2050    1.4620 c2        1 MKR     -0.120000
     17 C27         0.6060   -4.4220    1.7680 c1        1 MKR     -0.126000
     18 C28         0.7990   -5.3880    0.7580 c1        1 MKR     -0.123000
     19 C29         0.3880   -5.1250   -0.5410 c1        1 MKR     -0.123000
     20 C30        -0.2200   -3.8990   -0.8490 c1        1 MKR     -0.128000
     21 O1         -4.1270   -2.5400    0.9610 os        1 MKR     -0.197000
     22 F1         -6.9930   -1.5510   -3.8720 f         1 MKR     -0.104000
     23 C7         -2.7840   -2.4500    0.8070 c3        1 MKR     -0.039000
     24 C10         0.3760   -0.6930    0.5100 c3        1 MKR     -0.149000
     25 C11         0.1890    0.8290    0.1290 c3        1 MKR     -0.165000
     26 C12         0.8140    1.7590    1.2930 c3        1 MKR     -0.059000
     27 N3          1.9620    2.4790    0.7730 n3        1 MKR     -0.254000
     28 C16         3.1440    2.1240    1.5350 c3        1 MKR     -0.098000
     29 C17         1.6960    3.8680    0.8040 c3        1 MKR     -0.098000
     30 C19         4.3470    2.9530    1.1480 c3        1 MKR     -0.032000
     31 C21         2.9090    4.6960    0.4210 c3        1 MKR     -0.032000
     32 N1          4.0680    4.3300    1.1700 n         1 MKR     -0.321000
     33 C22         4.8780    5.2850    1.8910 c2        1 MKR      0.296000
     34 C24         4.5640    6.7860    1.7960 c3        1 MKR     -0.238000
     35 O2          5.8880    4.8940    2.5370 o         1 MKR     -0.369000
     36 H2         -4.5500   -0.8610   -3.3560 ha        1 MKR      0.170000
     37 H5         -6.7880   -2.8500    0.4270 ha        1 MKR      0.158000
     38 H6         -8.0130   -2.4550   -1.6110 ha        1 MKR      0.154000
     39 H15        -2.4170   -0.4970    0.5830 h1        1 MKR      0.139000
     40 H91         0.7790   -1.7370   -4.2850 hc        1 MKR      0.112000
     41 H92         1.3010   -0.3300   -3.7710 hc        1 MKR      0.112000
     42 H93        -0.2590   -0.5960   -3.8870 hc        1 MKR      0.112000
     43 H26        -0.1290   -2.5400    2.1570 ha        1 MKR      0.136000
     44 H27         0.8990   -4.6090    2.6960 ha        1 MKR      0.137000
     45 H28         1.2280   -6.2540    0.9770 ha        1 MKR      0.136500
     46 H29         0.5240   -5.8080   -1.2550 ha        1 MKR      0.136500
     47 H30        -0.5160   -3.7080   -1.7850 ha        1 MKR      0.134000
     48 H71        -2.3720   -2.3950    1.7200 h1        1 MKR      0.116000
     49 H72        -2.4790   -3.2600    0.3860 h1        1 MKR      0.116000
     50 H101        0.2510   -0.8060    1.4860 hc        1 MKR      0.098500
     51 H102        1.2940   -0.9880    0.2560 hc        1 MKR      0.098500
     52 H111       -0.7470    1.0230    0.0320 hc        1 MKR      0.101500
     53 H112        0.6390    1.0080   -0.6980 hc        1 MKR      0.101500
     54 H121        0.1290    2.4090    1.6020 h1        1 MKR      0.068000
     55 H122        1.0850    1.2170    2.0180 h1        1 MKR      0.068000
     56 H161        2.9600    2.2610    2.4760 h1        1 MKR      0.082500
     57 H162        3.3400    1.2050    1.3910 h1        1 MKR      0.082500
     58 H171        1.4170    4.1170    1.7150 h1        1 MKR      0.082500
     59 H172        0.9510    4.0700    0.1690 h1        1 MKR      0.082500
     60 H191        4.6190    2.7090    0.2790 h1        1 MKR      0.103750
     61 H192        5.0870    2.7630    1.7820 h1        1 MKR      0.103750
     62 H211        3.0920    4.5700   -0.5290 h1        1 MKR      0.103750
     63 H212        2.7130    5.6260    0.5800 h1        1 MKR      0.103750
     64 H241        4.4440    7.0380    0.8460 hc        1 MKR      0.103667
     65 H242        5.3050    7.2990    2.1790 hc        1 MKR      0.103667
     66 H243        3.7390    6.9810    2.2920 hc        1 MKR      0.103667
@<TRIPOS>BOND
     1    1    6 1   
     2    1   22 1   
     3    2    3 1   
     4    2   36 1   
     5    3    4 1   
     6    4    5 1   
     7    4   21 1   
     8    5   37 1   
     9    6   38 1   
    10    7    8 1   
    11    7   11 1   
    12    8    9 1   
    13    9   10 1   
    14   10   11 1   
    15   10   12 1   
    16   10   24 1   
    17   11   23 1   
    18   11   39 1   
    19   12   16 1   
    20   12   20 1   
    21   13   14 1   
    22   13   15 1   
    23   14   40 1   
    24   14   41 1   
    25   14   42 1   
    26   16   17 1   
    27   16   43 1   
    28   17   44 1   
    29   18   19 1   
    30   18   45 1   
    31   19   46 1   
    32   20   47 1   
    33   21   23 1   
    34   23   48 1   
    35   23   49 1   
    36   24   25 1   
    37   24   50 1   
    38   24   51 1   
    39   25   26 1   
    40   25   52 1   
    41   25   53 1   
    42   26   27 1   
    43   26   54 1   
    44   26   55 1   
    45   27   28 1   
    46   27   29 1   
    47   28   30 1   
    48   28   56 1   
    49   28   57 1   
    50   29   31 1   
    51   29   58 1   
    52   29   59 1   
    53   30   32 1   
    54   30   60 1   
    55   30   61 1   
    56   31   32 1   
    57   31   62 1   
    58   31   63 1   
    59   32   33 1   
    60   33   34 1   
    61   33   35 1   
    62   34   64 1   
    63   34   65 1   
    64   34   66 1   
@<TRIPOS>SUBSTRUCTURE
     1 MKR         1 TEMP              0 ****  ****    0 ROOT
