@<TRIPOS>MOLECULE
MKR
   66    70     1     0     0
SMALL
bcc


@<TRIPOS>ATOM
      1 C1          3.0500    4.5150    0.6600 ca        1 MKR      0.112900
      2 C2          2.3590    3.3270    0.9460 ca        1 MKR     -0.140000
      3 C3          2.3050    2.3060   -0.0200 ca        1 MKR      0.095600
      4 C4          2.9800    2.4980   -1.2500 ca        1 MKR      0.067100
      5 C5          3.6580    3.6920   -1.5270 ca        1 MKR     -0.108000
      6 C6          3.6920    4.7040   -0.5790 ca        1 MKR     -0.154000
      7 N2          1.5000    1.1420    0.1880 nh        1 MKR     -0.304100
      8 N12         1.5150    0.5380    1.4030 n2        1 MKR     -0.367400
      9 C8          1.3760   -0.7680    1.2850 ce        1 MKR      0.246300
     10 C14         1.3500   -1.2530   -0.1810 c3        1 MKR     -0.048000
     11 C15         1.5270    0.1270   -0.9190 c3        1 MKR      0.121500
     12 C18         2.4710   -2.2040   -0.4720 ca        1 MKR     -0.082300
     13 C20         1.2130   -1.6930    2.4390 c         1 MKR      0.516800
     14 C9          1.9850   -1.3360    3.6660 c3        1 MKR     -0.192100
     15 O25         0.4900   -2.6890    2.3660 o         1 MKR     -0.507100
     16 C26         3.6330   -2.1960    0.3140 ca        1 MKR     -0.123500
     17 C27         4.6760   -3.0800    0.0500 ca        1 MKR     -0.126500
     18 C28         4.5770   -3.9880   -1.0040 ca        1 MKR     -0.121000
     19 C29         3.4280   -4.0020   -1.7930 ca        1 MKR     -0.126500
     20 C30         2.3820   -3.1180   -1.5300 ca        1 MKR     -0.123500
     21 O1          2.9700    1.5500   -2.2620 os        1 MKR     -0.313900
     22 F1          3.0950    5.4970    1.5930 f         1 MKR     -0.138900
     23 C7          2.7790    0.2150   -1.7880 c3        1 MKR      0.111400
     24 C10        -0.0070   -1.8660   -0.5180 c3        1 MKR     -0.067400
     25 C11        -1.1830   -1.0800    0.0270 c3        1 MKR     -0.087400
     26 C12        -2.4830   -1.6770   -0.5110 c3        1 MKR      0.173800
     27 N3         -3.6860   -1.1350    0.1080 n3        1 MKR     -0.726600
     28 C16        -4.8720   -1.8800   -0.2970 c3        1 MKR      0.142800
     29 C17        -3.8290    0.3000   -0.0830 c3        1 MKR      0.142800
     30 C19        -6.1790   -1.3110    0.2940 c3        1 MKR      0.082500
     31 C21        -5.1410    0.8620    0.5100 c3        1 MKR      0.082500
     32 N1         -6.3160    0.1200    0.1220 n         1 MKR     -0.462800
     33 C22        -7.2790    0.6300   -0.7460 c         1 MKR      0.653100
     34 C24        -7.3320    2.1150   -1.0080 c3        1 MKR     -0.170100
     35 O2         -8.1330   -0.1280   -1.2490 o         1 MKR     -0.609100
     36 H2          1.8600    3.2150    1.9210 ha        1 MKR      0.169000
     37 H5          4.1580    3.8100   -2.5000 ha        1 MKR      0.158000
     38 H6          4.2190    5.6470   -0.7820 ha        1 MKR      0.154000
     39 H15         0.6260    0.3480   -1.5580 h1        1 MKR      0.099700
     40 H91         3.0640   -1.1950    3.4130 hc        1 MKR      0.072033
     41 H92         1.5910   -0.3780    4.0890 hc        1 MKR      0.072033
     42 H93         1.8890   -2.1410    4.4350 hc        1 MKR      0.072033
     43 H26         3.7270   -1.4880    1.1520 ha        1 MKR      0.135000
     44 H27         5.5790   -3.0630    0.6780 ha        1 MKR      0.136500
     45 H28         5.3990   -4.6880   -1.2110 ha        1 MKR      0.137000
     46 H29         3.3410   -4.7160   -2.6260 ha        1 MKR      0.136500
     47 H30         1.4840   -3.1510   -2.1650 ha        1 MKR      0.135000
     48 H71         3.6940   -0.1130   -1.2280 h1        1 MKR      0.076700
     49 H72         2.6560   -0.3910   -2.7240 h1        1 MKR      0.076700
     50 H101       -0.1020   -1.9430   -1.6340 hc        1 MKR      0.060200
     51 H102       -0.0350   -2.9050   -0.0910 hc        1 MKR      0.060200
     52 H111       -1.1750   -1.1280    1.1490 hc        1 MKR      0.058700
     53 H112       -1.1040   -0.0030   -0.2710 hc        1 MKR      0.058700
     54 H121       -2.4990   -1.5420   -1.6340 h1        1 MKR      0.032200
     55 H122       -2.4770   -2.7860   -0.3040 h1        1 MKR      0.032200
     56 H161       -4.9720   -1.9270   -1.4210 h1        1 MKR      0.039950
     57 H162       -4.7580   -2.9340    0.0830 h1        1 MKR      0.039950
     58 H171       -2.9770    0.8040    0.4530 h1        1 MKR      0.039950
     59 H172       -3.7710    0.5860   -1.1740 h1        1 MKR      0.039950
     60 H191       -7.0450   -1.8400   -0.1940 h1        1 MKR      0.064450
     61 H192       -6.2030   -1.5220    1.4010 h1        1 MKR      0.064450
     62 H211       -5.0730    0.8220    1.6360 h1        1 MKR      0.064450
     63 H212       -5.2220    1.9400    0.2030 h1        1 MKR      0.064450
     64 H241       -6.4430    2.4360   -1.6020 hc        1 MKR      0.065367
     65 H242       -8.2570    2.3360   -1.5960 hc        1 MKR      0.065367
     66 H243       -7.3670    2.6900   -0.0520 hc        1 MKR      0.065367
@<TRIPOS>BOND
     1    1    2 ar  
     2    1    6 ar  
     3    1   22 1   
     4    2    3 ar  
     5    2   36 1   
     6    3    4 ar  
     7    3    7 1   
     8    4    5 ar  
     9    4   21 1   
    10    5    6 ar  
    11    5   37 1   
    12    6   38 1   
    13    7    8 1   
    14    7   11 1   
    15    8    9 2   
    16    9   10 1   
    17    9   13 1   
    18   10   11 1   
    19   10   12 1   
    20   10   24 1   
    21   11   23 1   
    22   11   39 1   
    23   12   16 ar  
    24   12   20 ar  
    25   13   14 1   
    26   13   15 2   
    27   14   40 1   
    28   14   41 1   
    29   14   42 1   
    30   16   17 ar  
    31   16   43 1   
    32   17   18 ar  
    33   17   44 1   
    34   18   19 ar  
    35   18   45 1   
    36   19   20 ar  
    37   19   46 1   
    38   20   47 1   
    39   21   23 1   
    40   23   48 1   
    41   23   49 1   
    42   24   25 1   
    43   24   50 1   
    44   24   51 1   
    45   25   26 1   
    46   25   52 1   
    47   25   53 1   
    48   26   27 1   
    49   26   54 1   
    50   26   55 1   
    51   27   28 1   
    52   27   29 1   
    53   28   30 1   
    54   28   56 1   
    55   28   57 1   
    56   29   31 1   
    57   29   58 1   
    58   29   59 1   
    59   30   32 1   
    60   30   60 1   
    61   30   61 1   
    62   31   32 1   
    63   31   62 1   
    64   31   63 1   
    65   32   33 1   
    66   33   34 1   
    67   33   35 2   
    68   34   64 1   
    69   34   65 1   
    70   34   66 1   
@<TRIPOS>SUBSTRUCTURE
     1 MKR         1 TEMP              0 ****  ****    0 ROOT
