@<TRIPOS>MOLECULE
MKR
   66    70     1     0     0
SMALL
bcc


@<TRIPOS>ATOM
      1 C1         -0.1800   -0.2070    0.1040 ca        1 MKR      0.112900
      2 C2          1.2100   -0.0160    0.0680 ca        1 MKR     -0.140000
      3 C3          1.9390    0.0070    1.2700 ca        1 MKR      0.095600
      4 C4          1.2460   -0.1950    2.4890 ca        1 MKR      0.067100
      5 C5         -0.1430   -0.3760    2.5130 ca        1 MKR     -0.108000
      6 C6         -0.8600   -0.3780    1.3250 ca        1 MKR     -0.154000
      7 N2          3.3320    0.3320    1.2780 nh        1 MKR     -0.304100
      8 N12         4.1410   -0.2120    0.3340 n2        1 MKR     -0.367400
      9 C8          5.3470   -0.4420    0.8180 ce        1 MKR      0.246300
     10 C14         5.4700   -0.1410    2.3280 c3        1 MKR     -0.048000
     11 C15         3.9940    0.3230    2.6260 c3        1 MKR      0.121500
     12 C18         5.8530   -1.3610    3.1080 ca        1 MKR     -0.082300
     13 C20         6.4970   -0.9030   -0.0040 c         1 MKR      0.516800
     14 C9          6.1630   -1.8510   -1.1080 c3        1 MKR     -0.192100
     15 O25         7.6460   -0.5210    0.2290 o         1 MKR     -0.507100
     16 C26         5.5940   -2.6420    2.6000 ca        1 MKR     -0.123500
     17 C27         5.9520   -3.7800    3.3200 ca        1 MKR     -0.126500
     18 C28         6.5750   -3.6560    4.5610 ca        1 MKR     -0.121000
     19 C29         6.8350   -2.3880    5.0780 ca        1 MKR     -0.126500
     20 C30         6.4770   -1.2480    4.3580 ca        1 MKR     -0.123500
     21 O1          1.8810   -0.1780    3.7210 os        1 MKR     -0.313900
     22 F1         -0.8770   -0.2240   -1.0590 f         1 MKR     -0.138900
     23 C7          3.2630   -0.5390    3.6510 c3        1 MKR      0.111400
     24 C10         6.4460    1.0080    2.5670 c3        1 MKR     -0.067400
     25 C11         6.2890    2.1550    1.5890 c3        1 MKR     -0.087400
     26 C12         7.1870    3.3150    2.0210 c3        1 MKR      0.173800
     27 N3          7.2740    4.3930    1.0450 n3        1 MKR     -0.726600
     28 C16         8.2970    5.3630    1.4170 c3        1 MKR      0.142800
     29 C17         5.9880    5.0100    0.7600 c3        1 MKR      0.142800
     30 C19         8.3910    6.5520    0.4380 c3        1 MKR      0.082500
     31 C21         6.0920    6.2020   -0.2200 c3        1 MKR      0.082500
     32 N1          7.1110    7.1580    0.1380 n         1 MKR     -0.462800
     33 C22         6.8160    8.4370    0.6050 c         1 MKR      0.653100
     34 C24         5.4370    9.0080    0.3890 c3        1 MKR     -0.170100
     35 O2          7.7070    9.1300    1.1380 o         1 MKR     -0.609100
     36 H2          1.7110    0.1240   -0.9030 ha        1 MKR      0.169000
     37 H5         -0.6490   -0.5150    3.4800 ha        1 MKR      0.158000
     38 H6         -1.9500   -0.5180    1.3270 ha        1 MKR      0.154000
     39 H15         3.9840    1.3930    2.9780 h1        1 MKR      0.099700
     40 H91         5.5830   -2.7180   -0.7060 hc        1 MKR      0.072033
     41 H92         7.0960   -2.2270   -1.5950 hc        1 MKR      0.072033
     42 H93         5.5360   -1.3280   -1.8730 hc        1 MKR      0.072033
     43 H26         5.1060   -2.7570    1.6190 ha        1 MKR      0.135000
     44 H27         5.7450   -4.7770    2.9040 ha        1 MKR      0.136500
     45 H28         6.8610   -4.5540    5.1280 ha        1 MKR      0.137000
     46 H29         7.3270   -2.2820    6.0560 ha        1 MKR      0.136500
     47 H30         6.6960   -0.2590    4.7860 ha        1 MKR      0.135000
     48 H71         3.3480   -1.6310    3.4090 h1        1 MKR      0.076700
     49 H72         3.6480   -0.3390    4.6860 h1        1 MKR      0.076700
     50 H101        6.3040    1.3920    3.6110 hc        1 MKR      0.060200
     51 H102        7.4900    0.5990    2.4820 hc        1 MKR      0.060200
     52 H111        6.5760    1.8100    0.5600 hc        1 MKR      0.058700
     53 H112        5.2200    2.4920    1.5520 hc        1 MKR      0.058700
     54 H121        6.8240    3.6930    3.0230 h1        1 MKR      0.032200
     55 H122        8.2320    2.9170    2.1670 h1        1 MKR      0.032200
     56 H161        8.1320    5.7630    2.4600 h1        1 MKR      0.039950
     57 H162        9.2900    4.8330    1.4040 h1        1 MKR      0.039950
     58 H171        5.3350    4.2320    0.2730 h1        1 MKR      0.039950
     59 H172        5.4710    5.3570    1.7020 h1        1 MKR      0.039950
     60 H191        8.8310    6.1920   -0.5350 h1        1 MKR      0.064450
     61 H192        9.0830    7.3210    0.8840 h1        1 MKR      0.064450
     62 H211        5.0810    6.6880   -0.2760 h1        1 MKR      0.064450
     63 H212        6.3470    5.8030   -1.2450 h1        1 MKR      0.064450
     64 H241        4.6910    8.4670    1.0190 hc        1 MKR      0.065367
     65 H242        5.1370    8.9370   -0.6840 hc        1 MKR      0.065367
     66 H243        5.4500   10.0840    0.6910 hc        1 MKR      0.065367
@<TRIPOS>BOND
     1    1    2 ar  
     2    1    6 ar  
     3    1   22 1   
     4    2    3 ar  
     5    2   36 1   
     6    3    4 ar  
     7    3    7 1   
     8    4    5 ar  
     9    4   21 1   
    10    5    6 ar  
    11    5   37 1   
    12    6   38 1   
    13    7    8 1   
    14    7   11 1   
    15    8    9 2   
    16    9   10 1   
    17    9   13 1   
    18   10   11 1   
    19   10   12 1   
    20   10   24 1   
    21   11   23 1   
    22   11   39 1   
    23   12   16 ar  
    24   12   20 ar  
    25   13   14 1   
    26   13   15 2   
    27   14   40 1   
    28   14   41 1   
    29   14   42 1   
    30   16   17 ar  
    31   16   43 1   
    32   17   18 ar  
    33   17   44 1   
    34   18   19 ar  
    35   18   45 1   
    36   19   20 ar  
    37   19   46 1   
    38   20   47 1   
    39   21   23 1   
    40   23   48 1   
    41   23   49 1   
    42   24   25 1   
    43   24   50 1   
    44   24   51 1   
    45   25   26 1   
    46   25   52 1   
    47   25   53 1   
    48   26   27 1   
    49   26   54 1   
    50   26   55 1   
    51   27   28 1   
    52   27   29 1   
    53   28   30 1   
    54   28   56 1   
    55   28   57 1   
    56   29   31 1   
    57   29   58 1   
    58   29   59 1   
    59   30   32 1   
    60   30   60 1   
    61   30   61 1   
    62   31   32 1   
    63   31   62 1   
    64   31   63 1   
    65   32   33 1   
    66   33   34 1   
    67   33   35 2   
    68   34   64 1   
    69   34   65 1   
    70   34   66 1   
@<TRIPOS>SUBSTRUCTURE
     1 MKR         1 TEMP              0 ****  ****    0 ROOT
