@<TRIPOS>MOLECULE
MKR
   66    70     1     0     0
SMALL
bcc


@<TRIPOS>ATOM
      1 C1         -0.1780   -0.2050    0.1000 ca        1 MKR      0.112900
      2 C2          1.2120   -0.0140    0.0650 ca        1 MKR     -0.140000
      3 C3          1.9410    0.0070    1.2680 ca        1 MKR      0.095600
      4 C4          1.2470   -0.1960    2.4860 ca        1 MKR      0.067100
      5 C5         -0.1420   -0.3770    2.5090 ca        1 MKR     -0.108000
      6 C6         -0.8580   -0.3780    1.3210 ca        1 MKR     -0.154000
      7 N2          3.3330    0.3320    1.2770 nh        1 MKR     -0.304100
      8 N12         4.1430   -0.2110    0.3320 n2        1 MKR     -0.367400
      9 C8          5.3480   -0.4410    0.8170 ce        1 MKR      0.246300
     10 C14         5.4710   -0.1410    2.3270 c3        1 MKR     -0.048000
     11 C15         3.9950    0.3220    2.6250 c3        1 MKR      0.121500
     12 C18         5.8540   -1.3620    3.1070 ca        1 MKR     -0.082300
     13 C20         6.4990   -0.9010   -0.0050 c         1 MKR      0.516800
     14 C9          6.1660   -1.8490   -1.1090 c3        1 MKR     -0.192100
     15 O25         7.6480   -0.5190    0.2290 o         1 MKR     -0.507100
     16 C26         5.5940   -2.6430    2.5970 ca        1 MKR     -0.123500
     17 C27         5.9530   -3.7810    3.3160 ca        1 MKR     -0.126500
     18 C28         6.5750   -3.6590    4.5580 ca        1 MKR     -0.121000
     19 C29         6.8350   -2.3910    5.0750 ca        1 MKR     -0.126500
     20 C30         6.4780   -1.2510    4.3570 ca        1 MKR     -0.123500
     21 O1          1.8820   -0.1800    3.7180 os        1 MKR     -0.313900
     22 F1         -0.8750   -0.2210   -1.0630 f         1 MKR     -0.138900
     23 C7          3.2640   -0.5410    3.6490 c3        1 MKR      0.111400
     24 C10         6.4470    1.0070    2.5670 c3        1 MKR     -0.067400
     25 C11         6.2900    2.1560    1.5910 c3        1 MKR     -0.087400
     26 C12         7.1860    3.3150    2.0240 c3        1 MKR      0.173800
     27 N3          7.2750    4.3940    1.0490 n3        1 MKR     -0.726600
     28 C16         8.2940    5.3660    1.4250 c3        1 MKR      0.142800
     29 C17         5.9890    5.0080    0.7590 c3        1 MKR      0.142800
     30 C19         8.3890    6.5560    0.4470 c3        1 MKR      0.082500
     31 C21         6.0940    6.2010   -0.2190 c3        1 MKR      0.082500
     32 N1          7.1090    7.1590    0.1420 n         1 MKR     -0.462800
     33 C22         6.8100    8.4370    0.6090 c         1 MKR      0.653100
     34 C24         5.4300    9.0050    0.3880 c3        1 MKR     -0.170100
     35 O2          7.6980    9.1320    1.1450 o         1 MKR     -0.609100
     36 H2          1.7130    0.1260   -0.9050 ha        1 MKR      0.169000
     37 H5         -0.6490   -0.5170    3.4760 ha        1 MKR      0.158000
     38 H6         -1.9490   -0.5180    1.3220 ha        1 MKR      0.154000
     39 H15         3.9850    1.3920    2.9780 h1        1 MKR      0.099700
     40 H91         5.5390   -1.3260   -1.8740 hc        1 MKR      0.072033
     41 H92         5.5870   -2.7160   -0.7080 hc        1 MKR      0.072033
     42 H93         7.0990   -2.2240   -1.5970 hc        1 MKR      0.072033
     43 H26         5.1060   -2.7570    1.6160 ha        1 MKR      0.135000
     44 H27         5.7450   -4.7780    2.9000 ha        1 MKR      0.136500
     45 H28         6.8600   -4.5570    5.1250 ha        1 MKR      0.137000
     46 H29         7.3270   -2.2860    6.0540 ha        1 MKR      0.136500
     47 H30         6.6970   -0.2610    4.7850 ha        1 MKR      0.135000
     48 H71         3.3490   -1.6330    3.4060 h1        1 MKR      0.076700
     49 H72         3.6480   -0.3420    4.6840 h1        1 MKR      0.076700
     50 H101        7.4910    0.5990    2.4830 hc        1 MKR      0.060200
     51 H102        6.3040    1.3910    3.6120 hc        1 MKR      0.060200
     52 H111        5.2210    2.4910    1.5530 hc        1 MKR      0.058700
     53 H112        6.5790    1.8120    0.5620 hc        1 MKR      0.058700
     54 H121        6.8220    3.6930    3.0260 h1        1 MKR      0.032200
     55 H122        8.2320    2.9180    2.1720 h1        1 MKR      0.032200
     56 H161        9.2890    4.8380    1.4150 h1        1 MKR      0.039950
     57 H162        8.1250    5.7660    2.4680 h1        1 MKR      0.039950
     58 H171        5.4670    5.3540    1.7000 h1        1 MKR      0.039950
     59 H172        5.3390    4.2300    0.2700 h1        1 MKR      0.039950
     60 H191        8.8340    6.1970   -0.5240 h1        1 MKR      0.064450
     61 H192        9.0780    7.3260    0.8960 h1        1 MKR      0.064450
     62 H211        6.3530    5.8030   -1.2430 h1        1 MKR      0.064450
     63 H212        5.0810    6.6850   -0.2790 h1        1 MKR      0.064450
     64 H241        5.4400   10.0820    0.6900 hc        1 MKR      0.065367
     65 H242        5.1340    8.9340   -0.6860 hc        1 MKR      0.065367
     66 H243        4.6830    8.4630    1.0160 hc        1 MKR      0.065367
@<TRIPOS>BOND
     1    1    2 ar  
     2    1    6 ar  
     3    1   22 1   
     4    2    3 ar  
     5    2   36 1   
     6    3    4 ar  
     7    3    7 1   
     8    4    5 ar  
     9    4   21 1   
    10    5    6 ar  
    11    5   37 1   
    12    6   38 1   
    13    7    8 1   
    14    7   11 1   
    15    8    9 2   
    16    9   10 1   
    17    9   13 1   
    18   10   11 1   
    19   10   12 1   
    20   10   24 1   
    21   11   23 1   
    22   11   39 1   
    23   12   16 ar  
    24   12   20 ar  
    25   13   14 1   
    26   13   15 2   
    27   14   40 1   
    28   14   41 1   
    29   14   42 1   
    30   16   17 ar  
    31   16   43 1   
    32   17   18 ar  
    33   17   44 1   
    34   18   19 ar  
    35   18   45 1   
    36   19   20 ar  
    37   19   46 1   
    38   20   47 1   
    39   21   23 1   
    40   23   48 1   
    41   23   49 1   
    42   24   25 1   
    43   24   50 1   
    44   24   51 1   
    45   25   26 1   
    46   25   52 1   
    47   25   53 1   
    48   26   27 1   
    49   26   54 1   
    50   26   55 1   
    51   27   28 1   
    52   27   29 1   
    53   28   30 1   
    54   28   56 1   
    55   28   57 1   
    56   29   31 1   
    57   29   58 1   
    58   29   59 1   
    59   30   32 1   
    60   30   60 1   
    61   30   61 1   
    62   31   32 1   
    63   31   62 1   
    64   31   63 1   
    65   32   33 1   
    66   33   34 1   
    67   33   35 2   
    68   34   64 1   
    69   34   65 1   
    70   34   66 1   
@<TRIPOS>SUBSTRUCTURE
     1 MKR         1 TEMP              0 ****  ****    0 ROOT
