@<TRIPOS>MOLECULE
MKR
   66    70     1     0     0
SMALL
bcc


@<TRIPOS>ATOM
      1 C1         -0.1850   -0.2040    0.1220 ca        1 MKR      0.112900
      2 C2          1.2050   -0.0130    0.0810 ca        1 MKR     -0.140000
      3 C3          1.9380    0.0090    1.2810 ca        1 MKR      0.095600
      4 C4          1.2490   -0.1930    2.5030 ca        1 MKR      0.067100
      5 C5         -0.1400   -0.3740    2.5300 ca        1 MKR     -0.108000
      6 C6         -0.8610   -0.3750    1.3450 ca        1 MKR     -0.154000
      7 N2          3.3310    0.3330    1.2850 nh        1 MKR     -0.304100
      8 N12         4.1370   -0.2110    0.3370 n2        1 MKR     -0.367400
      9 C8          5.3440   -0.4410    0.8180 ce        1 MKR      0.246300
     10 C14         5.4720   -0.1410    2.3270 c3        1 MKR     -0.048000
     11 C15         3.9980    0.3240    2.6300 c3        1 MKR      0.121500
     12 C18         5.8580   -1.3610    3.1060 ca        1 MKR     -0.082300
     13 C20         6.4920   -0.9030   -0.0090 c         1 MKR      0.516800
     14 C9          6.1530   -1.8510   -1.1110 c3        1 MKR     -0.192100
     15 O25         7.6410   -0.5220    0.2210 o         1 MKR     -0.507100
     16 C26         5.5960   -2.6420    2.5980 ca        1 MKR     -0.123500
     17 C27         5.9560   -3.7800    3.3170 ca        1 MKR     -0.126500
     18 C28         6.5830   -3.6570    4.5560 ca        1 MKR     -0.121000
     19 C29         6.8450   -2.3890    5.0720 ca        1 MKR     -0.126500
     20 C30         6.4860   -1.2490    4.3540 ca        1 MKR     -0.123500
     21 O1          1.8890   -0.1760    3.7320 os        1 MKR     -0.313900
     22 F1         -0.8860   -0.2200   -1.0390 f         1 MKR     -0.138900
     23 C7          3.2700   -0.5380    3.6580 c3        1 MKR      0.111400
     24 C10         6.4500    1.0070    2.5630 c3        1 MKR     -0.067400
     25 C11         6.2900    2.1550    1.5860 c3        1 MKR     -0.087400
     26 C12         7.1890    3.3140    2.0150 c3        1 MKR      0.173800
     27 N3          7.2740    4.3920    1.0390 n3        1 MKR     -0.726600
     28 C16         8.2960    5.3640    1.4100 c3        1 MKR      0.142800
     29 C17         5.9880    5.0080    0.7550 c3        1 MKR      0.142800
     30 C19         8.3880    6.5530    0.4310 c3        1 MKR      0.082500
     31 C21         6.0890    6.2000   -0.2250 c3        1 MKR      0.082500
     32 N1          7.1070    7.1570    0.1320 n         1 MKR     -0.462800
     33 C22         6.8110    8.4350    0.6000 c         1 MKR      0.653100
     34 C24         5.4310    9.0050    0.3850 c3        1 MKR     -0.170100
     35 O2          7.7020    9.1300    1.1320 o         1 MKR     -0.609100
     36 H2          1.7030    0.1260   -0.8910 ha        1 MKR      0.169000
     37 H5         -0.6430   -0.5130    3.4990 ha        1 MKR      0.158000
     38 H6         -1.9510   -0.5140    1.3510 ha        1 MKR      0.154000
     39 H15         3.9900    1.3940    2.9830 h1        1 MKR      0.099700
     40 H91         5.5240   -1.3290   -1.8730 hc        1 MKR      0.072033
     41 H92         5.5760   -2.7180   -0.7070 hc        1 MKR      0.072033
     42 H93         7.0840   -2.2270   -1.6020 hc        1 MKR      0.072033
     43 H26         5.1040   -2.7570    1.6190 ha        1 MKR      0.135000
     44 H27         5.7460   -4.7770    2.9020 ha        1 MKR      0.136500
     45 H28         6.8700   -4.5560    5.1220 ha        1 MKR      0.137000
     46 H29         7.3410   -2.2840    6.0480 ha        1 MKR      0.136500
     47 H30         6.7070   -0.2600    4.7810 ha        1 MKR      0.135000
     48 H71         3.6590   -0.3380    4.6910 h1        1 MKR      0.076700
     49 H72         3.3530   -1.6310    3.4150 h1        1 MKR      0.076700
     50 H101        6.3110    1.3910    3.6080 hc        1 MKR      0.060200
     51 H102        7.4940    0.5990    2.4750 hc        1 MKR      0.060200
     52 H111        6.5740    1.8100    0.5560 hc        1 MKR      0.058700
     53 H112        5.2210    2.4910    1.5520 hc        1 MKR      0.058700
     54 H121        8.2350    2.9170    2.1590 h1        1 MKR      0.032200
     55 H122        6.8290    3.6930    3.0190 h1        1 MKR      0.032200
     56 H161        8.1320    5.7640    2.4530 h1        1 MKR      0.039950
     57 H162        9.2900    4.8350    1.3960 h1        1 MKR      0.039950
     58 H171        5.4710    5.3550    1.6970 h1        1 MKR      0.039950
     59 H172        5.3350    4.2300    0.2690 h1        1 MKR      0.039950
     60 H191        8.8280    6.1930   -0.5420 h1        1 MKR      0.064450
     61 H192        9.0800    7.3220    0.8770 h1        1 MKR      0.064450
     62 H211        5.0770    6.6850   -0.2800 h1        1 MKR      0.064450
     63 H212        6.3440    5.8020   -1.2500 h1        1 MKR      0.064450
     64 H241        5.4430   10.0810    0.6860 hc        1 MKR      0.065367
     65 H242        4.6860    8.4630    1.0150 hc        1 MKR      0.065367
     66 H243        5.1300    8.9340   -0.6880 hc        1 MKR      0.065367
@<TRIPOS>BOND
     1    1    2 ar  
     2    1    6 ar  
     3    1   22 1   
     4    2    3 ar  
     5    2   36 1   
     6    3    4 ar  
     7    3    7 1   
     8    4    5 ar  
     9    4   21 1   
    10    5    6 ar  
    11    5   37 1   
    12    6   38 1   
    13    7    8 1   
    14    7   11 1   
    15    8    9 2   
    16    9   10 1   
    17    9   13 1   
    18   10   11 1   
    19   10   12 1   
    20   10   24 1   
    21   11   23 1   
    22   11   39 1   
    23   12   16 ar  
    24   12   20 ar  
    25   13   14 1   
    26   13   15 2   
    27   14   40 1   
    28   14   41 1   
    29   14   42 1   
    30   16   17 ar  
    31   16   43 1   
    32   17   18 ar  
    33   17   44 1   
    34   18   19 ar  
    35   18   45 1   
    36   19   20 ar  
    37   19   46 1   
    38   20   47 1   
    39   21   23 1   
    40   23   48 1   
    41   23   49 1   
    42   24   25 1   
    43   24   50 1   
    44   24   51 1   
    45   25   26 1   
    46   25   52 1   
    47   25   53 1   
    48   26   27 1   
    49   26   54 1   
    50   26   55 1   
    51   27   28 1   
    52   27   29 1   
    53   28   30 1   
    54   28   56 1   
    55   28   57 1   
    56   29   31 1   
    57   29   58 1   
    58   29   59 1   
    59   30   32 1   
    60   30   60 1   
    61   30   61 1   
    62   31   32 1   
    63   31   62 1   
    64   31   63 1   
    65   32   33 1   
    66   33   34 1   
    67   33   35 2   
    68   34   64 1   
    69   34   65 1   
    70   34   66 1   
@<TRIPOS>SUBSTRUCTURE
     1 MKR         1 TEMP              0 ****  ****    0 ROOT
