@<TRIPOS>MOLECULE
MKS
   56    58     1     0     0
SMALL
bcc


@<TRIPOS>ATOM
      1 CAD         0.1900    0.2740    0.3950 c3        1 MKS     -0.060400
      2 CAS         1.5400   -0.1990   -0.0010 c2        1 MKS     -0.121400
      3 CAE         2.3990   -0.6760    1.1110 c3        1 MKS     -0.060400
      4 CAK         1.9760   -0.2130   -1.2700 c2        1 MKS     -0.161200
      5 CAO         1.1760    0.1970   -2.4510 c3        1 MKS     -0.016900
      6 CAX         1.8640    1.2550   -3.2520 ca        1 MKS      0.051700
      7 CBD         2.8800    0.9620   -4.1930 ca        1 MKS     -0.231600
      8 CAZ         3.3630   -0.4040   -4.4520 c         1 MKS      0.625300
      9 OAF         2.9720   -1.3900   -3.7990 o         1 MKS     -0.589100
     10 CBC         4.3480   -0.5500   -5.5280 ca        1 MKS     -0.333600
     11 CAV         4.8490   -1.8070   -5.9560 ca        1 MKS      0.261100
     12 OAI         4.4670   -3.0030   -5.4260 oh        1 MKS     -0.495100
     13 CAW         5.8070   -1.9120   -6.9900 ca        1 MKS     -0.171300
     14 CAN         6.3200   -3.2440   -7.4180 c3        1 MKS      0.019100
     15 CAJ         5.3650   -3.9380   -8.3190 c2        1 MKS     -0.170200
     16 CAR         5.5880   -4.2250   -9.6100 c2        1 MKS     -0.116400
     17 CAC         4.5810   -4.9530  -10.4220 c3        1 MKS     -0.060900
     18 CAB         6.8340   -3.8530  -10.3240 c3        1 MKS     -0.060900
     19 CAT         6.2640   -0.7300   -7.5960 ca        1 MKS      0.216100
     20 OAG         7.2020   -0.8580   -8.5900 oh        1 MKS     -0.484100
     21 CAL         5.7940    0.5320   -7.2030 ca        1 MKS     -0.292000
     22 CBA         4.8440    0.5930   -6.1810 ca        1 MKS      0.221100
     23 OAQ         4.4450    1.8780   -5.8640 os        1 MKS     -0.222200
     24 CBB         3.4470    2.0260   -4.9160 ca        1 MKS      0.184100
     25 CAM         3.0550    3.3610   -4.7390 ca        1 MKS     -0.251000
     26 CAU         2.0480    3.6350   -3.8150 ca        1 MKS      0.164100
     27 OAH         1.6050    4.9100   -3.5730 oh        1 MKS     -0.481100
     28 CAY         1.4510    2.5860   -3.0760 ca        1 MKS      0.031100
     29 OAP         0.3620    2.8490   -2.2580 os        1 MKS     -0.324900
     30 CAA         0.6780    3.6210   -1.0970 c3        1 MKS      0.110700
     31 H1         -0.5940   -0.4290    0.0170 hc        1 MKS      0.041200
     32 H2          0.0950    0.3370    1.5070 hc        1 MKS      0.041200
     33 H3         -0.0150    1.2890   -0.0340 hc        1 MKS      0.041200
     34 H4          3.3890   -1.0420    0.7420 hc        1 MKS      0.041200
     35 H5          1.8930   -1.5140    1.6530 hc        1 MKS      0.041200
     36 H6          2.5790    0.1530    1.8400 hc        1 MKS      0.041200
     37 H7          2.9860   -0.5850   -1.5140 ha        1 MKS      0.134000
     38 H8          0.1620    0.5740   -2.1390 hc        1 MKS      0.080700
     39 H9          1.0030   -0.7110   -3.0970 hc        1 MKS      0.080700
     40 H10         3.8400   -2.8770   -4.6940 ho        1 MKS      0.467000
     41 H11         6.4710   -3.8840   -6.5030 hc        1 MKS      0.064200
     42 H12         7.3230   -3.1160   -7.9110 hc        1 MKS      0.064200
     43 H13         4.4160   -4.2230   -7.8330 ha        1 MKS      0.128000
     44 H14         3.6930   -5.2500   -9.8120 hc        1 MKS      0.040867
     45 H15         5.0360   -5.8770  -10.8580 hc        1 MKS      0.040867
     46 H16         4.2290   -4.3060  -11.2650 hc        1 MKS      0.040867
     47 H17         7.1100   -2.7880  -10.1100 hc        1 MKS      0.040867
     48 H18         6.7130   -3.9700  -11.4290 hc        1 MKS      0.040867
     49 H19         7.6790   -4.5060   -9.9930 hc        1 MKS      0.040867
     50 H20         7.4270    0.0290   -8.9100 ho        1 MKS      0.427000
     51 H21         6.1520    1.4530   -7.6800 ha        1 MKS      0.158000
     52 H22         3.5320    4.1570   -5.3270 ha        1 MKS      0.160000
     53 H23         2.0720    5.5120   -4.1730 ho        1 MKS      0.427000
     54 H24         1.0360    4.6370   -1.3920 h1        1 MKS      0.046367
     55 H25         1.4440    3.0990   -0.4760 h1        1 MKS      0.046367
     56 H26        -0.2990    3.6850   -0.5560 h1        1 MKS      0.046367
@<TRIPOS>BOND
     1    1    2 1   
     2    1   31 1   
     3    1   32 1   
     4    1   33 1   
     5    2    3 1   
     6    2    4 2   
     7    3   34 1   
     8    3   35 1   
     9    3   36 1   
    10    4    5 1   
    11    4   37 1   
    12    5    6 1   
    13    5   38 1   
    14    5   39 1   
    15    6    7 ar  
    16    6   28 ar  
    17    7    8 1   
    18    7   24 ar  
    19    8    9 2   
    20    8   10 1   
    21   10   11 ar  
    22   10   22 ar  
    23   11   12 1   
    24   11   13 ar  
    25   12   40 1   
    26   13   14 1   
    27   13   19 ar  
    28   14   15 1   
    29   14   41 1   
    30   14   42 1   
    31   15   16 2   
    32   15   43 1   
    33   16   17 1   
    34   16   18 1   
    35   17   44 1   
    36   17   45 1   
    37   17   46 1   
    38   18   47 1   
    39   18   48 1   
    40   18   49 1   
    41   19   20 1   
    42   19   21 ar  
    43   20   50 1   
    44   21   22 ar  
    45   21   51 1   
    46   22   23 1   
    47   23   24 1   
    48   24   25 ar  
    49   25   26 ar  
    50   25   52 1   
    51   26   27 1   
    52   26   28 ar  
    53   27   53 1   
    54   28   29 1   
    55   29   30 1   
    56   30   54 1   
    57   30   55 1   
    58   30   56 1   
@<TRIPOS>SUBSTRUCTURE
     1 MKS         1 TEMP              0 ****  ****    0 ROOT
