@<TRIPOS>MOLECULE
MKT
   53    55     1     0     0
SMALL
bcc


@<TRIPOS>ATOM
      1 CAA         0.2980    0.3060    0.3260 c3        1 MKT     -0.061400
      2 CAQ         1.7240    0.0190    0.0340 c2        1 MKT     -0.111400
      3 CAB         2.6110   -0.0750    1.2210 c3        1 MKT     -0.061400
      4 CAJ         2.2020   -0.1500   -1.2070 c2        1 MKT     -0.174200
      5 CAN         1.3920   -0.1050   -2.4510 c3        1 MKT      0.020100
      6 CAW         1.7660    1.0540   -3.3120 ca        1 MKT     -0.172300
      7 CAV         0.9820    2.2280   -3.3400 ca        1 MKT      0.265100
      8 OAI        -0.1150    2.1900   -2.5310 oh        1 MKT     -0.497100
      9 CAT         2.9130    1.0000   -4.1230 ca        1 MKT      0.214100
     10 OAG         3.6510   -0.1560   -4.0780 oh        1 MKT     -0.482100
     11 CAM         3.2890    2.0700   -4.9460 ca        1 MKT     -0.294000
     12 CAZ         2.4870    3.2150   -4.9450 ca        1 MKT      0.224100
     13 OAP         2.9410    4.2130   -5.7850 os        1 MKT     -0.221200
     14 CBB         1.3260    3.3360   -4.1600 ca        1 MKT     -0.334600
     15 CAY         0.5370    4.5690   -4.2100 c         1 MKT      0.625300
     16 OAE        -0.4950    4.7030   -3.5270 o         1 MKT     -0.588100
     17 CBC         1.0340    5.6260   -5.1100 ca        1 MKT     -0.206600
     18 CBA         2.2040    5.3850   -5.8510 ca        1 MKT      0.158100
     19 CAL         2.7480    6.3200   -6.7450 ca        1 MKT     -0.219000
     20 CAS         2.0870    7.5340   -6.8990 ca        1 MKT      0.105100
     21 OAF         2.5220    8.5240   -7.7500 oh        1 MKT     -0.508100
     22 CAU         0.9090    7.8110   -6.1690 ca        1 MKT      0.069100
     23 OAH         0.2380    9.0050   -6.3190 oh        1 MKT     -0.491100
     24 CAX         0.3790    6.8690   -5.2680 ca        1 MKT      0.028700
     25 CAO        -0.8680    7.2380   -4.5300 c3        1 MKT     -0.008900
     26 CAK        -0.5780    7.6680   -3.1390 c2        1 MKT     -0.168200
     27 CAR        -0.7640    8.9060   -2.6560 c2        1 MKT     -0.111400
     28 CAD        -1.2630   10.0380   -3.4740 c3        1 MKT     -0.062400
     29 CAC        -0.4810    9.2250   -1.2340 c3        1 MKT     -0.062400
     30 H1         -0.0910    1.1090   -0.3520 hc        1 MKT      0.041867
     31 H2          0.1640    0.6420    1.3830 hc        1 MKT      0.041867
     32 H3         -0.3220   -0.6130    0.1690 hc        1 MKT      0.041867
     33 H4          2.2230   -0.8500    1.9290 hc        1 MKT      0.041867
     34 H5          3.6560   -0.3480    0.9370 hc        1 MKT      0.041867
     35 H6          2.6360    0.9060    1.7580 hc        1 MKT      0.041867
     36 H7          3.2750   -0.3470   -1.3760 ha        1 MKT      0.123000
     37 H8          0.2930   -0.0620   -2.2180 hc        1 MKT      0.064200
     38 H9          1.5780   -1.0550   -3.0290 hc        1 MKT      0.064200
     39 H10        -0.6230    3.0160   -2.5900 ho        1 MKT      0.467000
     40 H11         4.3920   -0.0660   -4.6970 ho        1 MKT      0.427000
     41 H12         4.1850    2.0230   -5.5780 ha        1 MKT      0.158000
     42 H13         3.6670    6.0840   -7.2990 ha        1 MKT      0.160000
     43 H14         3.3370    8.2200   -8.1750 ho        1 MKT      0.438000
     44 H15         0.7260    9.5470   -6.9600 ho        1 MKT      0.437000
     45 H16        -1.5610    6.3490   -4.4960 hc        1 MKT      0.077700
     46 H17        -1.4070    8.0500   -5.0940 hc        1 MKT      0.077700
     47 H18        -0.2050    6.8590   -2.4860 ha        1 MKT      0.132000
     48 H21        -2.3560    9.9140   -3.6780 hc        1 MKT      0.042033
     49 H22        -0.7280   10.0860   -4.4570 hc        1 MKT      0.042033
     50 H23        -1.1150   11.0110   -2.9450 hc        1 MKT      0.042033
     51 H24         0.3340    9.9890   -1.1680 hc        1 MKT      0.042033
     52 H25        -1.3960    9.6470   -0.7480 hc        1 MKT      0.042033
     53 H26        -0.1630    8.3190   -0.6610 hc        1 MKT      0.042033
@<TRIPOS>BOND
     1    1    2 1   
     2    1   30 1   
     3    1   31 1   
     4    1   32 1   
     5    2    3 1   
     6    2    4 2   
     7    3   33 1   
     8    3   34 1   
     9    3   35 1   
    10    4    5 1   
    11    4   36 1   
    12    5    6 1   
    13    5   37 1   
    14    5   38 1   
    15    6    7 ar  
    16    6    9 ar  
    17    7    8 1   
    18    7   14 ar  
    19    8   39 1   
    20    9   10 1   
    21    9   11 ar  
    22   10   40 1   
    23   11   12 ar  
    24   11   41 1   
    25   12   13 1   
    26   12   14 ar  
    27   13   18 1   
    28   14   15 1   
    29   15   16 2   
    30   15   17 1   
    31   17   18 ar  
    32   17   24 ar  
    33   18   19 ar  
    34   19   20 ar  
    35   19   42 1   
    36   20   21 1   
    37   20   22 ar  
    38   21   43 1   
    39   22   23 1   
    40   22   24 ar  
    41   23   44 1   
    42   24   25 1   
    43   25   26 1   
    44   25   45 1   
    45   25   46 1   
    46   26   27 2   
    47   26   47 1   
    48   27   28 1   
    49   27   29 1   
    50   28   48 1   
    51   28   49 1   
    52   28   50 1   
    53   29   51 1   
    54   29   52 1   
    55   29   53 1   
@<TRIPOS>SUBSTRUCTURE
     1 MKT         1 TEMP              0 ****  ****    0 ROOT
