@<TRIPOS>MOLECULE
MKU
   56    59     1     0     0
SMALL
bcc


@<TRIPOS>ATOM
      1 CAB         0.2640    0.3110    0.4630 c3        1 MKU     -0.060400
      2 CAR         1.5870   -0.1910    0.0170 c2        1 MKU     -0.122400
      3 CAC         2.4860   -0.6640    1.0980 c3        1 MKU     -0.060400
      4 CAK         1.9670   -0.2330   -1.2690 c2        1 MKU     -0.160200
      5 CAN         1.1240    0.1730   -2.4220 c3        1 MKU     -0.017900
      6 CAW         1.7940    1.2070   -3.2680 ca        1 MKU      0.050700
      7 CBC         2.7740    0.8840   -4.2370 ca        1 MKU     -0.232600
      8 CAY         3.2310   -0.4920   -4.4890 c         1 MKU      0.625300
      9 OAF         2.8290   -1.4660   -3.8240 o         1 MKU     -0.594100
     10 CBB         4.2010   -0.6650   -5.5730 ca        1 MKU     -0.335600
     11 CAT         4.6950   -1.9310   -5.9740 ca        1 MKU      0.264100
     12 OAH         4.3240   -3.1170   -5.4130 oh        1 MKU     -0.501100
     13 CAV         5.6340   -2.0560   -7.0210 ca        1 MKU     -0.229300
     14 CAI         6.1230   -3.3960   -7.4310 c3        1 MKU     -0.014100
     15 CAJ         6.7630   -3.3490   -8.8020 c3        1 MKU     -0.102400
     16 CBD         7.6930   -2.1490   -8.9550 c3        1 MKU      0.153800
     17 CAD         8.1580   -2.0180  -10.4020 c3        1 MKU     -0.104100
     18 CAE         8.8880   -2.2340   -8.0170 c3        1 MKU     -0.104100
     19 OAP         6.9920   -0.9040   -8.6990 os        1 MKU     -0.318900
     20 CAU         6.0940   -0.8960   -7.6620 ca        1 MKU      0.227100
     21 CAM         5.6270    0.3780   -7.2960 ca        1 MKU     -0.236000
     22 CBA         4.6900    0.4600   -6.2660 ca        1 MKU      0.211100
     23 OAQ         4.2920    1.7530   -5.9760 os        1 MKU     -0.220200
     24 CAZ         3.3290    1.9290   -4.9990 ca        1 MKU      0.187100
     25 CAL         2.9550    3.2710   -4.8360 ca        1 MKU     -0.252000
     26 CAS         1.9820    3.5730   -3.8850 ca        1 MKU      0.163100
     27 OAG         1.5600    4.8570   -3.6540 oh        1 MKU     -0.481100
     28 CAX         1.4010    2.5460   -3.1040 ca        1 MKU      0.029100
     29 OAO         0.3450    2.8360   -2.2530 os        1 MKU     -0.325900
     30 CAA         0.7110    3.6270   -1.1210 c3        1 MKU      0.110700
     31 H1          0.2190    0.3940    1.5760 hc        1 MKU      0.040533
     32 H2         -0.5470   -0.3850    0.1310 hc        1 MKU      0.040533
     33 H3          0.0560    1.3210    0.0250 hc        1 MKU      0.040533
     34 H4          3.4520   -1.0540    0.6930 hc        1 MKU      0.040533
     35 H5          1.9900   -1.4840    1.6760 hc        1 MKU      0.040533
     36 H6          2.7110    0.1730    1.8040 hc        1 MKU      0.040533
     37 H7          2.9600   -0.6260   -1.5500 ha        1 MKU      0.133000
     38 H8          0.1310    0.5700   -2.0730 hc        1 MKU      0.080700
     39 H9          0.9090   -0.7420   -3.0460 hc        1 MKU      0.080700
     40 H10         3.6600   -2.9790   -4.7160 ho        1 MKU      0.467000
     41 H11         6.8590   -3.7690   -6.6690 hc        1 MKU      0.062700
     42 H12         5.2660   -4.1240   -7.4390 hc        1 MKU      0.062700
     43 H13         7.3500   -4.2870   -8.9790 hc        1 MKU      0.058700
     44 H14         5.9650   -3.2880   -9.5870 hc        1 MKU      0.058700
     45 H15         8.7500   -2.9220  -10.6780 hc        1 MKU      0.050200
     46 H16         7.2800   -1.9260  -11.0840 hc        1 MKU      0.050200
     47 H17         8.7950   -1.1090  -10.5170 hc        1 MKU      0.050200
     48 H18         9.5520   -1.3490   -8.1640 hc        1 MKU      0.050200
     49 H19         9.4660   -3.1640   -8.2280 hc        1 MKU      0.050200
     50 H20         8.5460   -2.2490   -6.9540 hc        1 MKU      0.050200
     51 H21         5.9880    1.2780   -7.8110 ha        1 MKU      0.171000
     52 H22         3.4200    4.0490   -5.4550 ha        1 MKU      0.160000
     53 H23         2.0120    5.4420   -4.2820 ho        1 MKU      0.426000
     54 H24        -0.2440    3.7100   -0.5430 h1        1 MKU      0.046367
     55 H25         1.0650    4.6350   -1.4480 h1        1 MKU      0.046367
     56 H26         1.4960    3.1110   -0.5180 h1        1 MKU      0.046367
@<TRIPOS>BOND
     1    1    2 1   
     2    1   31 1   
     3    1   32 1   
     4    1   33 1   
     5    2    3 1   
     6    2    4 2   
     7    3   34 1   
     8    3   35 1   
     9    3   36 1   
    10    4    5 1   
    11    4   37 1   
    12    5    6 1   
    13    5   38 1   
    14    5   39 1   
    15    6    7 ar  
    16    6   28 ar  
    17    7    8 1   
    18    7   24 ar  
    19    8    9 2   
    20    8   10 1   
    21   10   11 ar  
    22   10   22 ar  
    23   11   12 1   
    24   11   13 ar  
    25   12   40 1   
    26   13   14 1   
    27   13   20 ar  
    28   14   15 1   
    29   14   41 1   
    30   14   42 1   
    31   15   16 1   
    32   15   43 1   
    33   15   44 1   
    34   16   17 1   
    35   16   18 1   
    36   16   19 1   
    37   17   45 1   
    38   17   46 1   
    39   17   47 1   
    40   18   48 1   
    41   18   49 1   
    42   18   50 1   
    43   19   20 1   
    44   20   21 ar  
    45   21   22 ar  
    46   21   51 1   
    47   22   23 1   
    48   23   24 1   
    49   24   25 ar  
    50   25   26 ar  
    51   25   52 1   
    52   26   27 1   
    53   26   28 ar  
    54   27   53 1   
    55   28   29 1   
    56   29   30 1   
    57   30   54 1   
    58   30   55 1   
    59   30   56 1   
@<TRIPOS>SUBSTRUCTURE
     1 MKU         1 TEMP              0 ****  ****    0 ROOT
