@<TRIPOS>MOLECULE
MKY
   35    35     1     0     0
SMALL
bcc


@<TRIPOS>ATOM
      1 C1          0.5150   -0.5150    0.4160 c3        1 MKY     -0.130100
      2 C2          1.1890    0.8300    0.3360 c3        1 MKY      0.139400
      3 O3          1.9540    1.0930    1.5300 os        1 MKY     -0.429900
      4 C4          3.1860    0.5320    1.6290 c         1 MKY      0.615100
      5 O5          3.6520   -0.1400    0.7100 o         1 MKY     -0.521000
      6 C6          3.8220    0.8540    2.9720 c3        1 MKY     -0.020700
      7 C8          8.2360    3.6120    2.5750 ca        1 MKY      0.156100
      8 C9          6.9030    4.0510    2.6870 ca        1 MKY     -0.166000
      9 C10         5.8650    3.1390    2.8190 ca        1 MKY     -0.067000
     10 C11         6.1680    1.7680    2.8400 ca        1 MKY     -0.069200
     11 N12         5.2540    0.6950    2.9870 na        1 MKY     -0.116200
     12 C13         5.8910   -0.5370    2.9340 cc        1 MKY      0.527200
     13 N14         5.1790   -1.6810    3.0510 ne        1 MKY     -0.670700
     14 C15         5.7000   -2.8810    2.9280 c1        1 MKY      0.709800
     15 N16         6.1890   -6.6560    2.3170 n9        1 MKY     -1.018400
     16 N17         6.0330   -4.0090    2.9040 n2        1 MKY     -0.694800
     17 S18         7.6110   -0.3630    2.7760 ss        1 MKY      0.082900
     18 C19         7.5210    1.3300    2.7250 ca        1 MKY     -0.064100
     19 C20         8.5560    2.2430    2.5940 ca        1 MKY     -0.094000
     20 H1          0.4450    1.6730    0.3420 h1        1 MKY      0.075200
     21 H1A        -0.1470   -0.6500   -0.4730 hc        1 MKY      0.056033
     22 H1B         1.2770   -1.3310    0.4250 hc        1 MKY      0.056033
     23 H2         -0.1050   -0.5930    1.3410 hc        1 MKY      0.056033
     24 H2A         1.8580    0.9020   -0.5610 h1        1 MKY      0.075200
     25 H6          3.3590    0.1600    3.7370 h1        1 MKY      0.120700
     26 H6A         3.5640    1.9150    3.2570 h1        1 MKY      0.120700
     27 HO7         8.9580    5.3810    2.4410 ho        1 MKY      0.442000
     28 H9          6.6780    5.1300    2.6670 ha        1 MKY      0.165000
     29 H10         4.8290    3.5010    2.9020 ha        1 MKY      0.162000
     30 HN16        5.2890   -6.9900    2.0340 hn        1 MKY      0.380133
     31 HN1A        6.8470   -6.8050    1.5780 hn        1 MKY      0.380133
     32 HN17        6.1040   -5.0360    2.6750 hn        1 MKY      0.649400
     33 H20         9.6070    1.9260    2.5050 ha        1 MKY      0.182000
     34 H163        6.4870   -7.1530    3.1330 hn        1 MKY      0.380133
     35 O7          9.2940    4.4700    2.4440 oh        1 MKY     -0.470100
@<TRIPOS>BOND
     1    1    2 1   
     2    1   21 1   
     3    1   22 1   
     4    1   23 1   
     5    2    3 1   
     6    2   20 1   
     7    2   24 1   
     8    3    4 1   
     9    4    5 2   
    10    4    6 1   
    11    6   11 1   
    12    6   25 1   
    13    6   26 1   
    14    7    8 ar  
    15    7   19 ar  
    16    7   35 1   
    17    8    9 ar  
    18    8   28 1   
    19    9   10 ar  
    20    9   29 1   
    21   10   11 1   
    22   10   18 ar  
    23   11   12 2   
    24   12   13 1   
    25   12   17 1   
    26   13   14 2   
    27   14   16 2   
    28   15   30 1   
    29   15   31 1   
    30   15   34 1   
    31   16   32 1   
    32   17   18 1   
    33   18   19 ar  
    34   19   33 1   
    35   27   35 1   
@<TRIPOS>SUBSTRUCTURE
     1 MKY         1 TEMP              0 ****  ****    0 ROOT
