@<TRIPOS>MOLECULE
MKY
   34    35     1     0     0
SMALL
bcc


@<TRIPOS>ATOM
      1 C1          5.0120   -3.1640   -0.1490 c3        1 MKY     -0.101100
      2 C2          3.9160   -2.3720   -0.8170 c3        1 MKY      0.140400
      3 O3          3.0790   -1.8710    0.2420 os        1 MKY     -0.448900
      4 C4          2.0150   -1.1000   -0.1370 c         1 MKY      0.602100
      5 O5          1.8220   -0.9040   -1.3350 o         1 MKY     -0.521000
      6 C6          1.2440   -0.6090    1.0750 c3        1 MKY      0.003300
      7 C8         -3.7270   -1.5920   -0.0240 ca        1 MKY      0.114100
      8 C9         -2.7380   -2.4390    0.4990 ca        1 MKY     -0.187000
      9 C10        -1.4650   -1.9460    0.7720 ca        1 MKY     -0.100000
     10 C11        -1.1890   -0.5970    0.5210 ca        1 MKY     -0.039200
     11 N12         0.0210    0.0810    0.7960 na        1 MKY     -0.170300
     12 C13        -0.0090    1.4240    0.3340 cc        1 MKY      0.561700
     13 N14         1.0520    2.1920    0.3940 nf        1 MKY     -0.772000
     14 C15         0.9760    3.5700    0.0090 cf        1 MKY      0.818200
     15 N16         2.1810    4.3050    0.2470 nh        1 MKY     -0.906800
     16 N17        -0.1400    4.0880   -0.4500 n2        1 MKY     -0.888100
     17 S18        -1.6200    1.8330   -0.2460 ss        1 MKY      0.057900
     18 C19        -2.1990    0.2570   -0.0150 ca        1 MKY     -0.081100
     19 C20        -3.4660   -0.2370   -0.2850 ca        1 MKY     -0.098000
     20 H1          5.6000   -2.5150    0.5430 hc        1 MKY      0.048700
     21 H1A         4.5830   -4.0080    0.4420 hc        1 MKY      0.048700
     22 H1B         5.6920   -3.5750   -0.9320 hc        1 MKY      0.048700
     23 H2          4.3190   -1.5020   -1.3980 h1        1 MKY      0.052700
     24 H2A         3.2900   -3.0080   -1.4960 h1        1 MKY      0.052700
     25 H6          1.0180   -1.5020    1.7260 h1        1 MKY      0.104700
     26 H6A         1.9350    0.0800    1.6480 h1        1 MKY      0.104700
     27 HO7        -5.0460   -2.9740   -0.0980 ho        1 MKY      0.420000
     28 H9         -2.9650   -3.4980    0.6920 ha        1 MKY      0.139000
     29 H10        -0.6990   -2.6220    1.1790 ha        1 MKY      0.140000
     30 HN16        2.9510    3.7530    0.5600 hn        1 MKY      0.391800
     31 HN1A        2.4310    4.8930   -0.5190 hn        1 MKY      0.391800
     32 HN17       -0.1180    5.0510   -0.6970 hn        1 MKY      0.403400
     33 H20        -4.2590    0.4040   -0.6970 ha        1 MKY      0.163000
     34 O7         -5.0010   -2.0300   -0.3090 oh        1 MKY     -0.494100
@<TRIPOS>BOND
     1    1    2 1   
     2    1   20 1   
     3    1   21 1   
     4    1   22 1   
     5    2    3 1   
     6    2   23 1   
     7    2   24 1   
     8    3    4 1   
     9    4    5 2   
    10    4    6 1   
    11    6   11 1   
    12    6   25 1   
    13    6   26 1   
    14    7    8 ar  
    15    7   19 ar  
    16    7   34 1   
    17    8    9 ar  
    18    8   28 1   
    19    9   10 ar  
    20    9   29 1   
    21   10   11 1   
    22   10   18 ar  
    23   11   12 1   
    24   12   13 2   
    25   12   17 1   
    26   13   14 1   
    27   14   15 1   
    28   14   16 2   
    29   15   30 1   
    30   15   31 1   
    31   16   32 1   
    32   17   18 1   
    33   18   19 ar  
    34   19   33 1   
    35   27   34 1   
@<TRIPOS>SUBSTRUCTURE
     1 MKY         1 TEMP              0 ****  ****    0 ROOT
