@<TRIPOS>MOLECULE
MKY
   35    35     1     0     0
SMALL
bcc


@<TRIPOS>ATOM
      1 C1          0.4990   -0.5250    0.4600 c3        1 MKY     -0.130100
      2 C2          1.1770    0.8170    0.3550 c3        1 MKY      0.139400
      3 O3          1.9530    1.0940    1.5400 os        1 MKY     -0.429900
      4 C4          3.1840    0.5300    1.6370 c         1 MKY      0.615100
      5 O5          3.6400   -0.1560    0.7230 o         1 MKY     -0.521000
      6 C6          3.8310    0.8680    2.9700 c3        1 MKY     -0.020700
      7 C8          8.2500    3.6080    2.4990 ca        1 MKY      0.156100
      8 C9          6.9180    4.0530    2.6150 ca        1 MKY     -0.166000
      9 C10         5.8800    3.1450    2.7690 ca        1 MKY     -0.067000
     10 C11         6.1790    1.7740    2.8060 ca        1 MKY     -0.069200
     11 N12         5.2640    0.7050    2.9760 na        1 MKY     -0.116200
     12 C13         5.8970   -0.5290    2.9340 cc        1 MKY      0.527200
     13 N14         5.1820   -1.6690    3.0730 ne        1 MKY     -0.670700
     14 C15         5.6990   -2.8730    2.9610 c1        1 MKY      0.709800
     15 N16         6.1710   -6.6560    2.3960 n3        1 MKY     -1.018400
     16 N17         6.0290   -4.0020    2.9500 n2        1 MKY     -0.694800
     17 S18         7.6160   -0.3610    2.7600 ss        1 MKY      0.082900
     18 C19         7.5300    1.3310    2.6870 ca        1 MKY     -0.064100
     19 C20         8.5660    2.2390    2.5340 ca        1 MKY     -0.094000
     20 H1          0.4360    1.6620    0.3560 h1        1 MKY      0.075200
     21 H1A        -0.1700   -0.6700   -0.4220 hc        1 MKY      0.056033
     22 H1B         1.2590   -1.3430    0.4740 hc        1 MKY      0.056033
     23 H2         -0.1130   -0.5880    1.3910 hc        1 MKY      0.056033
     24 H2A         1.8390    0.8740   -0.5470 h1        1 MKY      0.075200
     25 H6          3.3730    0.1860    3.7480 h1        1 MKY      0.120700
     26 H6A         3.5790    1.9330    3.2430 h1        1 MKY      0.120700
     27 HO7         8.9750    5.3740    2.3340 ho        1 MKY      0.442000
     28 H9          6.6970    5.1320    2.5830 ha        1 MKY      0.165000
     29 H10         4.8450    3.5110    2.8550 ha        1 MKY      0.162000
     30 HN16        5.8940   -6.8230    1.4490 hn        1 MKY      0.380467
     31 HN1A        7.1100   -6.9760    2.5290 hn        1 MKY      0.380467
     32 HN17        6.0940   -5.0310    2.7350 hn        1 MKY      0.649400
     33 H20         9.6160    1.9180    2.4410 ha        1 MKY      0.182000
     34 H163        5.5600   -7.1520    3.0140 hn        1 MKY      0.380467
     35 O7          9.3090    4.4620    2.3480 oh        1 MKY     -0.470100
@<TRIPOS>BOND
     1    1    2 1   
     2    1   21 1   
     3    1   22 1   
     4    1   23 1   
     5    2    3 1   
     6    2   20 1   
     7    2   24 1   
     8    3    4 1   
     9    4    5 2   
    10    4    6 1   
    11    6   11 1   
    12    6   25 1   
    13    6   26 1   
    14    7    8 ar  
    15    7   19 ar  
    16    7   35 1   
    17    8    9 ar  
    18    8   28 1   
    19    9   10 ar  
    20    9   29 1   
    21   10   11 1   
    22   10   18 ar  
    23   11   12 2   
    24   12   13 1   
    25   12   17 1   
    26   13   14 2   
    27   14   16 2   
    28   15   30 1   
    29   15   31 1   
    30   15   34 1   
    31   16   32 1   
    32   17   18 1   
    33   18   19 ar  
    34   19   33 1   
    35   27   35 1   
@<TRIPOS>SUBSTRUCTURE
     1 MKY         1 TEMP              0 ****  ****    0 ROOT
