@<TRIPOS>MOLECULE
MKY
   35    34     1     0     0
SMALL
bcc


@<TRIPOS>ATOM
      1 C1          0.1730    0.5500   -1.0820 c3        1 MKY     -0.104100
      2 C2          1.3060    0.2110   -0.1460 c3        1 MKY      0.136400
      3 O3          1.1210    1.0340    1.0250 os        1 MKY     -0.425900
      4 C4          2.0150    0.9100    2.0280 c         1 MKY      0.651900
      5 O5          2.9530    0.1110    1.9120 o         1 MKY     -0.597000
      6 C6          4.1410    0.4300    3.9230 c1        1 MKY      0.052500
      7 C8          7.7920    3.6710    2.4730 ca        1 MKY      0.152100
      8 C9          6.5220    3.9210    3.0230 ca        1 MKY     -0.178000
      9 C10         5.6860    2.8660    3.3750 ca        1 MKY     -0.036000
     10 C11         6.1360    1.5560    3.1690 ca        1 MKY     -0.054200
     11 N12         5.3930    0.3720    3.4810 na        1 MKY     -0.061600
     12 C13         6.1890   -0.7840    3.1620 cc        1 MKY      0.398400
     13 N14         5.7040   -2.0030    3.4130 n1        1 MKY     -0.356400
     14 C15         6.3330   -3.1340    3.1290 c1        1 MKY      0.477400
     15 N16         7.3010   -6.8150    2.6870 n3        1 MKY     -1.004400
     16 N17         6.7580   -4.2100    2.9420 n2        1 MKY     -0.683800
     17 S18         7.7170   -0.3620    2.4930 ss        1 MKY      0.070900
     18 C19         7.4220    1.3090    2.6170 ca        1 MKY     -0.069100
     19 C20         8.2550    2.3570    2.2650 ca        1 MKY     -0.093000
     20 H1          2.3070    0.4480   -0.5900 h1        1 MKY      0.050700
     21 H1A        -0.8120    0.3350   -0.6020 hc        1 MKY      0.056367
     22 H1B         0.2710   -0.0650   -2.0080 hc        1 MKY      0.056367
     23 H2          0.2000    1.6320   -1.3560 hc        1 MKY      0.056367
     24 H2A         1.2850   -0.8640    0.1710 h1        1 MKY      0.050700
     25 H6          1.7830    1.5780    2.8800 h5        1 MKY      0.100200
     26 H6A         3.6190   -0.5170    4.1570 ha        1 MKY      0.045500
     27 HO7         8.2390    5.5250    2.2980 ho        1 MKY      0.440000
     28 H9          6.1840    4.9580    3.1790 ha        1 MKY      0.163000
     29 H10         4.6870    3.0460    3.8090 ha        1 MKY      0.183000
     30 HN16        6.4570   -7.3070    2.4660 hn        1 MKY      0.387800
     31 HN1A        7.9690   -6.9500    1.9540 hn        1 MKY      0.387800
     32 HN17        6.9850   -5.2600    2.8350 hn        1 MKY      0.654400
     33 H20         9.2550    2.1940    1.8340 ha        1 MKY      0.179000
     34 H163        7.6750   -7.1610    3.5490 hn        1 MKY      0.387800
     35 O7          8.6550    4.6690    2.1080 oh        1 MKY     -0.475100
@<TRIPOS>BOND
     1    1    2 1   
     2    1   21 1   
     3    1   22 1   
     4    1   23 1   
     5    2    3 1   
     6    2   20 1   
     7    2   24 1   
     8    3    4 1   
     9    4    5 2   
    10    4   25 1   
    11    6   11 3   
    12    6   26 1   
    13    7    8 ar  
    14    7   19 ar  
    15    7   35 1   
    16    8    9 ar  
    17    8   28 1   
    18    9   10 ar  
    19    9   29 1   
    20   10   11 1   
    21   10   18 ar  
    22   11   12 1   
    23   12   13 2   
    24   12   17 1   
    25   13   14 2   
    26   14   16 2   
    27   15   30 1   
    28   15   31 1   
    29   15   34 1   
    30   16   32 1   
    31   17   18 1   
    32   18   19 ar  
    33   19   33 1   
    34   27   35 1   
@<TRIPOS>SUBSTRUCTURE
     1 MKY         1 TEMP              0 ****  ****    0 ROOT
