@<TRIPOS>MOLECULE
ML0
   59    62     1     0     0
SMALL
bcc


@<TRIPOS>ATOM
      1 O38        -9.8210    2.5030    1.4480 o         1 ML0     -0.837800
      2 C36        -9.5850    2.4270    0.2110 c         1 ML0      0.888600
      3 O37       -10.3130    2.9220   -0.6940 o         1 ML0     -0.837800
      4 C34        -8.3020    1.6400   -0.2300 c3        1 ML0      0.021500
      5 N35        -8.0560    1.6490   -1.6660 n3        1 ML0     -0.889800
      6 C33        -7.1180    2.1800    0.5810 c3        1 ML0     -0.042100
      7 C30        -5.9460    1.2650    0.5710 ca        1 ML0     -0.003300
      8 C29        -5.0540    1.2510   -0.5110 ca        1 ML0     -0.140500
      9 C28        -3.9450    0.4130   -0.5060 ca        1 ML0     -0.096000
     10 C31        -5.7070    0.4060    1.6520 ca        1 ML0     -0.140500
     11 C32        -4.6010   -0.4390    1.6610 ca        1 ML0     -0.096000
     12 C27        -3.7010   -0.4330    0.5870 cp        1 ML0     -0.209500
     13 C22        -2.5100   -1.2940    0.5900 cp        1 ML0      0.582800
     14 C21        -1.3170   -0.8060    0.0010 ca        1 ML0     -0.414600
     15 N23        -2.5800   -2.5250    1.1540 nb        1 ML0     -0.756000
     16 C24        -1.4270   -3.2920    1.1380 ca        1 ML0      0.888900
     17 N26        -1.4570   -4.5260    1.8120 nh        1 ML0     -0.916500
     18 N25        -0.2200   -2.9180    0.5590 nb        1 ML0     -0.825000
     19 C20        -0.2090   -1.6780    0.0180 ca        1 ML0      0.671600
     20 O16         0.9260   -1.1700   -0.6030 os        1 ML0     -0.432100
     21 C14         2.1510   -1.8910   -0.4920 c3        1 ML0      0.174400
     22 C15         2.3220   -2.7380   -1.8150 c3        1 ML0      0.607900
     23 F19         2.5220   -2.0130   -2.9570 f         1 ML0     -0.235633
     24 F18         3.3860   -3.6050   -1.7550 f         1 ML0     -0.235633
     25 F17         1.2470   -3.5390   -2.0950 f         1 ML0     -0.235633
     26 C11         3.2680   -0.9070   -0.3240 ca        1 ML0     -0.108300
     27 C10         4.5160   -1.3770    0.1050 ca        1 ML0     -0.096500
     28 C9          5.5710   -0.4900    0.2970 ca        1 ML0     -0.121000
     29 C12         3.0880    0.4590   -0.5570 ca        1 ML0     -0.096500
     30 C13         4.1440    1.3470   -0.3630 ca        1 ML0     -0.121000
     31 C8          5.3950    0.8820    0.0650 cp        1 ML0     -0.032000
     32 C3          6.5040    1.8150    0.2640 cp        1 ML0     -0.010000
     33 C2          6.7130    2.8680   -0.6380 ca        1 ML0     -0.132000
     34 C4          7.3630    1.6590    1.3570 ca        1 ML0     -0.156000
     35 C5          8.4270    2.5600    1.5400 ca        1 ML0      0.122900
     36 F7          9.2590    2.4110    2.5990 f         1 ML0     -0.143900
     37 C6          8.6340    3.6150    0.6320 ca        1 ML0     -0.165000
     38 C1          7.7710    3.7560   -0.4510 ca        1 ML0     -0.106000
     39 H34        -8.4720    0.5650    0.0690 h1        1 ML0      0.046700
     40 HN35       -8.9000    1.3340   -2.1140 hn        1 ML0      0.332300
     41 HN3A       -7.9280    2.6030   -1.9560 hn        1 ML0      0.332300
     42 H33        -6.8110    3.1850    0.1860 hc        1 ML0      0.063700
     43 H33A       -7.4890    2.3270    1.6340 hc        1 ML0      0.063700
     44 H29        -5.2560    1.8960   -1.3810 ha        1 ML0      0.146000
     45 H28        -3.2660    0.4030   -1.3720 ha        1 ML0      0.128500
     46 H31        -6.4110    0.3960    2.4990 ha        1 ML0      0.146000
     47 H32        -4.4350   -1.1100    2.5180 ha        1 ML0      0.128500
     48 H21        -1.2510    0.1920   -0.4430 ha        1 ML0      0.172000
     49 HN26       -2.3670   -4.8960    1.9760 hn        1 ML0      0.417800
     50 HN2A       -0.7770   -5.1910    1.5200 hn        1 ML0      0.417800
     51 H14         2.1550   -2.6230    0.3620 h1        1 ML0      0.118700
     52 H10         4.6650   -2.4550    0.2760 ha        1 ML0      0.151000
     53 H9          6.5500   -0.8690    0.6260 ha        1 ML0      0.139500
     54 H12         2.1060    0.8330   -0.8900 ha        1 ML0      0.151000
     55 H13         3.9900    2.4220   -0.5410 ha        1 ML0      0.139500
     56 H2          6.0420    2.9870   -1.5010 ha        1 ML0      0.143000
     57 H4          7.2100    0.8450    2.0800 ha        1 ML0      0.152000
     58 H6          9.4690    4.3130    0.7870 ha        1 ML0      0.147000
     59 H1          7.9260    4.5780   -1.1650 ha        1 ML0      0.138000
@<TRIPOS>BOND
     1    1    2 1   
     2    2    3 1   
     3    2    4 1   
     4    4    5 1   
     5    4    6 1   
     6    4   39 1   
     7    5   40 1   
     8    5   41 1   
     9    6    7 1   
    10    6   42 1   
    11    6   43 1   
    12    7    8 ar  
    13    7   10 ar  
    14    8    9 ar  
    15    8   44 1   
    16    9   12 ar  
    17    9   45 1   
    18   10   11 ar  
    19   10   46 1   
    20   11   12 ar  
    21   11   47 1   
    22   12   13 1   
    23   13   14 ar  
    24   13   15 ar  
    25   14   19 ar  
    26   14   48 1   
    27   15   16 ar  
    28   16   17 1   
    29   16   18 ar  
    30   17   49 1   
    31   17   50 1   
    32   18   19 ar  
    33   19   20 1   
    34   20   21 1   
    35   21   22 1   
    36   21   26 1   
    37   21   51 1   
    38   22   23 1   
    39   22   24 1   
    40   22   25 1   
    41   26   27 ar  
    42   26   29 ar  
    43   27   28 ar  
    44   27   52 1   
    45   28   31 ar  
    46   28   53 1   
    47   29   30 ar  
    48   29   54 1   
    49   30   31 ar  
    50   30   55 1   
    51   31   32 1   
    52   32   33 ar  
    53   32   34 ar  
    54   33   38 ar  
    55   33   56 1   
    56   34   35 ar  
    57   34   57 1   
    58   35   36 1   
    59   35   37 ar  
    60   37   38 ar  
    61   37   58 1   
    62   38   59 1   
@<TRIPOS>SUBSTRUCTURE
     1 ML0         1 TEMP              0 ****  ****    0 ROOT
