@<TRIPOS>MOLECULE
ML0
   60    63     1     0     0
SMALL
bcc


@<TRIPOS>ATOM
      1 O38         0.9420    0.1750   -0.3630 o         1 ML0     -0.755300
      2 C36         2.1800    0.2120   -0.2880 c         1 ML0      0.937600
      3 O37         3.0550    0.3050   -1.1870 o         1 ML0     -0.755300
      4 C34         2.7660    0.1190    1.2070 c3        1 ML0     -0.070500
      5 N35         4.2520   -0.0340    1.1440 nz        1 ML0     -0.835600
      6 C33         2.3370    1.3630    1.9700 c3        1 ML0     -0.053100
      7 C30         2.8530    1.3790    3.3650 ca        1 ML0     -0.098300
      8 C29         3.9630    2.1640    3.7010 ca        1 ML0     -0.148000
      9 C28         4.4500    2.1760    5.0060 ca        1 ML0     -0.090500
     10 C31         2.2310    0.6140    4.3580 ca        1 ML0     -0.148000
     11 C32         2.7140    0.6240    5.6650 ca        1 ML0     -0.090500
     12 C27         3.8340    1.3980    5.9940 cp        1 ML0     -0.153500
     13 C22         4.3720    1.4070    7.3690 cp        1 ML0      0.552800
     14 C21         5.7710    1.4380    7.5450 ca        1 ML0     -0.424600
     15 N23         3.5030    1.3760    8.4070 nb        1 ML0     -0.765000
     16 C24         4.0550    1.3980    9.6820 ca        1 ML0      0.916900
     17 N26         3.1820    1.4690   10.7630 nv        1 ML0     -0.932500
     18 N25         5.4190    1.4090    9.9650 nb        1 ML0     -0.816000
     19 C20         6.2300    1.4320    8.8860 ca        1 ML0      0.692600
     20 O16         7.6080    1.4420    9.0080 os        1 ML0     -0.428100
     21 C14         8.1920    1.4610   10.3150 c3        1 ML0      0.173400
     22 C15         8.5150   -0.0360   10.7020 c3        1 ML0      0.607900
     23 F19         9.3360   -0.6960    9.8270 f         1 ML0     -0.232633
     24 F18         9.1170   -0.1600   11.9270 f         1 ML0     -0.232633
     25 F17         7.3960   -0.8240   10.7870 f         1 ML0     -0.232633
     26 C11         9.4310    2.2960   10.2320 ca        1 ML0     -0.119300
     27 C10         9.6750    3.2590   11.2180 ca        1 ML0     -0.090500
     28 C9         10.8180    4.0500   11.1520 ca        1 ML0     -0.122500
     29 C12        10.3340    2.1420    9.1750 ca        1 ML0     -0.090500
     30 C13        11.4730    2.9390    9.1050 ca        1 ML0     -0.122500
     31 C8         11.7270    3.9000   10.0940 cp        1 ML0     -0.017000
     32 C3         12.9250    4.7360   10.0240 cp        1 ML0     -0.020000
     33 C2         13.3510    5.2610    8.7950 ca        1 ML0     -0.132000
     34 C4         13.6520    5.0160   11.1860 ca        1 ML0     -0.154000
     35 C5         14.8020    5.8210   11.1090 ca        1 ML0      0.125900
     36 F7         15.5080    6.0900   12.2340 f         1 ML0     -0.138900
     37 C6         15.2250    6.3480    9.8750 ca        1 ML0     -0.159000
     38 C1         14.4900    6.0600    8.7290 ca        1 ML0     -0.105000
     39 H34         2.3390   -0.8010    1.6910 hx        1 ML0      0.089700
     40 HN35        4.5210   -0.9920    1.3490 hn        1 ML0      0.445133
     41 HN3A        4.7160    0.6030    1.7900 hn        1 ML0      0.445133
     42 H33         2.6630    2.2850    1.4180 hc        1 ML0      0.095200
     43 H33A        1.2100    1.3590    1.9600 hc        1 ML0      0.095200
     44 H29         4.4340    2.8050    2.9400 ha        1 ML0      0.141000
     45 H28         5.3120    2.8120    5.2630 ha        1 ML0      0.150000
     46 H31         1.3450    0.0110    4.1050 ha        1 ML0      0.141000
     47 H32         2.2070    0.0260    6.4390 ha        1 ML0      0.150000
     48 H21         6.4750    1.4500    6.7090 ha        1 ML0      0.167000
     49 HN26        3.5440    1.2630   11.6640 hn        1 ML0      0.439300
     50 HN2A        2.2250    1.2630   10.5950 hn        1 ML0      0.439300
     51 H14         7.4940    1.8580   11.1020 h1        1 ML0      0.118700
     52 H10         8.9670    3.3920   12.0510 ha        1 ML0      0.146000
     53 H9         11.0060    4.8050   11.9310 ha        1 ML0      0.143500
     54 H12        10.1360    1.3800    8.4040 ha        1 ML0      0.146000
     55 H13        12.1830    2.8080    8.2740 ha        1 ML0      0.143500
     56 H2         12.7760    5.0470    7.8820 ha        1 ML0      0.140000
     57 H4         13.3390    4.6060   12.1580 ha        1 ML0      0.153000
     58 H6         16.1260    6.9760    9.8290 ha        1 ML0      0.151000
     59 H1         14.8140    6.4710    7.7600 ha        1 ML0      0.140000
     60 H353        4.5220    0.1900    0.1570 hn        1 ML0      0.445133
@<TRIPOS>BOND
     1    1    2 1   
     2    2    3 1   
     3    2    4 1   
     4    4    5 1   
     5    4    6 1   
     6    4   39 1   
     7    5   40 1   
     8    5   41 1   
     9    5   60 1   
    10    6    7 1   
    11    6   42 1   
    12    6   43 1   
    13    7    8 ar  
    14    7   10 ar  
    15    8    9 ar  
    16    8   44 1   
    17    9   12 ar  
    18    9   45 1   
    19   10   11 ar  
    20   10   46 1   
    21   11   12 ar  
    22   11   47 1   
    23   12   13 1   
    24   13   14 ar  
    25   13   15 ar  
    26   14   19 ar  
    27   14   48 1   
    28   15   16 ar  
    29   16   17 1   
    30   16   18 ar  
    31   17   49 1   
    32   17   50 1   
    33   18   19 ar  
    34   19   20 1   
    35   20   21 1   
    36   21   22 1   
    37   21   26 1   
    38   21   51 1   
    39   22   23 1   
    40   22   24 1   
    41   22   25 1   
    42   26   27 ar  
    43   26   29 ar  
    44   27   28 ar  
    45   27   52 1   
    46   28   31 ar  
    47   28   53 1   
    48   29   30 ar  
    49   29   54 1   
    50   30   31 ar  
    51   30   55 1   
    52   31   32 1   
    53   32   33 ar  
    54   32   34 ar  
    55   33   38 ar  
    56   33   56 1   
    57   34   35 ar  
    58   34   57 1   
    59   35   36 1   
    60   35   37 ar  
    61   37   38 ar  
    62   37   58 1   
    63   38   59 1   
@<TRIPOS>SUBSTRUCTURE
     1 ML0         1 TEMP              0 ****  ****    0 ROOT
