@<TRIPOS>MOLECULE
ML0
   61    64     1     0     0
SMALL
bcc


@<TRIPOS>ATOM
      1 O38         0.4830   -0.2330    2.0910 o         1 ML0     -0.748300
      2 C36         1.1370   -0.3230    1.0390 c         1 ML0      0.942600
      3 O37         0.8460   -0.8500   -0.0620 o         1 ML0     -0.748300
      4 C34         2.6270    0.3140    1.0940 c3        1 ML0     -0.084500
      5 N35         3.1470    0.4020   -0.3020 n4        1 ML0     -0.831600
      6 C33         2.6250    1.6530    1.8270 c3        1 ML0     -0.044100
      7 C30         3.1710    1.5310    3.2080 ca        1 ML0     -0.041300
      8 C29         4.2700    2.2980    3.6150 ca        1 ML0     -0.129500
      9 C28         4.7390    2.2180    4.9240 ca        1 ML0     -0.083000
     10 C31         2.5480    0.6780    4.1280 ca        1 ML0     -0.129500
     11 C32         3.0120    0.5960    5.4380 ca        1 ML0     -0.083000
     12 C27         4.1120    1.3660    5.8460 cp        1 ML0     -0.208500
     13 C22         4.6060    1.3000    7.2240 cp        1 ML0      0.575800
     14 C21         5.9800    1.4440    7.4960 ca        1 ML0     -0.324600
     15 N23         3.7020    1.0920    8.2380 nb        1 ML0     -0.690000
     16 C24         4.2230    1.0540    9.4910 ca        1 ML0      0.738900
     17 N26         3.2440    0.8090   10.5970 n4        1 ML0     -0.818300
     18 N25         5.5270    1.2060    9.8890 nb        1 ML0     -0.760000
     19 C20         6.3990    1.3880    8.8570 ca        1 ML0      0.698600
     20 O16         7.7450    1.5240    9.0470 os        1 ML0     -0.400100
     21 C14         8.3020    1.4780   10.3780 c3        1 ML0      0.176400
     22 C15         8.6150   -0.0360   10.7080 c3        1 ML0      0.610900
     23 F19         9.3250   -0.6970    9.7450 f         1 ML0     -0.224967
     24 F18         9.3110   -0.2000   11.8730 f         1 ML0     -0.224967
     25 F17         7.4770   -0.7870   10.8780 f         1 ML0     -0.224967
     26 C11         9.5330    2.3210   10.3380 ca        1 ML0     -0.147300
     27 C10         9.6950    3.3370   11.2880 ca        1 ML0     -0.086500
     28 C9         10.8330    4.1360   11.2640 ca        1 ML0     -0.121000
     29 C12        10.5130    2.1210    9.3600 ca        1 ML0     -0.086500
     30 C13        11.6500    2.9240    9.3360 ca        1 ML0     -0.121000
     31 C8         11.8220    3.9400   10.2880 cp        1 ML0      0.011000
     32 C3         13.0170    4.7830   10.2650 cp        1 ML0     -0.039000
     33 C2         14.2740    4.2210   10.0060 ca        1 ML0     -0.126000
     34 C4         12.9050    6.1570   10.5040 ca        1 ML0     -0.154000
     35 C5         14.0570    6.9620   10.4790 ca        1 ML0      0.129900
     36 F7         13.9480    8.2930   10.7040 f         1 ML0     -0.132900
     37 C6         15.3190    6.3940   10.2210 ca        1 ML0     -0.148000
     38 C1         15.4120    5.0250    9.9890 ca        1 ML0     -0.102000
     39 H34         3.2560   -0.4410    1.6410 hx        1 ML0      0.091700
     40 HN35        4.1320    0.1620   -0.3560 hn        1 ML0      0.449467
     41 HN3A        2.5760   -0.2780   -0.8620 hn        1 ML0      0.449467
     42 H33         3.1950    2.4420    1.2660 hc        1 ML0      0.075200
     43 H33A        1.5540    2.0010    1.9070 hc        1 ML0      0.075200
     44 H29         4.7620    2.9820    2.9070 ha        1 ML0      0.178000
     45 H28         5.5900    2.8430    5.2330 ha        1 ML0      0.143500
     46 H31         1.6680    0.0830    3.8040 ha        1 ML0      0.178000
     47 H32         2.5050   -0.0810    6.1430 ha        1 ML0      0.143500
     48 H21         6.7240    1.5820    6.6980 ha        1 ML0      0.205000
     49 HN26        3.5080   -0.0550   11.0880 hn        1 ML0      0.481800
     50 HN2A        3.2720    1.5980   11.2530 hn        1 ML0      0.481800
     51 H14         7.5810    1.8490   11.1540 h1        1 ML0      0.106700
     52 H10         8.9310    3.5020   12.0630 ha        1 ML0      0.142500
     53 H9         10.9640    4.9250   12.0230 ha        1 ML0      0.153000
     54 H12        10.3830    1.3210    8.6140 ha        1 ML0      0.142500
     55 H13        12.4180    2.7630    8.5630 ha        1 ML0      0.153000
     56 H2         14.3650    3.1390    9.8270 ha        1 ML0      0.142000
     57 H4         11.9260    6.6170   10.7030 ha        1 ML0      0.150000
     58 H6         16.2130    7.0350   10.2070 ha        1 ML0      0.159000
     59 H1         16.3980    4.5740    9.7900 ha        1 ML0      0.148000
     60 H353        2.9990    1.3350   -0.6830 hn        1 ML0      0.449467
     61 H263        2.2960    0.7120   10.2100 hn        1 ML0      0.481800
@<TRIPOS>BOND
     1    1    2 1   
     2    2    3 1   
     3    2    4 1   
     4    4    5 1   
     5    4    6 1   
     6    4   39 1   
     7    5   40 1   
     8    5   41 1   
     9    5   60 1   
    10    6    7 1   
    11    6   42 1   
    12    6   43 1   
    13    7    8 ar  
    14    7   10 ar  
    15    8    9 ar  
    16    8   44 1   
    17    9   12 ar  
    18    9   45 1   
    19   10   11 ar  
    20   10   46 1   
    21   11   12 ar  
    22   11   47 1   
    23   12   13 1   
    24   13   14 ar  
    25   13   15 ar  
    26   14   19 ar  
    27   14   48 1   
    28   15   16 ar  
    29   16   17 1   
    30   16   18 ar  
    31   17   49 1   
    32   17   50 1   
    33   17   61 1   
    34   18   19 ar  
    35   19   20 1   
    36   20   21 1   
    37   21   22 1   
    38   21   26 1   
    39   21   51 1   
    40   22   23 1   
    41   22   24 1   
    42   22   25 1   
    43   26   27 ar  
    44   26   29 ar  
    45   27   28 ar  
    46   27   52 1   
    47   28   31 ar  
    48   28   53 1   
    49   29   30 ar  
    50   29   54 1   
    51   30   31 ar  
    52   30   55 1   
    53   31   32 1   
    54   32   33 ar  
    55   32   34 ar  
    56   33   38 ar  
    57   33   56 1   
    58   34   35 ar  
    59   34   57 1   
    60   35   36 1   
    61   35   37 ar  
    62   37   38 ar  
    63   37   58 1   
    64   38   59 1   
@<TRIPOS>SUBSTRUCTURE
     1 ML0         1 TEMP              0 ****  ****    0 ROOT
