@<TRIPOS>MOLECULE
ML0
   60    63     1     0     0
SMALL
bcc


@<TRIPOS>ATOM
      1 O38         0.8070    0.4340   -0.2940 o         1 ML0     -0.755300
      2 C36         2.0430    0.5230   -0.2510 c         1 ML0      0.937600
      3 O37         2.8850    0.7140   -1.1670 o         1 ML0     -0.755300
      4 C34         2.6790    0.3580    1.2170 c3        1 ML0     -0.070500
      5 N35         4.1680    0.2780    1.1020 n4        1 ML0     -0.835600
      6 C33         2.2200    1.5280    2.0740 c3        1 ML0     -0.053100
      7 C30         2.7740    1.4720    3.4530 ca        1 ML0     -0.098300
      8 C29         3.8630    2.2760    3.8120 ca        1 ML0     -0.148000
      9 C28         4.3870    2.2210    5.1010 ca        1 ML0     -0.090500
     10 C31         2.2090    0.6200    4.4090 ca        1 ML0     -0.148000
     11 C32         2.7280    0.5620    5.7000 ca        1 ML0     -0.090500
     12 C27         3.8280    1.3550    6.0510 cp        1 ML0     -0.154500
     13 C22         4.4050    1.2940    7.4090 cp        1 ML0      0.552800
     14 C21         5.8060    1.3630    7.5500 ca        1 ML0     -0.424600
     15 N23         3.5670    1.1670    8.4650 nb        1 ML0     -0.765000
     16 C24         4.1540    1.1270    9.7240 ca        1 ML0      0.916900
     17 N26         3.3100    1.0980   10.8300 nh        1 ML0     -0.932500
     18 N25         5.5250    1.1680    9.9710 nb        1 ML0     -0.816000
     19 C20         6.3030    1.2880    8.8750 ca        1 ML0      0.692600
     20 O16         7.6830    1.3360    8.9610 os        1 ML0     -0.427100
     21 C14         8.3020    1.3070   10.2520 c3        1 ML0      0.173400
     22 C15         8.6890   -0.1960   10.5480 c3        1 ML0      0.607900
     23 F19         9.5070   -0.7780    9.6170 f         1 ML0     -0.232633
     24 F18         9.3300   -0.3630   11.7470 f         1 ML0     -0.232633
     25 F17         7.6010   -1.0280   10.6200 f         1 ML0     -0.232633
     26 C11         9.5080    2.1900   10.1810 ca        1 ML0     -0.119300
     27 C10         9.7410    3.1150   11.2050 ca        1 ML0     -0.090500
     28 C9         10.8510    3.9530   11.1490 ca        1 ML0     -0.122500
     29 C12        10.3910    2.1180    9.0980 ca        1 ML0     -0.090500
     30 C13        11.5000    2.9570    9.0430 ca        1 ML0     -0.122500
     31 C8         11.7410    3.8830   10.0680 cp        1 ML0     -0.017000
     32 C3         12.9080    4.7630   10.0110 cp        1 ML0     -0.020000
     33 C2         14.1470    4.2690    9.5800 ca        1 ML0     -0.131000
     34 C4         12.7900    6.1050   10.3890 ca        1 ML0     -0.155000
     35 C5         13.9160    6.9450   10.3310 ca        1 ML0      0.125900
     36 F7         13.8030    8.2450   10.6930 f         1 ML0     -0.138900
     37 C6         15.1590    6.4440    9.8990 ca        1 ML0     -0.159000
     38 C1         15.2590    5.1070    9.5290 ca        1 ML0     -0.105000
     39 H34         2.3080   -0.6100    1.6500 hx        1 ML0      0.089700
     40 HN35        4.4850   -0.6780    1.2340 hn        1 ML0      0.445133
     41 HN3A        4.3970    0.5790    0.1250 hn        1 ML0      0.445133
     42 H33         1.0940    1.4760    2.0920 hc        1 ML0      0.095200
     43 H33A        2.4920    2.4990    1.5780 hc        1 ML0      0.095200
     44 H29         4.2880    2.9840    3.0840 ha        1 ML0      0.141000
     45 H28         5.2320    2.8710    5.3790 ha        1 ML0      0.150000
     46 H31         1.3390    0.0010    4.1380 ha        1 ML0      0.141000
     47 H32         2.2660   -0.1040    6.4450 ha        1 ML0      0.150000
     48 H21         6.4850    1.4550    6.6980 ha        1 ML0      0.168000
     49 HN26        3.7040    0.8470   11.7060 hn        1 ML0      0.439300
     50 HN2A        2.3570    0.8700   10.6740 hn        1 ML0      0.439300
     51 H14         7.6140    1.6350   11.0770 h1        1 ML0      0.118700
     52 H10         9.0500    3.1810   12.0600 ha        1 ML0      0.146000
     53 H9         11.0350    4.6720   11.9630 ha        1 ML0      0.143500
     54 H12        10.2000    1.3890    8.2950 ha        1 ML0      0.146000
     55 H13        12.1880    2.8980    8.1860 ha        1 ML0      0.143500
     56 H2         14.2420    3.2120    9.2900 ha        1 ML0      0.142000
     57 H4         11.8250    6.5130   10.7230 ha        1 ML0      0.152000
     58 H6         16.0320    7.1110    9.8600 ha        1 ML0      0.151000
     59 H1         16.2290    4.7080    9.1930 ha        1 ML0      0.141000
     60 H353        4.6240    0.8910    1.7760 hn        1 ML0      0.445133
@<TRIPOS>BOND
     1    1    2 1   
     2    2    3 1   
     3    2    4 1   
     4    4    5 1   
     5    4    6 1   
     6    4   39 1   
     7    5   40 1   
     8    5   41 1   
     9    5   60 1   
    10    6    7 1   
    11    6   42 1   
    12    6   43 1   
    13    7    8 ar  
    14    7   10 ar  
    15    8    9 ar  
    16    8   44 1   
    17    9   12 ar  
    18    9   45 1   
    19   10   11 ar  
    20   10   46 1   
    21   11   12 ar  
    22   11   47 1   
    23   12   13 1   
    24   13   14 ar  
    25   13   15 ar  
    26   14   19 ar  
    27   14   48 1   
    28   15   16 ar  
    29   16   17 1   
    30   16   18 ar  
    31   17   49 1   
    32   17   50 1   
    33   18   19 ar  
    34   19   20 1   
    35   20   21 1   
    36   21   22 1   
    37   21   26 1   
    38   21   51 1   
    39   22   23 1   
    40   22   24 1   
    41   22   25 1   
    42   26   27 ar  
    43   26   29 ar  
    44   27   28 ar  
    45   27   52 1   
    46   28   31 ar  
    47   28   53 1   
    48   29   30 ar  
    49   29   54 1   
    50   30   31 ar  
    51   30   55 1   
    52   31   32 1   
    53   32   33 ar  
    54   32   34 ar  
    55   33   38 ar  
    56   33   56 1   
    57   34   35 ar  
    58   34   57 1   
    59   35   36 1   
    60   35   37 ar  
    61   37   38 ar  
    62   37   58 1   
    63   38   59 1   
@<TRIPOS>SUBSTRUCTURE
     1 ML0         1 TEMP              0 ****  ****    0 ROOT
