@<TRIPOS>MOLECULE
ML1
   34    35     1     0     0
SMALL
bcc


@<TRIPOS>ATOM
      1 C1          0.2500    0.3540   -0.0370 c3        1 ML1      0.096800
      2 C2          2.5810    1.3410    2.4420 cc        1 ML1     -0.040100
      3 C3          1.9160   -5.5870    3.0250 c3        1 ML1      0.110700
      4 C4         -1.6710   -0.0020   -1.5770 c         1 ML1      0.553100
      5 C5         -2.0180   -1.4480   -1.5120 c3        1 ML1     -0.187100
      6 C6          1.7440    0.6600    0.1150 c3        1 ML1      0.000800
      7 C8          2.1710   -0.8950    2.1470 ca        1 ML1     -0.050800
      8 C9          1.8610   -2.1890    1.7340 ca        1 ML1     -0.164000
      9 C12         2.7880   -1.7230    4.4010 ca        1 ML1     -0.081000
     10 C13         2.6410   -0.6640    3.4930 ca        1 ML1     -0.081200
     11 C7          2.1360    0.4000    1.5020 cd        1 ML1     -0.231400
     12 C10         2.0090   -3.2300    2.6570 ca        1 ML1      0.132100
     13 C11         2.4670   -3.0010    3.9750 ca        1 ML1     -0.174000
     14 N1         -0.1940    0.3340   -1.4650 ny        1 ML1     -0.686800
     15 N2          2.8780    0.7110    3.6390 na        1 ML1     -0.164400
     16 O1          1.6570   -4.4750    2.1730 os        1 ML1     -0.335900
     17 O2         -2.4090    0.9580   -1.7180 o         1 ML1     -0.398100
     18 H11        -0.3620    1.1320    0.5020 hx        1 ML1      0.113700
     19 H12A        0.0310   -0.6600    0.4120 hx        1 ML1      0.113700
     20 H2          2.7070    2.4210    2.3270 h4        1 ML1      0.177000
     21 H31         1.2840   -5.5300    3.9450 h1        1 ML1      0.052700
     22 H32         1.6210   -6.4660    2.3970 h1        1 ML1      0.052700
     23 H33         3.0000   -5.6380    3.2920 h1        1 ML1      0.052700
     24 H51        -1.6150   -1.9880   -2.4070 hc        1 ML1      0.116700
     25 H52        -3.1380   -1.5460   -1.5100 hc        1 ML1      0.116700
     26 H53        -1.6140   -1.9240   -0.5820 hc        1 ML1      0.116700
     27 H61         2.3460    0.0020   -0.5720 hc        1 ML1      0.064200
     28 H62         1.9470    1.7290   -0.1610 hc        1 ML1      0.064200
     29 H9          1.5320   -2.4050    0.7110 ha        1 ML1      0.126000
     30 H12         3.1490   -1.5470    5.4250 ha        1 ML1      0.151000
     31 H111        2.5750   -3.8430    4.6750 ha        1 ML1      0.154000
     32 HN1         0.3560   -0.3600   -1.9810 hn        1 ML1      0.456800
     33 H16         3.2450    1.1430    4.4480 hn        1 ML1      0.316700
     34 H121       -0.0220    1.2600   -1.8780 hn        1 ML1      0.456800
@<TRIPOS>BOND
     1    1    6 1   
     2    1   14 1   
     3    1   18 1   
     4    1   19 1   
     5    2   11 2   
     6    2   15 1   
     7    2   20 1   
     8    3   16 1   
     9    3   21 1   
    10    3   22 1   
    11    3   23 1   
    12    4    5 1   
    13    4   14 1   
    14    4   17 2   
    15    5   24 1   
    16    5   25 1   
    17    5   26 1   
    18    6   11 1   
    19    6   27 1   
    20    6   28 1   
    21    7    8 ar  
    22    7   10 ar  
    23    7   11 1   
    24    8   12 ar  
    25    8   29 1   
    26    9   10 ar  
    27    9   13 ar  
    28    9   30 1   
    29   10   15 1   
    30   12   13 ar  
    31   12   16 1   
    32   13   31 1   
    33   14   32 1   
    34   14   34 1   
    35   15   33 1   
@<TRIPOS>SUBSTRUCTURE
     1 ML1         1 TEMP              0 ****  ****    0 ROOT
