@<TRIPOS>MOLECULE
ML1
   34    35     1     0     0
SMALL
bcc


@<TRIPOS>ATOM
      1 C1          0.2690    0.3290   -0.0780 c3        1 ML1      0.096800
      2 C2          2.6210    1.3490    2.3670 cc        1 ML1     -0.040100
      3 C3          1.8610   -5.5500    3.1400 c3        1 ML1      0.110700
      4 C4         -1.6610   -0.0400   -1.6030 c         1 ML1      0.553100
      5 C5         -2.0310   -1.4780   -1.4950 c3        1 ML1     -0.187100
      6 C6          1.7680    0.6180    0.0610 c3        1 ML1      0.000800
      7 C8          2.1780   -0.8880    2.1340 ca        1 ML1     -0.050800
      8 C9          1.8500   -2.1880    1.7570 ca        1 ML1     -0.164000
      9 C12         2.7910   -1.6620    4.4080 ca        1 ML1     -0.081000
     10 C13         2.6560   -0.6270    3.4720 ca        1 ML1     -0.081200
     11 C7          2.1600    0.3900    1.4540 cd        1 ML1     -0.231400
     12 C10         1.9850   -3.2050    2.7080 ca        1 ML1      0.132100
     13 C11         2.4500   -2.9470    4.0170 ca        1 ML1     -0.174000
     14 N1         -0.1790    0.2760   -1.5040 n4        1 ML1     -0.686800
     15 N2          2.9130    0.7490    3.5800 na        1 ML1     -0.164400
     16 O1          1.6140   -4.4570    2.2580 os        1 ML1     -0.335900
     17 O2         -2.3850    0.9270   -1.7710 o         1 ML1     -0.398100
     18 H11        -0.3290    1.1310    0.4400 hx        1 ML1      0.113700
     19 H12A        0.0370   -0.6680    0.3990 hx        1 ML1      0.113700
     20 H2          2.7630    2.4240    2.2230 h4        1 ML1      0.177000
     21 H31         1.2320   -5.4590    4.0590 h1        1 ML1      0.052700
     22 H32         1.5510   -6.4410    2.5370 h1        1 ML1      0.052700
     23 H33         2.9440   -5.6090    3.4050 h1        1 ML1      0.052700
     24 H51        -1.6360   -2.0510   -2.3730 hc        1 ML1      0.116700
     25 H52        -3.1520   -1.5580   -1.4910 hc        1 ML1      0.116700
     26 H53        -1.6340   -1.9310   -0.5510 hc        1 ML1      0.116700
     27 H61         2.3580   -0.0680   -0.6090 hc        1 ML1      0.064200
     28 H62         1.9860    1.6760   -0.2450 hc        1 ML1      0.064200
     29 H9          1.5140   -2.4270    0.7410 ha        1 ML1      0.126000
     30 H12         3.1580   -1.4640    5.4260 ha        1 ML1      0.151000
     31 H111        2.5490   -3.7710    4.7400 ha        1 ML1      0.154000
     32 HN1         0.3590   -0.4400   -2.0020 hn        1 ML1      0.456800
     33 H16         3.2890    1.1960    4.3760 hn        1 ML1      0.316700
     34 H121        0.0060    1.1870   -1.9440 hn        1 ML1      0.456800
@<TRIPOS>BOND
     1    1    6 1   
     2    1   14 1   
     3    1   18 1   
     4    1   19 1   
     5    2   11 2   
     6    2   15 1   
     7    2   20 1   
     8    3   16 1   
     9    3   21 1   
    10    3   22 1   
    11    3   23 1   
    12    4    5 1   
    13    4   14 1   
    14    4   17 2   
    15    5   24 1   
    16    5   25 1   
    17    5   26 1   
    18    6   11 1   
    19    6   27 1   
    20    6   28 1   
    21    7    8 ar  
    22    7   10 ar  
    23    7   11 1   
    24    8   12 ar  
    25    8   29 1   
    26    9   10 ar  
    27    9   13 ar  
    28    9   30 1   
    29   10   15 1   
    30   12   13 ar  
    31   12   16 1   
    32   13   31 1   
    33   14   32 1   
    34   14   34 1   
    35   15   33 1   
@<TRIPOS>SUBSTRUCTURE
     1 ML1         1 TEMP              0 ****  ****    0 ROOT
