@<TRIPOS>MOLECULE
ML1
   33    25     1     0     0
SMALL
bcc


@<TRIPOS>ATOM
      1 C1         -0.9030    1.3090   -1.6650 c3        1 ML1     -0.029000
      2 C2          2.2750    1.0920   -0.4780 c1        1 ML1     -0.074000
      3 C3         -0.7130   -3.2250    4.1150 c3        1 ML1     -0.072000
      4 C4         -2.7230    1.8990   -3.3440 c1        1 ML1      0.298000
      5 C5         -3.2850    1.4770   -4.6540 c3        1 ML1     -0.244000
      6 C6          0.3600    0.4260   -1.6640 c3        1 ML1     -0.112000
      7 C8          1.0840   -0.1740    0.9780 c1        1 ML1     -0.061000
      8 C9          0.2040   -0.9830    1.6750 c1        1 ML1     -0.092000
      9 C12         2.7640   -0.4960    2.7610 c1        1 ML1     -0.129000
     10 C13         2.3730    0.0810    1.5090 c1        1 ML1     -0.013000
     11 C7          1.0090    0.4360   -0.2330 c1        1 ML1     -0.147000
     12 C10         0.6170   -1.5740    2.9690 c1        1 ML1      0.023000
     13 C11         1.8740   -1.3170    3.4730 c1        1 ML1     -0.140000
     14 N1         -1.2850    1.5850   -3.0120 n2        1 ML1     -0.384000
     15 N2          3.0800    0.8600    0.5920 n1        1 ML1     -0.212000
     16 O1         -0.2760   -1.8180    4.0170 o         1 ML1     -0.224000
     17 O2         -3.3960    2.6140   -2.5810 o         1 ML1     -0.365000
     18 H11        -1.6420    0.8350   -1.2000 h1        1 ML1      0.102500
     19 H12A       -0.7120    2.1490   -1.2030 h1        1 ML1      0.102500
     20 H2          2.4630    1.6920   -1.1980 DU        1 ML1      0.188000
     21 H31        -1.5480   -3.2530    4.1900 h1        1 ML1      0.077000
     22 H32        -0.3050   -3.6370    4.8910 h1        1 ML1      0.077000
     23 H33        -0.4520   -3.6900    3.3370 h1        1 ML1      0.077000
     24 H51        -4.0700    1.9750   -4.8350 hc        1 ML1      0.103667
     25 H52        -2.6490    1.6350   -5.3390 hc        1 ML1      0.103667
     26 H53        -3.5270    0.4100   -4.6160 hc        1 ML1      0.103667
     27 H61         0.1060   -0.5330   -1.9170 hc        1 ML1      0.088500
     28 H62         1.0010    0.7760   -2.3140 hc        1 ML1      0.088500
     29 H9         -0.8060   -1.1870    1.2670 DU        1 ML1      0.188000
     30 H12         3.6220   -0.3220    3.1090 ha        1 ML1      0.134000
     31 H111        2.1530   -1.7150    4.3450 ha        1 ML1      0.139000
     32 HN1        -0.6850    1.4920   -3.6730 hn        1 ML1      0.215000
     33 H16         3.9900    1.1810    0.7000 DU        1 ML1      0.188000
@<TRIPOS>BOND
     1    1    6 1   
     2    1   14 1   
     3    1   18 1   
     4    1   19 1   
     5    2   11 1   
     6    2   15 1   
     7    3   16 1   
     8    3   21 1   
     9    3   22 1   
    10    3   23 1   
    11    4    5 1   
    12    4   17 1   
    13    5   24 1   
    14    5   25 1   
    15    5   26 1   
    16    6   11 1   
    17    6   27 1   
    18    6   28 1   
    19    7    8 1   
    20    8   12 1   
    21    9   10 1   
    22    9   30 1   
    23   12   13 1   
    24   13   31 1   
    25   14   32 1   
@<TRIPOS>SUBSTRUCTURE
     1 ML1         1 TEMP              0 ****  ****    0 ROOT
