@<TRIPOS>MOLECULE
ML1
   33    34     1     0     0
SMALL
bcc


@<TRIPOS>ATOM
      1 C1          2.4370   -0.0090   -0.4640 c3        1 ML1      0.086000
      2 C2          0.1790    2.2350   -0.2680 cc        1 ML1     -0.086100
      3 C3         -4.8990   -2.4980    0.4380 c3        1 ML1      0.115700
      4 C4          4.8420    0.0510    0.1060 c         1 ML1      0.653100
      5 C5          6.0280   -0.7200    0.6340 c3        1 ML1     -0.176100
      6 C6          1.4440    0.2240    0.6850 c3        1 ML1     -0.030200
      7 C8         -1.0970    0.3800    0.1350 ca        1 ML1     -0.053800
      8 C9         -1.6580   -0.8520    0.4600 ca        1 ML1     -0.119000
      9 C12        -3.3110    1.2390   -0.5810 ca        1 ML1     -0.112000
     10 C13        -1.9380    1.4360   -0.3900 ca        1 ML1     -0.075200
     11 C7          0.2450    0.9200    0.2010 cd        1 ML1     -0.153400
     12 C10        -3.0320   -1.0240    0.2610 ca        1 ML1      0.096100
     13 C11        -3.8500    0.0040   -0.2520 ca        1 ML1     -0.179000
     14 N1          3.6620   -0.6480   -0.0730 n         1 ML1     -0.569900
     15 N2         -1.1300    2.5540   -0.6260 na        1 ML1     -0.193400
     16 O1         -3.5060   -2.2810    0.6090 os        1 ML1     -0.331900
     17 O2          4.9360    1.2580   -0.1970 o         1 ML1     -0.611100
     18 H11         1.9400   -0.6570   -1.2420 h1        1 ML1      0.064700
     19 H12A        2.6820    0.9860   -0.9370 h1        1 ML1      0.064700
     20 H2          0.9830    2.9680   -0.3700 h4        1 ML1      0.172000
     21 H31        -5.0430   -3.5530    0.7830 h1        1 ML1      0.041367
     22 H32        -5.4920   -1.7940    1.0720 h1        1 ML1      0.041367
     23 H33        -5.1880   -2.3940   -0.6360 h1        1 ML1      0.041367
     24 H51         6.2830   -1.5630   -0.0520 hc        1 ML1      0.064700
     25 H52         6.9030   -0.0300    0.7020 hc        1 ML1      0.064700
     26 H53         5.8080   -1.1290    1.6490 hc        1 ML1      0.064700
     27 H61         1.1490   -0.7600    1.1400 hc        1 ML1      0.050200
     28 H62         1.9350    0.8340    1.4910 hc        1 ML1      0.050200
     29 H9         -1.0470   -1.6710    0.8630 ha        1 ML1      0.149000
     30 H12        -3.9490    2.0390   -0.9790 ha        1 ML1      0.133000
     31 H111       -4.9260   -0.1640   -0.3970 ha        1 ML1      0.136000
     32 HN1         3.5910   -1.5600    0.3100 hn        1 ML1      0.302500
     33 H16        -1.4390    3.4160   -0.9860 hn        1 ML1      0.299700
@<TRIPOS>BOND
     1    1    6 1   
     2    1   14 1   
     3    1   18 1   
     4    1   19 1   
     5    2   11 2   
     6    2   15 1   
     7    2   20 1   
     8    3   16 1   
     9    3   21 1   
    10    3   22 1   
    11    3   23 1   
    12    4    5 1   
    13    4   14 1   
    14    4   17 2   
    15    5   24 1   
    16    5   25 1   
    17    5   26 1   
    18    6   11 1   
    19    6   27 1   
    20    6   28 1   
    21    7    8 ar  
    22    7   10 ar  
    23    7   11 1   
    24    8   12 ar  
    25    8   29 1   
    26    9   10 ar  
    27    9   13 ar  
    28    9   30 1   
    29   10   15 1   
    30   12   13 ar  
    31   12   16 1   
    32   13   31 1   
    33   14   32 1   
    34   15   33 1   
@<TRIPOS>SUBSTRUCTURE
     1 ML1         1 TEMP              0 ****  ****    0 ROOT
