@<TRIPOS>MOLECULE
ML1
   34    35     1     0     0
SMALL
bcc


@<TRIPOS>ATOM
      1 C1          0.2450    0.3470   -0.0420 c3        1 ML1      0.096800
      2 C2          2.5760    1.3490    2.4310 cc        1 ML1     -0.040100
      3 C3          1.9260   -5.5780    3.0410 c3        1 ML1      0.110700
      4 C4         -1.6760   -0.0210   -1.5790 c         1 ML1      0.553100
      5 C5         -2.0180   -1.4680   -1.5100 c3        1 ML1     -0.187100
      6 C6          1.7390    0.6580    0.1080 c3        1 ML1      0.000800
      7 C8          2.1700   -0.8890    2.1450 ca        1 ML1     -0.050800
      8 C9          1.8630   -2.1850    1.7370 ca        1 ML1     -0.164000
      9 C12         2.7920   -1.7070    4.4010 ca        1 ML1     -0.081000
     10 C13         2.6420   -0.6520    3.4900 ca        1 ML1     -0.081200
     11 C7          2.1320    0.4040    1.4950 cd        1 ML1     -0.231400
     12 C10         2.0140   -3.2220    2.6640 ca        1 ML1      0.132100
     13 C11         2.4730   -2.9870    3.9800 ca        1 ML1     -0.174000
     14 N1         -0.2000    0.3200   -1.4700 n4        1 ML1     -0.686800
     15 N2          2.8760    0.7250    3.6300 na        1 ML1     -0.164400
     16 O1          1.6640   -4.4690    2.1840 os        1 ML1     -0.335900
     17 O2         -2.4180    0.9360   -1.7220 o         1 ML1     -0.398100
     18 H11         0.0290   -0.6650    0.4110 hx        1 ML1      0.113700
     19 H12A       -0.3680    1.1270    0.4940 hx        1 ML1      0.113700
     20 H2          2.7000    2.4290    2.3120 h4        1 ML1      0.177000
     21 H31         1.6320   -6.4600    2.4170 h1        1 ML1      0.052700
     22 H32         3.0100   -5.6260    3.3070 h1        1 ML1      0.052700
     23 H33         1.2940   -5.5180    3.9610 h1        1 ML1      0.052700
     24 H51        -3.1370   -1.5700   -1.5050 hc        1 ML1      0.116700
     25 H52        -1.6100   -1.9400   -0.5800 hc        1 ML1      0.116700
     26 H53        -1.6140   -2.0090   -2.4040 hc        1 ML1      0.116700
     27 H61         2.3410   -0.0010   -0.5780 hc        1 ML1      0.064200
     28 H62         1.9380    1.7270   -0.1730 hc        1 ML1      0.064200
     29 H9          1.5330   -2.4060    0.7150 ha        1 ML1      0.126000
     30 H12         3.1540   -1.5260    5.4240 ha        1 ML1      0.151000
     31 H111        2.5840   -3.8260    4.6830 ha        1 ML1      0.154000
     32 HN1         0.3520   -0.3730   -1.9830 hn        1 ML1      0.456800
     33 H16         3.2430    1.1600    4.4370 hn        1 ML1      0.316700
     34 H121       -0.0310    1.2450   -1.8870 hn        1 ML1      0.456800
@<TRIPOS>BOND
     1    1    6 1   
     2    1   14 1   
     3    1   18 1   
     4    1   19 1   
     5    2   11 2   
     6    2   15 1   
     7    2   20 1   
     8    3   16 1   
     9    3   21 1   
    10    3   22 1   
    11    3   23 1   
    12    4    5 1   
    13    4   14 1   
    14    4   17 2   
    15    5   24 1   
    16    5   25 1   
    17    5   26 1   
    18    6   11 1   
    19    6   27 1   
    20    6   28 1   
    21    7    8 ar  
    22    7   10 ar  
    23    7   11 1   
    24    8   12 ar  
    25    8   29 1   
    26    9   10 ar  
    27    9   13 ar  
    28    9   30 1   
    29   10   15 1   
    30   12   13 ar  
    31   12   16 1   
    32   13   31 1   
    33   14   32 1   
    34   14   34 1   
    35   15   33 1   
@<TRIPOS>SUBSTRUCTURE
     1 ML1         1 TEMP              0 ****  ****    0 ROOT
