@<TRIPOS>MOLECULE
ML2
   34    35     1     0     0
SMALL
bcc


@<TRIPOS>ATOM
      1 C2         -0.0380   -0.2700   -0.2750 cc        1 ML2      0.057700
      2 C4          0.4710    0.0450    1.9100 ca        1 ML2     -0.072200
      3 C5          0.4540    0.2370    3.3020 ca        1 ML2     -0.086000
      4 C6          1.6660    0.3510    3.9590 ca        1 ML2     -0.165000
      5 C9          4.1490    0.4900    5.2650 c3        1 ML2      0.109700
      6 C12         1.3640   -0.2310   -0.2040 cd        1 ML2     -0.175400
      7 C13         2.3210   -0.4000   -1.3020 c3        1 ML2     -0.013200
      8 N15         4.0080    0.8710   -2.6730 n4        1 ML2     -0.686800
      9 C16         4.6680    2.2180   -2.9120 c         1 ML2      0.552100
     10 C18         3.9140    3.1720   -3.7710 c3        1 ML2     -0.186100
     11 I1         -1.2070   -0.5250   -1.8820 i         1 ML2     -0.051800
     12 N3         -0.5760   -0.0960    0.9930 na        1 ML2     -0.142400
     13 C7          2.8890    0.2740    3.2490 ca        1 ML2      0.133100
     14 O8          4.1280    0.3930    3.8430 os        1 ML2     -0.328900
     15 C10         2.9280    0.0800    1.8650 ca        1 ML2     -0.154000
     16 C11         1.7160   -0.0330    1.1840 ca        1 ML2     -0.058800
     17 C14         2.9790    0.9540   -1.5920 c3        1 ML2      0.099800
     18 O17         5.7550    2.3620   -2.3790 o         1 ML2     -0.393100
     19 H5         -0.4940    0.2930    3.8550 ha        1 ML2      0.152000
     20 H6          1.6730    0.5010    5.0490 ha        1 ML2      0.155000
     21 H91         3.6690   -0.4040    5.7310 h1        1 ML2      0.053367
     22 H92         3.6480    1.4300    5.6000 h1        1 ML2      0.053367
     23 H93         5.2440    0.5210    5.5030 h1        1 ML2      0.053367
     24 H131        3.1040   -1.1490   -0.9980 hc        1 ML2      0.072700
     25 H132        1.8070   -0.7880   -2.2230 hc        1 ML2      0.072700
     26 H15         3.5670    0.5450   -3.5380 hn        1 ML2      0.457800
     27 H181        3.8380    2.7810   -4.8190 hc        1 ML2      0.115033
     28 H182        4.4700    4.1470   -3.7930 hc        1 ML2      0.115033
     29 H183        2.8840    3.3530   -3.3700 hc        1 ML2      0.115033
     30 H3         -1.5370   -0.1330    1.2250 hn        1 ML2      0.322700
     31 H10         3.8910    0.0060    1.3450 ha        1 ML2      0.137000
     32 H141        2.1980    1.7010   -1.9100 hx        1 ML2      0.113200
     33 H142        3.4870    1.3290   -0.6550 hx        1 ML2      0.113200
     34 H152        4.7240    0.1860   -2.3940 hn        1 ML2      0.457800
@<TRIPOS>BOND
     1    1    6 2   
     2    1   11 1   
     3    1   12 1   
     4    2    3 ar  
     5    2   12 1   
     6    2   16 ar  
     7    3    4 ar  
     8    3   19 1   
     9    4   13 ar  
    10    4   20 1   
    11    5   14 1   
    12    5   21 1   
    13    5   22 1   
    14    5   23 1   
    15    6    7 1   
    16    6   16 1   
    17    7   17 1   
    18    7   24 1   
    19    7   25 1   
    20    8    9 1   
    21    8   17 1   
    22    8   26 1   
    23    8   34 1   
    24    9   10 1   
    25    9   18 2   
    26   10   27 1   
    27   10   28 1   
    28   10   29 1   
    29   12   30 1   
    30   13   14 1   
    31   13   15 ar  
    32   15   16 ar  
    33   15   31 1   
    34   17   32 1   
    35   17   33 1   
@<TRIPOS>SUBSTRUCTURE
     1 ML2         1 TEMP              0 ****  ****    0 ROOT
