@<TRIPOS>MOLECULE
ML2
   34    35     1     0     0
SMALL
bcc


@<TRIPOS>ATOM
      1 C2         -0.4250   -0.1140    0.0360 cc        1 ML2      0.063700
      2 C4          0.5320    0.0760    2.0810 ca        1 ML2     -0.071200
      3 C5          0.8080    0.1960    3.4540 ca        1 ML2     -0.083000
      4 C6          2.1310    0.2620    3.8500 ca        1 ML2     -0.166000
      5 C9          4.8350    0.2710    4.6170 c3        1 ML2      0.110700
      6 C12         0.9630   -0.0970   -0.1830 cd        1 ML2     -0.176400
      7 C13         1.6700   -0.2110   -1.4630 c3        1 ML2     -0.012200
      8 N15         3.2000    1.0820   -2.9910 n4        1 ML2     -0.686800
      9 C16         3.8380    2.4320   -3.2710 c         1 ML2      0.553100
     10 C18         5.0510    2.7590   -2.4720 c3        1 ML2     -0.187100
     11 I1         -1.9060   -0.2650   -1.3040 i         1 ML2     -0.044800
     12 N3         -0.6850   -0.0030    1.3950 na        1 ML2     -0.142400
     13 C7          3.1790    0.2060    2.8990 ca        1 ML2      0.132100
     14 O8          4.5170    0.2840    3.2280 os        1 ML2     -0.333900
     15 C10         2.9260    0.0810    1.5300 ca        1 ML2     -0.159000
     16 C11         1.5970    0.0210    1.1100 ca        1 ML2     -0.059800
     17 C14         2.3170    1.1410   -1.7850 c3        1 ML2      0.098800
     18 O17         3.2860    3.0940   -4.1330 o         1 ML2     -0.396100
     19 H5         -0.0050    0.2340    4.1940 ha        1 ML2      0.153000
     20 H6          2.3670    0.3550    4.9210 ha        1 ML2      0.155000
     21 H91         4.4410    1.1900    5.1160 h1        1 ML2      0.053700
     22 H92         5.9550    0.2680    4.6240 h1        1 ML2      0.053700
     23 H93         4.4340   -0.6480    5.1070 h1        1 ML2      0.053700
     24 H131        0.9650   -0.5080   -2.2860 hc        1 ML2      0.072700
     25 H132        2.4600   -1.0070   -1.3760 hc        1 ML2      0.072700
     26 H15         2.6330    0.7970   -3.8010 hn        1 ML2      0.457800
     27 H181        5.8910    2.0650   -2.7310 hc        1 ML2      0.116367
     28 H182        5.3660    3.8090   -2.7170 hc        1 ML2      0.116367
     29 H183        4.8440    2.6930   -1.3730 hc        1 ML2      0.116367
     30 H3         -1.5790   -0.0290    1.8190 hn        1 ML2      0.323700
     31 H10         3.7580    0.0140    0.8190 ha        1 ML2      0.129000
     32 H141        1.5200    1.9140   -1.9800 hx        1 ML2      0.114200
     33 H142        2.9430    1.4720   -0.9050 hx        1 ML2      0.114200
     34 H152        3.9310    0.3800   -2.8420 hn        1 ML2      0.457800
@<TRIPOS>BOND
     1    1    6 2   
     2    1   11 1   
     3    1   12 1   
     4    2    3 ar  
     5    2   12 1   
     6    2   16 ar  
     7    3    4 ar  
     8    3   19 1   
     9    4   13 ar  
    10    4   20 1   
    11    5   14 1   
    12    5   21 1   
    13    5   22 1   
    14    5   23 1   
    15    6    7 1   
    16    6   16 1   
    17    7   17 1   
    18    7   24 1   
    19    7   25 1   
    20    8    9 1   
    21    8   17 1   
    22    8   26 1   
    23    8   34 1   
    24    9   10 1   
    25    9   18 2   
    26   10   27 1   
    27   10   28 1   
    28   10   29 1   
    29   12   30 1   
    30   13   14 1   
    31   13   15 ar  
    32   15   16 ar  
    33   15   31 1   
    34   17   32 1   
    35   17   33 1   
@<TRIPOS>SUBSTRUCTURE
     1 ML2         1 TEMP              0 ****  ****    0 ROOT
