@<TRIPOS>MOLECULE
ML2
   33    34     1     0     0
SMALL
bcc


@<TRIPOS>ATOM
      1 C2          0.2310   -1.3280   -0.0690 cc        1 ML2      0.028700
      2 C4         -2.0200   -1.4080   -0.3310 ca        1 ML2     -0.060200
      3 C5         -3.3520   -1.7590   -0.5940 ca        1 ML2     -0.114000
      4 C6         -4.3380   -0.8140   -0.3600 ca        1 ML2     -0.168000
      5 C9         -6.2980    1.1330    0.0990 c3        1 ML2      0.114700
      6 C12        -0.2400   -0.0720    0.3270 cd        1 ML2     -0.089400
      7 C13         0.5420    1.0650    0.8310 c3        1 ML2     -0.042200
      8 N15         1.2400    3.3880    0.2390 n         1 ML2     -0.572900
      9 C16         2.5050    3.7790   -0.1620 c         1 ML2      0.653100
     10 C18         3.0820    5.0130    0.4900 c3        1 ML2     -0.176100
     11 I1          2.1070   -2.0270   -0.1130 i         1 ML2     -0.071800
     12 N3         -0.8390   -2.1400   -0.4570 na        1 ML2     -0.174400
     13 C7         -4.0070    0.4680    0.1320 ca        1 ML2      0.095100
     14 O8         -4.9450    1.4550    0.3920 os        1 ML2     -0.330900
     15 C10        -2.6870    0.8410    0.4010 ca        1 ML2     -0.112000
     16 C11        -1.6810   -0.0950    0.1700 ca        1 ML2     -0.069800
     17 C14         0.6140    2.1820   -0.2230 c3        1 ML2      0.088000
     18 O17         3.1260    3.1630   -1.0500 o         1 ML2     -0.605100
     19 H5         -3.6100   -2.7560   -0.9760 ha        1 ML2      0.136000
     20 H6         -5.3860   -1.0750   -0.5620 ha        1 ML2      0.138000
     21 H91        -6.8510    2.0690    0.3670 h1        1 ML2      0.042700
     22 H92        -6.4250    0.8990   -0.9860 h1        1 ML2      0.042700
     23 H93        -6.6460    0.2780    0.7280 h1        1 ML2      0.042700
     24 H131        0.0530    1.4540    1.7660 hc        1 ML2      0.056200
     25 H132        1.5800    0.7380    1.1040 hc        1 ML2      0.056200
     26 H15         0.8360    3.8320    1.0280 hn        1 ML2      0.302500
     27 H181        3.1850    4.8630    1.5910 hc        1 ML2      0.064700
     28 H182        4.0910    5.2100    0.0540 hc        1 ML2      0.064700
     29 H183        2.4270    5.8970    0.3010 hc        1 ML2      0.064700
     30 H3         -0.7670   -3.0530   -0.8210 hn        1 ML2      0.306700
     31 H10        -2.4570    1.8450    0.7830 ha        1 ML2      0.151000
     32 H141        1.1760    1.8020   -1.1240 h1        1 ML2      0.069200
     33 H142       -0.4400    2.4350   -0.5430 h1        1 ML2      0.069200
@<TRIPOS>BOND
     1    1    6 2   
     2    1   11 1   
     3    1   12 1   
     4    2    3 ar  
     5    2   12 1   
     6    2   16 ar  
     7    3    4 ar  
     8    3   19 1   
     9    4   13 ar  
    10    4   20 1   
    11    5   14 1   
    12    5   21 1   
    13    5   22 1   
    14    5   23 1   
    15    6    7 1   
    16    6   16 1   
    17    7   17 1   
    18    7   24 1   
    19    7   25 1   
    20    8    9 1   
    21    8   17 1   
    22    8   26 1   
    23    9   10 1   
    24    9   18 2   
    25   10   27 1   
    26   10   28 1   
    27   10   29 1   
    28   12   30 1   
    29   13   14 1   
    30   13   15 ar  
    31   15   16 ar  
    32   15   31 1   
    33   17   32 1   
    34   17   33 1   
@<TRIPOS>SUBSTRUCTURE
     1 ML2         1 TEMP              0 ****  ****    0 ROOT
