@<TRIPOS>MOLECULE
ML2
   34    35     1     0     0
SMALL
bcc


@<TRIPOS>ATOM
      1 C2         -0.4310   -0.1020    0.0600 cc        1 ML2      0.063700
      2 C4          0.5500    0.0600    2.0970 ca        1 ML2     -0.071200
      3 C5          0.8420    0.1620    3.4680 ca        1 ML2     -0.083000
      4 C6          2.1700    0.2200    3.8500 ca        1 ML2     -0.166000
      5 C9          4.8810    0.2140    4.5860 c3        1 ML2      0.110700
      6 C12         0.9540   -0.0860   -0.1750 cd        1 ML2     -0.176400
      7 C13         1.6470   -0.1860   -1.4630 c3        1 ML2     -0.012200
      8 N15         3.1620    1.1230   -2.9930 ny        1 ML2     -0.686800
      9 C16         3.8000    2.4740   -3.2630 c         1 ML2      0.553100
     10 C18         5.0230    2.7890   -2.4750 c3        1 ML2     -0.187100
     11 I1         -1.9270   -0.2340   -1.2650 i         1 ML2     -0.044800
     12 N3         -0.6750   -0.0080    1.4240 na        1 ML2     -0.142400
     13 C7          3.2060    0.1730    2.8850 ca        1 ML2      0.132100
     14 O8          4.5480    0.2440    3.2000 os        1 ML2     -0.333900
     15 C10         2.9380    0.0660    1.5190 ca        1 ML2     -0.159000
     16 C11         1.6040    0.0140    1.1130 ca        1 ML2     -0.059800
     17 C14         2.2930    1.1680   -1.7760 c3        1 ML2      0.098800
     18 O17         3.2390    3.1490   -4.1110 o         1 ML2     -0.396100
     19 H5          0.0380    0.1930    4.2180 ha        1 ML2      0.153000
     20 H6          2.4180    0.3000    4.9190 ha        1 ML2      0.155000
     21 H91         4.4960    1.1280    5.1000 h1        1 ML2      0.053700
     22 H92         6.0020    0.2080    4.5800 h1        1 ML2      0.053700
     23 H93         4.4840   -0.7110    5.0690 h1        1 ML2      0.053700
     24 H131        0.9320   -0.4720   -2.2820 hc        1 ML2      0.072700
     25 H132        2.4360   -0.9850   -1.3960 hc        1 ML2      0.072700
     26 H15         2.5850    0.8490   -3.8000 hn        1 ML2      0.457800
     27 H181        5.8580    2.0960   -2.7540 hc        1 ML2      0.116367
     28 H182        5.3370    3.8410   -2.7100 hc        1 ML2      0.116367
     29 H183        4.8300    2.7080   -1.3750 hc        1 ML2      0.116367
     30 H3         -1.5640   -0.0380    1.8570 hn        1 ML2      0.323700
     31 H10         3.7610    0.0060    0.7970 ha        1 ML2      0.129000
     32 H141        1.4960    1.9460   -1.9520 hx        1 ML2      0.114200
     33 H142        2.9310    1.4870   -0.9000 hx        1 ML2      0.114200
     34 H152        3.8930    0.4170   -2.8620 hn        1 ML2      0.457800
@<TRIPOS>BOND
     1    1    6 2   
     2    1   11 1   
     3    1   12 1   
     4    2    3 ar  
     5    2   12 1   
     6    2   16 ar  
     7    3    4 ar  
     8    3   19 1   
     9    4   13 ar  
    10    4   20 1   
    11    5   14 1   
    12    5   21 1   
    13    5   22 1   
    14    5   23 1   
    15    6    7 1   
    16    6   16 1   
    17    7   17 1   
    18    7   24 1   
    19    7   25 1   
    20    8    9 1   
    21    8   17 1   
    22    8   26 1   
    23    8   34 1   
    24    9   10 1   
    25    9   18 2   
    26   10   27 1   
    27   10   28 1   
    28   10   29 1   
    29   12   30 1   
    30   13   14 1   
    31   13   15 ar  
    32   15   16 ar  
    33   15   31 1   
    34   17   32 1   
    35   17   33 1   
@<TRIPOS>SUBSTRUCTURE
     1 ML2         1 TEMP              0 ****  ****    0 ROOT
