@<TRIPOS>MOLECULE
ML3
   31    30     1     0     0
SMALL
bcc


@<TRIPOS>ATOM
      1 N           2.5200    1.7360   -0.9380 n3        1 ML3     -0.890800
      2 CA          1.6400    0.8660   -0.1720 c3        1 ML3      0.059500
      3 CB          0.8670    1.6630    0.8800 c3        1 ML3      0.006700
      4 SG          0.1010    0.7550    2.2000 ss        1 ML3     -0.292200
      5 CD         -0.9170   -0.4880    1.4700 c3        1 ML3     -0.059300
      6 CE         -2.0180    0.1750    0.6710 c3        1 ML3      0.101800
      7 NZ         -2.8660   -0.7310   -0.1980 n4        1 ML3     -0.582800
      8 CM1        -4.0540   -1.1860    0.5740 c3        1 ML3      0.075767
      9 CM2        -3.3100    0.0550   -1.3910 c3        1 ML3      0.075767
     10 CM3        -2.1170   -1.9250   -0.6850 c3        1 ML3      0.075767
     11 C           0.6410    0.0940   -1.0690 c         1 ML3      0.859600
     12 O           0.7560   -1.1630   -1.1630 o         1 ML3     -0.853300
     13 OXT        -0.2980    0.7240   -1.6530 o         1 ML3     -0.853300
     14 HN          3.0760    1.1710   -1.5510 hn        1 ML3      0.349300
     15 HNA         1.9650    2.3550   -1.5010 hn        1 ML3      0.349300
     16 HA          2.2900    0.1060    0.3540 h1        1 ML3      0.075700
     17 HB          1.5640    2.3370    1.4450 h1        1 ML3      0.080200
     18 HD         -0.2800   -1.1530    0.8250 h1        1 ML3      0.105700
     19 HE         -2.7200    0.7230    1.3610 hx        1 ML3      0.117200
     20 HEA        -1.5280    0.9270   -0.0320 hx        1 ML3      0.117200
     21 HM1        -4.6890   -0.3030    0.8470 hx        1 ML3      0.099478
     22 HM1A       -4.6570   -1.8980   -0.0490 hx        1 ML3      0.099478
     23 HM1B       -3.7080   -1.7030    1.5070 hx        1 ML3      0.099478
     24 HM2        -2.3890    0.3450   -1.9870 hx        1 ML3      0.099478
     25 HM2A       -3.9920   -0.5760   -2.0150 hx        1 ML3      0.099478
     26 HM2B       -3.8450    0.9760   -1.0470 hx        1 ML3      0.099478
     27 HM3        -1.8150   -2.5610    0.1860 hx        1 ML3      0.099478
     28 HM3A       -2.7800   -2.5130   -1.3710 hx        1 ML3      0.099478
     29 HM3B       -1.1870   -1.5840   -1.2490 hx        1 ML3      0.099478
     30 H17         0.1010    2.2930    0.3640 h1        1 ML3      0.080200
     31 H18        -1.3220   -1.0870    2.3210 h1        1 ML3      0.105700
@<TRIPOS>BOND
     1    1    2 1   
     2    1   14 1   
     3    1   15 1   
     4    2    3 1   
     5    2   11 1   
     6    2   16 1   
     7    3    4 1   
     8    3   17 1   
     9    3   30 1   
    10    4    5 1   
    11    5    6 1   
    12    5   18 1   
    13    5   31 1   
    14    6    7 1   
    15    6   19 1   
    16    6   20 1   
    17    7    8 1   
    18    7    9 1   
    19    7   10 1   
    20    8   21 1   
    21    8   22 1   
    22    8   23 1   
    23    9   24 1   
    24    9   25 1   
    25    9   26 1   
    26   10   27 1   
    27   10   28 1   
    28   10   29 1   
    29   11   12 1   
    30   11   13 1   
@<TRIPOS>SUBSTRUCTURE
     1 ML3         1 TEMP              0 ****  ****    0 ROOT
