@<TRIPOS>MOLECULE
ML4
   59    62     1     0     0
SMALL
bcc


@<TRIPOS>ATOM
      1 O3          0.3310    1.0690   -0.3250 o         1 ML4     -0.757300
      2 C2          1.2870    0.2930   -0.1810 c         1 ML4      0.936600
      3 O1          1.8930   -0.4240   -1.0200 o         1 ML4     -0.757300
      4 C4          1.8410    0.1750    1.3220 c3        1 ML4     -0.067500
      5 N5          2.8410   -0.9340    1.3940 nz        1 ML4     -0.835600
      6 C6          2.4280    1.5190    1.7280 c3        1 ML4     -0.050100
      7 C7          3.0240    1.4850    3.0900 ca        1 ML4     -0.113300
      8 C12         2.2040    1.5240    4.2240 ca        1 ML4     -0.143000
      9 C11         2.7590    1.4760    5.5010 ca        1 ML4     -0.106500
     10 C10         4.1490    1.3950    5.6630 cp        1 ML4     -0.118500
     11 C9          4.9720    1.3640    4.5290 ca        1 ML4     -0.106500
     12 C8          4.4120    1.4090    3.2550 ca        1 ML4     -0.143000
     13 C13         4.7480    1.3510    7.0010 cp        1 ML4      0.270500
     14 N18         4.1500    0.6380    7.9950 nb        1 ML4     -0.596000
     15 C17         4.7460    0.6310    9.1900 ca        1 ML4      0.229900
     16 C16         5.9800    1.3360    9.4550 ca        1 ML4      0.541900
     17 N15         6.5660    2.0750    8.4500 nb        1 ML4     -0.695000
     18 C14         5.9540    2.0640    7.2590 ca        1 ML4      0.343900
     19 N19         6.6350    1.2130   10.6800 nu        1 ML4     -0.822900
     20 C20         5.8540    0.8510   11.8440 c3        1 ML4      0.240100
     21 C21         6.6140    1.0300   13.1270 ca        1 ML4     -0.098300
     22 C26         6.8660    2.3100   13.6480 cp        1 ML4     -0.025000
     23 C25         7.5530    2.4340   14.8630 ca        1 ML4     -0.117000
     24 C24         7.9830    1.3020   15.5520 ca        1 ML4     -0.120000
     25 C23         7.7340    0.0320   15.0310 ca        1 ML4     -0.129000
     26 C22         7.0550   -0.1010   13.8210 ca        1 ML4     -0.110000
     27 C27         6.4410    3.5260   12.9410 cp        1 ML4     -0.061000
     28 C32         7.3550    4.1750   12.1000 ca        1 ML4     -0.122000
     29 C31         6.9920    5.3390   11.4260 ca        1 ML4     -0.128000
     30 C30         5.7110    5.8650   11.5890 ca        1 ML4     -0.119000
     31 C29         4.7990    5.2280   12.4260 ca        1 ML4     -0.131000
     32 C28         5.1510    4.0570   13.1100 ca        1 ML4     -0.060300
     33 C33         4.1660    3.4130   14.0110 c3        1 ML4     -0.058800
     34 H4          0.9780   -0.0890    1.9920 hx        1 ML4      0.089700
     35 HN5         3.0720   -1.1790    0.4030 hn        1 ML4      0.445467
     36 HN5A        2.4390   -1.7480    1.8490 hn        1 ML4      0.445467
     37 H6          3.1890    1.8490    0.9720 hc        1 ML4      0.092700
     38 H6A         1.5780    2.2570    1.6800 hc        1 ML4      0.092700
     39 H12         1.1120    1.6000    4.1030 ha        1 ML4      0.138500
     40 H11         2.1020    1.5040    6.3840 ha        1 ML4      0.146000
     41 H9          6.0650    1.3010    4.6440 ha        1 ML4      0.146000
     42 H8          5.0710    1.4130    2.3730 ha        1 ML4      0.138500
     43 H17         4.2410    0.0440    9.9750 h4        1 ML4      0.033100
     44 H14         6.4350    2.6670    6.4680 h4        1 ML4      0.033100
     45 HN19        7.3590    1.8820   10.8570 hn        1 ML4      0.432800
     46 H20         4.9040    1.4640   11.9050 h1        1 ML4      0.052700
     47 H20A        5.5560   -0.2330   11.7310 h1        1 ML4      0.052700
     48 H25         7.7530    3.4360   15.2720 ha        1 ML4      0.142000
     49 H24         8.5210    1.4110   16.5050 ha        1 ML4      0.137000
     50 H23         8.0750   -0.8630   15.5710 ha        1 ML4      0.137000
     51 H22         6.8670   -1.1040   13.4070 ha        1 ML4      0.138000
     52 H32         8.3690    3.7640   11.9770 ha        1 ML4      0.137000
     53 H31         7.7160    5.8390   10.7660 ha        1 ML4      0.138000
     54 H30         5.4210    6.7830   11.0570 ha        1 ML4      0.135000
     55 H29         3.7890    5.6450   12.5550 ha        1 ML4      0.135000
     56 H33         4.2710    2.3000   13.9870 hc        1 ML4      0.048367
     57 H33A        4.3320    3.7560   15.0630 hc        1 ML4      0.048367
     58 H33B        3.1200    3.6780   13.7170 hc        1 ML4      0.048367
     59 H53         3.6820   -0.6410    1.8910 hn        1 ML4      0.445467
@<TRIPOS>BOND
     1    1    2 1   
     2    2    3 1   
     3    2    4 1   
     4    4    5 1   
     5    4    6 1   
     6    4   34 1   
     7    5   35 1   
     8    5   36 1   
     9    5   59 1   
    10    6    7 1   
    11    6   37 1   
    12    6   38 1   
    13    7    8 ar  
    14    7   12 ar  
    15    8    9 ar  
    16    8   39 1   
    17    9   10 ar  
    18    9   40 1   
    19   10   11 ar  
    20   10   13 1   
    21   11   12 ar  
    22   11   41 1   
    23   12   42 1   
    24   13   14 ar  
    25   13   18 ar  
    26   14   15 ar  
    27   15   16 ar  
    28   15   43 1   
    29   16   17 ar  
    30   16   19 1   
    31   17   18 ar  
    32   18   44 1   
    33   19   20 1   
    34   19   45 1   
    35   20   21 1   
    36   20   46 1   
    37   20   47 1   
    38   21   22 ar  
    39   21   26 ar  
    40   22   23 ar  
    41   22   27 1   
    42   23   24 ar  
    43   23   48 1   
    44   24   25 ar  
    45   24   49 1   
    46   25   26 ar  
    47   25   50 1   
    48   26   51 1   
    49   27   28 ar  
    50   27   32 ar  
    51   28   29 ar  
    52   28   52 1   
    53   29   30 ar  
    54   29   53 1   
    55   30   31 ar  
    56   30   54 1   
    57   31   32 ar  
    58   31   55 1   
    59   32   33 1   
    60   33   56 1   
    61   33   57 1   
    62   33   58 1   
@<TRIPOS>SUBSTRUCTURE
     1 ML4         1 TEMP              0 ****  ****    0 ROOT
