@<TRIPOS>MOLECULE
ML4
   60    63     1     0     0
SMALL
bcc


@<TRIPOS>ATOM
      1 O3          0.5070    2.0690    2.0910 o         1 ML4     -0.748800
      2 C2          0.4940    1.0280    1.4140 c         1 ML4      0.942600
      3 O1         -0.3950    0.5490    0.6680 o         1 ML4     -0.748800
      4 C4          1.8260    0.1110    1.5220 c3        1 ML4     -0.083500
      5 N5          1.8020   -0.8700    0.3970 n4        1 ML4     -0.831600
      6 C6          3.0880    0.9670    1.5530 c3        1 ML4     -0.044100
      7 C7          3.6440    1.0770    2.9320 ca        1 ML4     -0.042300
      8 C12         2.9220    1.7610    3.9180 ca        1 ML4     -0.130500
      9 C11         3.4490    1.9160    5.1970 ca        1 ML4     -0.081500
     10 C10         4.7060    1.3760    5.5130 cp        1 ML4     -0.205500
     11 C9          5.4300    0.6910    4.5230 ca        1 ML4     -0.081500
     12 C8          4.9020    0.5450    3.2450 ca        1 ML4     -0.130500
     13 C13         5.2680    1.5360    6.8530 cp        1 ML4      0.451500
     14 N18         4.9720    2.6320    7.5980 nb        1 ML4     -0.614000
     15 C17         5.5190    2.7270    8.8230 ca        1 ML4      0.359900
     16 C16         6.3830    1.7180    9.3310 ca        1 ML4      0.284900
     17 N15         6.6890    0.5980    8.6000 nb        1 ML4     -0.607000
     18 C14         6.1390    0.5170    7.3890 ca        1 ML4      0.303900
     19 N19         6.9720    1.8490   10.6700 n4        1 ML4     -0.733700
     20 C20         6.2820    0.9700   11.6790 c3        1 ML4      0.179100
     21 C21         6.8840    1.1440   13.0320 ca        1 ML4     -0.178300
     22 C26         6.7150    2.3490   13.7400 cp        1 ML4     -0.013000
     23 C25         7.2450    2.4620   15.0300 ca        1 ML4     -0.108000
     24 C24         7.9280    1.3920   15.6100 ca        1 ML4     -0.084000
     25 C23         8.0940    0.2010   14.9040 ca        1 ML4     -0.120000
     26 C22         7.5760    0.0770   13.6160 ca        1 ML4     -0.092000
     27 C27         6.0170    3.4940   13.1410 cp        1 ML4     -0.105000
     28 C32         6.7830    4.5450   12.6110 ca        1 ML4     -0.160000
     29 C31         6.1650    5.6640   12.0620 ca        1 ML4     -0.133000
     30 C30         4.7710    5.7480   12.0390 ca        1 ML4     -0.109000
     31 C29         4.0060    4.7150   12.5700 ca        1 ML4     -0.127000
     32 C28         4.6140    3.5810   13.1300 ca        1 ML4     -0.056300
     33 C33         3.7560    2.5270   13.7220 c3        1 ML4     -0.072800
     34 H4          1.7120   -0.4710    2.4780 hx        1 ML4      0.091700
     35 HN5         2.3400   -0.5200   -0.3940 hn        1 ML4      0.448467
     36 HN5A        2.1570   -1.7790    0.6770 hn        1 ML4      0.448467
     37 H6          2.8120    2.0040    1.2020 hc        1 ML4      0.074700
     38 H6A         3.8810    0.5750    0.8610 hc        1 ML4      0.074700
     39 H12         1.9290    2.1880    3.6630 ha        1 ML4      0.176000
     40 H11         2.8670    2.4660    5.9540 ha        1 ML4      0.145500
     41 H9          6.4300    0.2870    4.7420 ha        1 ML4      0.145500
     42 H8          5.4880    0.0210    2.4750 ha        1 ML4      0.176000
     43 H17         5.2550    3.6360    9.3970 h4        1 ML4      0.058100
     44 H14         6.3770   -0.3930    6.8040 h4        1 ML4      0.067100
     45 HN19        6.8890    2.8340   10.9740 hn        1 ML4      0.465800
     46 H20         5.1920    1.2670   11.6960 hx        1 ML4      0.113200
     47 H20A        6.3690   -0.0970   11.3230 hx        1 ML4      0.113200
     48 H25         7.1160    3.4030   15.5900 ha        1 ML4      0.162000
     49 H24         8.3350    1.4910   16.6290 ha        1 ML4      0.160000
     50 H23         8.6320   -0.6440   15.3630 ha        1 ML4      0.159000
     51 H22         7.7040   -0.8680   13.0640 ha        1 ML4      0.145000
     52 H32         7.8820    4.5020   12.6750 ha        1 ML4      0.141000
     53 H31         6.7740    6.4920   11.6650 ha        1 ML4      0.153000
     54 H30         4.2790    6.6380   11.6170 ha        1 ML4      0.156000
     55 H29         2.9060    4.7890   12.5700 ha        1 ML4      0.155000
     56 H33         2.8680    2.3280   13.0720 hc        1 ML4      0.059700
     57 H33A        3.3830    2.8670   14.7230 hc        1 ML4      0.059700
     58 H33B        4.3160    1.5710   13.8680 hc        1 ML4      0.059700
     59 H53         0.7960   -0.9450    0.1060 hn        1 ML4      0.448467
     60 H192        7.9690    1.6000   10.6380 hn        1 ML4      0.465800
@<TRIPOS>BOND
     1    1    2 1   
     2    2    3 1   
     3    2    4 1   
     4    4    5 1   
     5    4    6 1   
     6    4   34 1   
     7    5   35 1   
     8    5   36 1   
     9    5   59 1   
    10    6    7 1   
    11    6   37 1   
    12    6   38 1   
    13    7    8 ar  
    14    7   12 ar  
    15    8    9 ar  
    16    8   39 1   
    17    9   10 ar  
    18    9   40 1   
    19   10   11 ar  
    20   10   13 1   
    21   11   12 ar  
    22   11   41 1   
    23   12   42 1   
    24   13   14 ar  
    25   13   18 ar  
    26   14   15 ar  
    27   15   16 ar  
    28   15   43 1   
    29   16   17 ar  
    30   16   19 1   
    31   17   18 ar  
    32   18   44 1   
    33   19   20 1   
    34   19   45 1   
    35   19   60 1   
    36   20   21 1   
    37   20   46 1   
    38   20   47 1   
    39   21   22 ar  
    40   21   26 ar  
    41   22   23 ar  
    42   22   27 1   
    43   23   24 ar  
    44   23   48 1   
    45   24   25 ar  
    46   24   49 1   
    47   25   26 ar  
    48   25   50 1   
    49   26   51 1   
    50   27   28 ar  
    51   27   32 ar  
    52   28   29 ar  
    53   28   52 1   
    54   29   30 ar  
    55   29   53 1   
    56   30   31 ar  
    57   30   54 1   
    58   31   32 ar  
    59   31   55 1   
    60   32   33 1   
    61   33   56 1   
    62   33   57 1   
    63   33   58 1   
@<TRIPOS>SUBSTRUCTURE
     1 ML4         1 TEMP              0 ****  ****    0 ROOT
