@<TRIPOS>MOLECULE
ML4
   58    61     1     0     0
SMALL
bcc


@<TRIPOS>ATOM
      1 O3         -9.0760   -0.9120   -1.5760 o         1 ML4     -0.840300
      2 C2         -9.0480   -0.2560   -0.4980 c         1 ML4      0.887600
      3 O1        -10.0650    0.0380    0.1920 o         1 ML4     -0.840300
      4 C4         -7.6520    0.2490    0.0040 c3        1 ML4      0.021500
      5 N5         -7.6890    0.9420    1.2850 n3        1 ML4     -0.888800
      6 C6         -6.6900   -0.9460    0.0000 c3        1 ML4     -0.039100
      7 C7         -5.2600   -0.5450    0.0540 ca        1 ML4     -0.015300
      8 C12        -4.4860   -0.5170   -1.1130 ca        1 ML4     -0.135500
      9 C11        -3.1370   -0.1720   -1.0680 ca        1 ML4     -0.109000
     10 C10        -2.5310    0.1460    0.1550 cp        1 ML4     -0.181500
     11 C9         -3.3080    0.1420    1.3230 ca        1 ML4     -0.109000
     12 C8         -4.6550   -0.2010    1.2720 ca        1 ML4     -0.135500
     13 C13        -1.1040    0.4700    0.2290 cp        1 ML4      0.345500
     14 N18        -0.4880    1.1450   -0.7760 nb        1 ML4     -0.611000
     15 C17         0.8200    1.4020   -0.6360 ca        1 ML4      0.248900
     16 C16         1.5780    0.9990    0.5170 ca        1 ML4      0.482900
     17 N15         0.9580    0.2970    1.5240 nb        1 ML4     -0.687000
     18 C14        -0.3500    0.0560    1.3710 ca        1 ML4      0.311900
     19 N19         2.9270    1.3890    0.6720 nh        1 ML4     -0.805900
     20 C20         3.7090    1.4760   -0.5480 c3        1 ML4      0.223100
     21 C21         5.1890    1.5000   -0.2900 ca        1 ML4     -0.085300
     22 C26         5.9010    0.3160   -0.0400 cp        1 ML4     -0.026000
     23 C25         7.2880    0.3760    0.1550 ca        1 ML4     -0.122000
     24 C24         7.9560    1.5970    0.1100 ca        1 ML4     -0.129000
     25 C23         7.2450    2.7720   -0.1290 ca        1 ML4     -0.134000
     26 C22         5.8670    2.7230   -0.3260 ca        1 ML4     -0.110000
     27 C27         5.2240   -0.9850    0.0350 cp        1 ML4     -0.058000
     28 C32         4.7430   -1.4340    1.2730 ca        1 ML4     -0.116000
     29 C31         4.1060   -2.6680    1.3780 ca        1 ML4     -0.126000
     30 C30         3.9460   -3.4660    0.2460 ca        1 ML4     -0.119000
     31 C29         4.4260   -3.0300   -0.9860 ca        1 ML4     -0.131000
     32 C28         5.0670   -1.7910   -1.1060 ca        1 ML4     -0.061300
     33 C33         5.5580   -1.3400   -2.4300 c3        1 ML4     -0.055800
     34 H4         -7.2890    0.9940   -0.7620 h1        1 ML4      0.047700
     35 HN5        -8.3940    1.6570    1.2140 hn        1 ML4      0.331300
     36 HN5A       -8.0190    0.2960    1.9820 hn        1 ML4      0.331300
     37 H6         -6.9200   -1.6230    0.8660 hc        1 ML4      0.061700
     38 H6A        -6.8970   -1.5210   -0.9450 hc        1 ML4      0.061700
     39 H12        -4.9560   -0.7640   -2.0780 ha        1 ML4      0.143000
     40 H11        -2.5490   -0.1530   -1.9970 ha        1 ML4      0.124500
     41 H9         -2.8570    0.4280    2.2850 ha        1 ML4      0.124500
     42 H8         -5.2650   -0.1830    2.1880 ha        1 ML4      0.143000
     43 H17         1.2890    1.9580   -1.4650 h4        1 ML4      0.024100
     44 H14        -0.8350   -0.5100    2.1870 h4        1 ML4      0.034100
     45 HN19        3.4050    0.8910    1.4000 hn        1 ML4      0.405800
     46 H20         3.4860    0.6200   -1.2540 h1        1 ML4      0.050700
     47 H20A        3.4060    2.4310   -1.0690 h1        1 ML4      0.050700
     48 H25         7.8470   -0.5520    0.3470 ha        1 ML4      0.137000
     49 H24         9.0440    1.6320    0.2660 ha        1 ML4      0.130000
     50 H23         7.7700    3.7380   -0.1590 ha        1 ML4      0.131000
     51 H22         5.3040    3.6510   -0.5070 ha        1 ML4      0.140000
     52 H32         4.8690   -0.8040    2.1670 ha        1 ML4      0.137000
     53 H31         3.7210   -3.0050    2.3520 ha        1 ML4      0.137000
     54 H30         3.4370   -4.4380    0.3250 ha        1 ML4      0.134000
     55 H29         4.2970   -3.6610   -1.8790 ha        1 ML4      0.132000
     56 H33         6.5640   -0.8590   -2.3330 hc        1 ML4      0.046367
     57 H33A        5.6390   -2.1950   -3.1440 hc        1 ML4      0.046367
     58 H33B        4.8510   -0.5870   -2.8610 hc        1 ML4      0.046367
@<TRIPOS>BOND
     1    1    2 1   
     2    2    3 1   
     3    2    4 1   
     4    4    5 1   
     5    4    6 1   
     6    4   34 1   
     7    5   35 1   
     8    5   36 1   
     9    6    7 1   
    10    6   37 1   
    11    6   38 1   
    12    7    8 ar  
    13    7   12 ar  
    14    8    9 ar  
    15    8   39 1   
    16    9   10 ar  
    17    9   40 1   
    18   10   11 ar  
    19   10   13 1   
    20   11   12 ar  
    21   11   41 1   
    22   12   42 1   
    23   13   14 ar  
    24   13   18 ar  
    25   14   15 ar  
    26   15   16 ar  
    27   15   43 1   
    28   16   17 ar  
    29   16   19 1   
    30   17   18 ar  
    31   18   44 1   
    32   19   20 1   
    33   19   45 1   
    34   20   21 1   
    35   20   46 1   
    36   20   47 1   
    37   21   22 ar  
    38   21   26 ar  
    39   22   23 ar  
    40   22   27 1   
    41   23   24 ar  
    42   23   48 1   
    43   24   25 ar  
    44   24   49 1   
    45   25   26 ar  
    46   25   50 1   
    47   26   51 1   
    48   27   28 ar  
    49   27   32 ar  
    50   28   29 ar  
    51   28   52 1   
    52   29   30 ar  
    53   29   53 1   
    54   30   31 ar  
    55   30   54 1   
    56   31   32 ar  
    57   31   55 1   
    58   32   33 1   
    59   33   56 1   
    60   33   57 1   
    61   33   58 1   
@<TRIPOS>SUBSTRUCTURE
     1 ML4         1 TEMP              0 ****  ****    0 ROOT
