@<TRIPOS>MOLECULE
ML4
   59    62     1     0     0
SMALL
bcc


@<TRIPOS>ATOM
      1 O3          0.3330    1.0630   -0.3270 o         1 ML4     -0.757300
      2 C2          1.2960    0.2930   -0.1850 c         1 ML4      0.936600
      3 O1          1.9070   -0.4170   -1.0270 o         1 ML4     -0.757300
      4 C4          1.8500    0.1740    1.3170 c3        1 ML4     -0.067500
      5 N5          2.8590   -0.9280    1.3860 n4        1 ML4     -0.835600
      6 C6          2.4280    1.5220    1.7280 c3        1 ML4     -0.050100
      7 C7          3.0250    1.4880    3.0900 ca        1 ML4     -0.113300
      8 C12         2.2050    1.5170    4.2240 ca        1 ML4     -0.143000
      9 C11         2.7600    1.4690    5.5000 ca        1 ML4     -0.106500
     10 C10         4.1510    1.3980    5.6620 cp        1 ML4     -0.118500
     11 C9          4.9730    1.3770    4.5270 ca        1 ML4     -0.106500
     12 C8          4.4130    1.4220    3.2530 ca        1 ML4     -0.143000
     13 C13         4.7510    1.3550    7.0000 cp        1 ML4      0.270500
     14 N18         4.1580    0.6340    7.9910 nb        1 ML4     -0.596000
     15 C17         4.7550    0.6280    9.1860 ca        1 ML4      0.229900
     16 C16         5.9840    1.3420    9.4530 ca        1 ML4      0.541900
     17 N15         6.5630    2.0890    8.4500 nb        1 ML4     -0.695000
     18 C14         5.9510    2.0760    7.2590 ca        1 ML4      0.343900
     19 N19         6.6400    1.2190   10.6770 nh        1 ML4     -0.822900
     20 C20         5.8630    0.8480   11.8410 c3        1 ML4      0.240100
     21 C21         6.6220    1.0290   13.1240 ca        1 ML4     -0.098300
     22 C26         6.8640    2.3090   13.6490 cp        1 ML4     -0.025000
     23 C25         7.5510    2.4340   14.8640 ca        1 ML4     -0.117000
     24 C24         7.9900    1.3020   15.5480 ca        1 ML4     -0.120000
     25 C23         7.7500    0.0330   15.0230 ca        1 ML4     -0.129000
     26 C22         7.0720   -0.1020   13.8130 ca        1 ML4     -0.110000
     27 C27         6.4290    3.5230   12.9460 cp        1 ML4     -0.061000
     28 C32         7.3370    4.1830   12.1060 ca        1 ML4     -0.122000
     29 C31         6.9650    5.3460   11.4380 ca        1 ML4     -0.128000
     30 C30         5.6800    5.8620   11.6030 ca        1 ML4     -0.119000
     31 C29         4.7740    5.2140   12.4380 ca        1 ML4     -0.131000
     32 C28         5.1350    4.0440   13.1190 ca        1 ML4     -0.060300
     33 C33         4.1550    3.3890   14.0180 c3        1 ML4     -0.057800
     34 H4          0.9900   -0.0980    1.9860 hx        1 ML4      0.089700
     35 HN5         2.4630   -1.7460    1.8390 hn        1 ML4      0.445467
     36 HN5A        3.0910   -1.1670    0.3930 hn        1 ML4      0.445467
     37 H6          1.5730    2.2530    1.6820 hc        1 ML4      0.092700
     38 H6A         3.1870    1.8590    0.9720 hc        1 ML4      0.092700
     39 H12         1.1120    1.5860    4.1030 ha        1 ML4      0.138500
     40 H11         2.1030    1.4900    6.3830 ha        1 ML4      0.146000
     41 H9          6.0670    1.3210    4.6420 ha        1 ML4      0.146000
     42 H8          5.0720    1.4330    2.3710 ha        1 ML4      0.138500
     43 H17         4.2550    0.0350    9.9700 h4        1 ML4      0.033100
     44 H14         6.4270    2.6850    6.4690 h4        1 ML4      0.033100
     45 HN19        7.3590    1.8940   10.8550 hn        1 ML4      0.432800
     46 H20         4.9080    1.4530   11.9040 h1        1 ML4      0.052700
     47 H20A        5.5730   -0.2380   11.7240 h1        1 ML4      0.052700
     48 H25         7.7430    3.4360   15.2770 ha        1 ML4      0.142000
     49 H24         8.5270    1.4120   16.5020 ha        1 ML4      0.137000
     50 H23         8.0990   -0.8620   15.5600 ha        1 ML4      0.137000
     51 H22         6.8920   -1.1040   13.3960 ha        1 ML4      0.138000
     52 H32         8.3540    3.7800   11.9820 ha        1 ML4      0.137000
     53 H31         7.6840    5.8540   10.7780 ha        1 ML4      0.138000
     54 H30         5.3820    6.7790   11.0750 ha        1 ML4      0.135000
     55 H29         3.7600    5.6240   12.5700 ha        1 ML4      0.135000
     56 H33         3.1080    3.6480   13.7270 hc        1 ML4      0.048367
     57 H33A        4.3210    3.7290   15.0720 hc        1 ML4      0.048367
     58 H33B        4.2690    2.2770   13.9890 hc        1 ML4      0.048367
     59 H53         3.6980   -0.6290    1.8830 hn        1 ML4      0.445467
@<TRIPOS>BOND
     1    1    2 1   
     2    2    3 1   
     3    2    4 1   
     4    4    5 1   
     5    4    6 1   
     6    4   34 1   
     7    5   35 1   
     8    5   36 1   
     9    5   59 1   
    10    6    7 1   
    11    6   37 1   
    12    6   38 1   
    13    7    8 ar  
    14    7   12 ar  
    15    8    9 ar  
    16    8   39 1   
    17    9   10 ar  
    18    9   40 1   
    19   10   11 ar  
    20   10   13 1   
    21   11   12 ar  
    22   11   41 1   
    23   12   42 1   
    24   13   14 ar  
    25   13   18 ar  
    26   14   15 ar  
    27   15   16 ar  
    28   15   43 1   
    29   16   17 ar  
    30   16   19 1   
    31   17   18 ar  
    32   18   44 1   
    33   19   20 1   
    34   19   45 1   
    35   20   21 1   
    36   20   46 1   
    37   20   47 1   
    38   21   22 ar  
    39   21   26 ar  
    40   22   23 ar  
    41   22   27 1   
    42   23   24 ar  
    43   23   48 1   
    44   24   25 ar  
    45   24   49 1   
    46   25   26 ar  
    47   25   50 1   
    48   26   51 1   
    49   27   28 ar  
    50   27   32 ar  
    51   28   29 ar  
    52   28   52 1   
    53   29   30 ar  
    54   29   53 1   
    55   30   31 ar  
    56   30   54 1   
    57   31   32 ar  
    58   31   55 1   
    59   32   33 1   
    60   33   56 1   
    61   33   57 1   
    62   33   58 1   
@<TRIPOS>SUBSTRUCTURE
     1 ML4         1 TEMP              0 ****  ****    0 ROOT
