@<TRIPOS>MOLECULE
ML5
   48    48     1     0     0
SMALL
bcc


@<TRIPOS>ATOM
      1 O4         -0.0670    0.5900   -1.1920 o         1 ML5     -0.882000
      2 P1          1.2840    0.9520   -0.6940 p5        1 ML5      1.350600
      3 O2          1.4910    2.0530    0.2860 o         1 ML5     -0.882000
      4 O3          1.8530   -0.3400    0.1640 oh        1 ML5     -0.798400
      5 C16         2.3410    1.0660   -2.0050 c3        1 ML5     -0.345600
      6 C15         3.7820    1.1660   -1.5870 c3        1 ML5     -0.065400
      7 C14         4.3790    2.5750   -1.7790 c3        1 ML5      0.113500
      8 N2          3.8430    3.5920   -0.8900 n3        1 ML5     -0.924800
      9 C13         5.9260    2.4410   -1.6500 c2        1 ML5      0.577300
     10 O1          6.4180    2.4600   -0.4860 o         1 ML5     -0.758300
     11 N1          6.5790    2.3040   -2.8440 ne        1 ML5     -0.576400
     12 C5          7.9230    2.1710   -2.9660 ca        1 ML5      0.297400
     13 C4          8.8930    2.1540   -1.9110 ca        1 ML5     -0.261000
     14 C3         10.2440    2.0200   -2.1690 ca        1 ML5     -0.098000
     15 C2         10.7310    1.8960   -3.4710 ca        1 ML5     -0.277000
     16 C6          8.4580    2.0360   -4.2940 ca        1 ML5     -0.225000
     17 C1          9.8170    1.9050   -4.5320 ca        1 ML5     -0.066300
     18 C7         10.3100    1.7630   -5.9330 c3        1 ML5     -0.017100
     19 C8         10.2530    3.0810   -6.6810 c3        1 ML5     -0.079400
     20 C9         10.7150    2.9230   -8.1150 c3        1 ML5     -0.078400
     21 C10        10.6600    4.2390   -8.8600 c3        1 ML5     -0.080400
     22 C11        11.1180    4.0850  -10.2950 c3        1 ML5     -0.080400
     23 C12        11.0650    5.3940  -11.0390 c3        1 ML5     -0.090100
     24 H3          2.2080    0.1710   -2.6620 hc        1 ML5      0.060700
     25 H4          2.0580    1.9470   -2.6320 hc        1 ML5      0.060700
     26 H5          4.4110    0.4530   -2.1840 hc        1 ML5      0.038200
     27 H6          3.8750    0.8680   -0.5070 hc        1 ML5      0.038200
     28 H7          4.1240    2.9150   -2.8260 h1        1 ML5      0.053700
     29 H8          4.3980    3.6300   -0.0540 hn        1 ML5      0.362800
     30 H9          2.9030    3.3350   -0.6200 hn        1 ML5      0.362800
     31 H11         2.2260   -0.0610    0.9920 ho        1 ML5      0.418000
     32 H12         8.5380    2.2490   -0.8730 ha        1 ML5      0.153000
     33 H13        10.9560    2.0110   -1.3290 ha        1 ML5      0.080000
     34 H14        11.8050    1.7910   -3.6590 ha        1 ML5      0.083000
     35 H15         7.7610    2.0370   -5.1460 ha        1 ML5      0.112000
     36 H16         9.6820    1.0050   -6.4750 hc        1 ML5      0.021700
     37 H17        11.3660    1.3810   -5.9360 hc        1 ML5      0.021700
     38 H18         9.2010    3.4700   -6.6600 hc        1 ML5      0.048200
     39 H19        10.8970    3.8360   -6.1580 hc        1 ML5      0.048200
     40 H20        11.7640    2.5250   -8.1320 hc        1 ML5      0.028700
     41 H21        10.0680    2.1700   -8.6370 hc        1 ML5      0.028700
     42 H22        11.3080    4.9930   -8.3380 hc        1 ML5      0.040200
     43 H23         9.6110    4.6370   -8.8400 hc        1 ML5      0.040200
     44 H24        12.1660    3.6840  -10.3120 hc        1 ML5      0.032700
     45 H25        10.4690    3.3300  -10.8130 hc        1 ML5      0.032700
     46 H26        11.7240    6.1510  -10.5500 hc        1 ML5      0.025700
     47 H27        10.0230    5.7960  -11.0520 hc        1 ML5      0.025700
     48 H28        11.4040    5.2580  -12.0940 hc        1 ML5      0.025700
@<TRIPOS>BOND
     1    1    2 1   
     2    2    3 1   
     3    2    4 1   
     4    2    5 1   
     5    4   31 1   
     6    5    6 1   
     7    5   24 1   
     8    5   25 1   
     9    6    7 1   
    10    6   26 1   
    11    6   27 1   
    12    7    8 1   
    13    7    9 1   
    14    7   28 1   
    15    8   29 1   
    16    8   30 1   
    17    9   10 1   
    18    9   11 2   
    19   11   12 1   
    20   12   13 ar  
    21   12   16 ar  
    22   13   14 ar  
    23   13   32 1   
    24   14   15 ar  
    25   14   33 1   
    26   15   17 ar  
    27   15   34 1   
    28   16   17 ar  
    29   16   35 1   
    30   17   18 1   
    31   18   19 1   
    32   18   36 1   
    33   18   37 1   
    34   19   20 1   
    35   19   38 1   
    36   19   39 1   
    37   20   21 1   
    38   20   40 1   
    39   20   41 1   
    40   21   22 1   
    41   21   42 1   
    42   21   43 1   
    43   22   23 1   
    44   22   44 1   
    45   22   45 1   
    46   23   46 1   
    47   23   47 1   
    48   23   48 1   
@<TRIPOS>SUBSTRUCTURE
     1 ML5         1 TEMP              0 ****  ****    0 ROOT
