@<TRIPOS>MOLECULE
ML5
   49    48     1     0     0
SMALL
bcc


@<TRIPOS>ATOM
      1 O4          4.0080    5.2140   -4.6150 o         1 ML5     -1.126667
      2 P1          5.0080    4.1430   -4.5490 p3        1 ML5      2.401000
      3 O2          6.1750    4.0860   -5.4450 o         1 ML5     -1.126667
      4 O3          4.8820    3.0540   -3.5500 o         1 ML5     -1.126667
      5 C16         3.9670    2.4480    0.5260 c3        1 ML5     -0.203000
      6 C15         5.0340    1.9800   -0.4280 c3        1 ML5     -0.213000
      7 C14         4.6660    0.6330   -1.0710 c3        1 ML5     -0.034000
      8 N2          3.6180    0.6760   -2.0700 n8        1 ML5     -0.341000
      9 C13         5.9720    0.0080   -1.6230 c2        1 ML5      0.319000
     10 O1          6.4470   -1.0020   -1.0640 o         1 ML5     -0.400000
     11 N1          6.5550    0.6560   -2.6900 ns        1 ML5     -0.317000
     12 C5          7.7330    0.3080   -3.3630 ca        1 ML5      0.090000
     13 C4          8.6080   -0.7130   -2.9360 ca        1 ML5     -0.179000
     14 C3          9.7760   -0.9670   -3.6510 ca        1 ML5     -0.120000
     15 C2         10.1040   -0.2320   -4.7850 ca        1 ML5     -0.179000
     16 C6          8.0660    1.0410   -4.5310 ca        1 ML5     -0.174000
     17 C1          9.2420    0.7800   -5.2300 ca        1 ML5     -0.046000
     18 C7          9.5640    1.5500   -6.4640 c3        1 ML5     -0.113000
     19 C8          9.3420    3.0420   -6.3080 c3        1 ML5     -0.182000
     20 C9          9.7200    3.7850   -7.5720 c3        1 ML5     -0.144000
     21 C10         9.3420    5.2470   -7.4600 c3        1 ML5     -0.168000
     22 C11         9.6260    5.9920   -8.7470 c3        1 ML5     -0.155000
     23 C12         9.2610    7.4500   -8.6320 c3        1 ML5     -0.209000
     24 H3          3.0080    2.6420   -0.0130 hc        1 ML5      0.065000
     25 H4          4.2850    3.3980    1.0190 hc        1 ML5      0.065000
     26 H5          6.0030    1.8640    0.1230 hc        1 ML5      0.110000
     27 H6          5.1850    2.7470   -1.2390 hc        1 ML5      0.110000
     28 H7          4.3180   -0.0710   -0.2550 h1        1 ML5      0.105000
     29 H8          3.8920    1.2460   -2.8550 hn        1 ML5      0.164000
     30 H9          2.8020    1.0930   -1.6600 hn        1 ML5      0.164000
     31 H11         6.0680    1.4620   -3.0560 hn        1 ML5      0.296000
     32 H12         8.3730   -1.3120   -2.0430 ha        1 ML5      0.162000
     33 H13        10.4500   -1.7650   -3.3050 ha        1 ML5      0.113000
     34 H14        11.0330   -0.4420   -5.3310 ha        1 ML5      0.114000
     35 H15         7.3940    1.8390   -4.8960 ha        1 ML5      0.179000
     36 H16         8.9150    1.1680   -7.3000 hc        1 ML5      0.073000
     37 H17        10.6300    1.3620   -6.7630 hc        1 ML5      0.073000
     38 H18         9.9540    3.4240   -5.4500 hc        1 ML5      0.116500
     39 H19         8.2610    3.2580   -6.0670 hc        1 ML5      0.116500
     40 H20         9.1880    3.3280   -8.4480 hc        1 ML5      0.061000
     41 H21        10.8200    3.6870   -7.7650 hc        1 ML5      0.061000
     42 H22         9.9150    5.7180   -6.6190 hc        1 ML5      0.098000
     43 H23         8.2510    5.3270   -7.2010 hc        1 ML5      0.098000
     44 H24         9.0430    5.5250   -9.5840 hc        1 ML5      0.067000
     45 H25        10.7130    5.8950   -9.0080 hc        1 ML5      0.067000
     46 H26         9.4610    7.9810   -9.5940 hc        1 ML5      0.067333
     47 H27         9.8570    7.9430   -7.8270 hc        1 ML5      0.067333
     48 H28         8.1780    7.5640   -8.3830 hc        1 ML5      0.067333
     49 H231        3.7780    1.6850    1.3200 hc        1 ML5      0.065000
@<TRIPOS>BOND
     1    1    2 1   
     2    2    3 1   
     3    2    4 1   
     4    5    6 1   
     5    5   24 1   
     6    5   25 1   
     7    5   49 1   
     8    6    7 1   
     9    6   26 1   
    10    6   27 1   
    11    7    8 1   
    12    7    9 1   
    13    7   28 1   
    14    8   29 1   
    15    8   30 1   
    16    9   10 1   
    17    9   11 1   
    18   11   12 1   
    19   11   31 1   
    20   12   13 1   
    21   12   16 1   
    22   13   14 1   
    23   13   32 1   
    24   14   15 1   
    25   14   33 1   
    26   15   17 1   
    27   15   34 1   
    28   16   17 1   
    29   16   35 1   
    30   17   18 1   
    31   18   19 1   
    32   18   36 1   
    33   18   37 1   
    34   19   20 1   
    35   19   38 1   
    36   19   39 1   
    37   20   21 1   
    38   20   40 1   
    39   20   41 1   
    40   21   22 1   
    41   21   42 1   
    42   21   43 1   
    43   22   23 1   
    44   22   44 1   
    45   22   45 1   
    46   23   46 1   
    47   23   47 1   
    48   23   48 1   
@<TRIPOS>SUBSTRUCTURE
     1 ML5         1 TEMP              0 ****  ****    0 ROOT
