@<TRIPOS>MOLECULE
ML5
   48    48     1     0     0
SMALL
bcc


@<TRIPOS>ATOM
      1 O4         -6.3010   -2.8720    0.2910 o         1 ML5     -0.882000
      2 P1         -5.5810   -1.6390   -0.1190 p5        1 ML5      1.350600
      3 O2         -5.8030   -1.0080   -1.4480 o         1 ML5     -0.882000
      4 O3         -6.0710   -0.4270    0.8880 oh        1 ML5     -0.798400
      5 C16        -3.9390   -1.8200    0.2290 c3        1 ML5     -0.345600
      6 C15        -3.1700   -0.5340    0.0970 c3        1 ML5     -0.065400
      7 C14        -2.2650   -0.4880   -1.1510 c3        1 ML5      0.113500
      8 N2         -2.9730   -0.4270   -2.4180 n3        1 ML5     -0.924800
      9 C13        -1.2880    0.7130   -0.9670 c2        1 ML5      0.577300
     10 O1         -1.7040    1.8580   -1.3030 o         1 ML5     -0.758300
     11 N1         -0.0730    0.3720   -0.4400 ne        1 ML5     -0.576400
     12 C5          0.9240    1.2570   -0.1950 ca        1 ML5      0.297400
     13 C4          0.9100    2.6710   -0.4330 ca        1 ML5     -0.261000
     14 C3          2.0030    3.4660   -0.1460 ca        1 ML5     -0.098000
     15 C2          3.1750    2.9330    0.3910 ca        1 ML5     -0.277000
     16 C6          2.1460    0.7410    0.3640 ca        1 ML5     -0.225000
     17 C1          3.2320    1.5560    0.6430 ca        1 ML5     -0.066300
     18 C7          4.4690    0.9620    1.2270 c3        1 ML5     -0.017100
     19 C8          5.2570    0.1820    0.1910 c3        1 ML5     -0.079400
     20 C9          6.4890   -0.4540    0.7970 c3        1 ML5     -0.078400
     21 C10         7.2760   -1.2280   -0.2380 c3        1 ML5     -0.080400
     22 C11         8.5080   -1.8690    0.3660 c3        1 ML5     -0.080400
     23 C12         9.2930   -2.6410   -0.6630 c3        1 ML5     -0.090100
     24 H3         -3.8260   -2.2130    1.2700 hc        1 ML5      0.060700
     25 H4         -3.5030   -2.6020   -0.4400 hc        1 ML5      0.060700
     26 H5         -3.8920    0.3270    0.0630 hc        1 ML5      0.038200
     27 H6         -2.5120   -0.3810    0.9930 hc        1 ML5      0.038200
     28 H7         -1.6680   -1.4480   -1.1770 h1        1 ML5      0.053700
     29 H8         -3.8820   -0.8580   -2.3120 hn        1 ML5      0.362800
     30 H9         -3.1230    0.5340   -2.6700 hn        1 ML5      0.362800
     31 H11        -6.2830    0.3590    0.3980 ho        1 ML5      0.418000
     32 H12        -0.0020    3.1200   -0.8560 ha        1 ML5      0.153000
     33 H13         1.9500    4.5480   -0.3440 ha        1 ML5      0.080000
     34 H14         4.0330    3.5770    0.6130 ha        1 ML5      0.083000
     35 H15         2.2150   -0.3360    0.5740 ha        1 ML5      0.112000
     36 H16         5.1200    1.7680    1.6570 hc        1 ML5      0.021700
     37 H17         4.1910    0.2740    2.0710 hc        1 ML5      0.021700
     38 H18         4.5970   -0.6100   -0.2520 hc        1 ML5      0.048200
     39 H19         5.5570    0.8690   -0.6430 hc        1 ML5      0.048200
     40 H20         7.1410    0.3410    1.2480 hc        1 ML5      0.028700
     41 H21         6.1860   -1.1420    1.6300 hc        1 ML5      0.028700
     42 H22         6.6220   -2.0210   -0.6880 hc        1 ML5      0.040200
     43 H23         7.5800   -0.5400   -1.0700 hc        1 ML5      0.040200
     44 H24         9.1580   -1.0750    0.8190 hc        1 ML5      0.033200
     45 H25         8.2000   -2.5560    1.1980 hc        1 ML5      0.033200
     46 H26         8.6680   -3.4520   -1.1080 hc        1 ML5      0.025700
     47 H27         9.6290   -1.9680   -1.4880 hc        1 ML5      0.025700
     48 H28        10.1960   -3.1060   -0.1980 hc        1 ML5      0.025700
@<TRIPOS>BOND
     1    1    2 1   
     2    2    3 1   
     3    2    4 1   
     4    2    5 1   
     5    4   31 1   
     6    5    6 1   
     7    5   24 1   
     8    5   25 1   
     9    6    7 1   
    10    6   26 1   
    11    6   27 1   
    12    7    8 1   
    13    7    9 1   
    14    7   28 1   
    15    8   29 1   
    16    8   30 1   
    17    9   10 1   
    18    9   11 2   
    19   11   12 1   
    20   12   13 ar  
    21   12   16 ar  
    22   13   14 ar  
    23   13   32 1   
    24   14   15 ar  
    25   14   33 1   
    26   15   17 ar  
    27   15   34 1   
    28   16   17 ar  
    29   16   35 1   
    30   17   18 1   
    31   18   19 1   
    32   18   36 1   
    33   18   37 1   
    34   19   20 1   
    35   19   38 1   
    36   19   39 1   
    37   20   21 1   
    38   20   40 1   
    39   20   41 1   
    40   21   22 1   
    41   21   42 1   
    42   21   43 1   
    43   22   23 1   
    44   22   44 1   
    45   22   45 1   
    46   23   46 1   
    47   23   47 1   
    48   23   48 1   
@<TRIPOS>SUBSTRUCTURE
     1 ML5         1 TEMP              0 ****  ****    0 ROOT
