@<TRIPOS>MOLECULE
ML5
   49    48     1     0     0
SMALL
bcc


@<TRIPOS>ATOM
      1 O4          4.0730    5.3040   -4.4440 o         1 ML5     -1.126667
      2 P1          5.0460    4.2060   -4.4410 p3        1 ML5      2.401000
      3 O2          6.1980    4.1600   -5.3550 o         1 ML5     -1.126667
      4 O3          4.9050    3.0770   -3.4900 o         1 ML5     -1.126667
      5 C16         4.0320    2.3080    0.5670 c3        1 ML5     -0.203000
      6 C15         5.0730    1.8580   -0.4230 c3        1 ML5     -0.213000
      7 C14         4.6620    0.5510   -1.1200 c3        1 ML5     -0.034000
      8 N2          3.6020    0.6660   -2.1000 n3        1 ML5     -0.341000
      9 C13         5.9440   -0.0800   -1.7200 c2        1 ML5      0.319000
     10 O1          6.4000   -1.1270   -1.2150 o         1 ML5     -0.400000
     11 N1          6.5280    0.6010   -2.7650 n         1 ML5     -0.317000
     12 C5          7.6880    0.2550   -3.4710 ca        1 ML5      0.090000
     13 C4          8.5420   -0.8060   -3.1040 ca        1 ML5     -0.179000
     14 C3          9.6930   -1.0570   -3.8470 ca        1 ML5     -0.120000
     15 C2         10.0240   -0.2790   -4.9510 ca        1 ML5     -0.179000
     16 C6          8.0240    1.0330   -4.6090 ca        1 ML5     -0.174000
     17 C1          9.1830    0.7740   -5.3370 ca        1 ML5     -0.046000
     18 C7          9.5070    1.5920   -6.5390 c3        1 ML5     -0.113000
     19 C8          9.3260    3.0800   -6.3120 c3        1 ML5     -0.182000
     20 C9          9.7080    3.8690   -7.5460 c3        1 ML5     -0.144000
     21 C10         9.3730    5.3350   -7.3630 c3        1 ML5     -0.168000
     22 C11         9.6620    6.1300   -8.6180 c3        1 ML5     -0.155000
     23 C12         9.3390    7.5900   -8.4320 c3        1 ML5     -0.209000
     24 H3          3.0710    2.5500    0.0530 hc        1 ML5      0.065000
     25 H4          4.3800    3.2260    1.0990 hc        1 ML5      0.065000
     26 H5          6.0470    1.6930    0.1080 hc        1 ML5      0.110000
     27 H6          5.2320    2.6570   -1.2000 hc        1 ML5      0.110000
     28 H7          4.3080   -0.1810   -0.3320 h1        1 ML5      0.105000
     29 H8          2.8030    1.0830   -1.6600 hn        1 ML5      0.164000
     30 H9          3.8350    1.5140    1.3290 hc        1 ML5      0.065000
     31 H11         6.0580    1.4350   -3.0870 hn        1 ML5      0.296000
     32 H12         8.3030   -1.4400   -2.2350 ha        1 ML5      0.162000
     33 H13        10.3500   -1.8870   -3.5480 ha        1 ML5      0.113000
     34 H14        10.9400   -0.4870   -5.5200 ha        1 ML5      0.114000
     35 H15         7.3680    1.8630   -4.9260 ha        1 ML5      0.179000
     36 H16         8.8370    1.2640   -7.3810 hc        1 ML5      0.073000
     37 H17        10.5640    1.3900   -6.8620 hc        1 ML5      0.073000
     38 H18         9.9590    3.4060   -5.4470 hc        1 ML5      0.116500
     39 H19         8.2540    3.3120   -6.0470 hc        1 ML5      0.116500
     40 H20        10.8030    3.7510   -7.7590 hc        1 ML5      0.061000
     41 H21         9.1530    3.4680   -8.4350 hc        1 ML5      0.061000
     42 H22         8.2870    5.4330   -7.0870 hc        1 ML5      0.098500
     43 H23         9.9690    5.7510   -6.5090 hc        1 ML5      0.098500
     44 H24         9.0570    5.7180   -9.4680 hc        1 ML5      0.067000
     45 H25        10.7430    6.0150   -8.8970 hc        1 ML5      0.067000
     46 H26         8.2630    7.7220   -8.1640 hc        1 ML5      0.067333
     47 H27         9.9590    8.0290   -7.6130 hc        1 ML5      0.067333
     48 H28         9.5430    8.1590   -9.3710 hc        1 ML5      0.067333
     49 H231        3.8790    1.2640   -2.8630 hn        1 ML5      0.164000
@<TRIPOS>BOND
     1    1    2 1   
     2    2    3 1   
     3    2    4 1   
     4    5    6 1   
     5    5   24 1   
     6    5   25 1   
     7    5   30 1   
     8    6    7 1   
     9    6   26 1   
    10    6   27 1   
    11    7    8 1   
    12    7    9 1   
    13    7   28 1   
    14    8   29 1   
    15    8   49 1   
    16    9   10 1   
    17    9   11 1   
    18   11   12 1   
    19   11   31 1   
    20   12   13 1   
    21   12   16 1   
    22   13   14 1   
    23   13   32 1   
    24   14   15 1   
    25   14   33 1   
    26   15   17 1   
    27   15   34 1   
    28   16   17 1   
    29   16   35 1   
    30   17   18 1   
    31   18   19 1   
    32   18   36 1   
    33   18   37 1   
    34   19   20 1   
    35   19   38 1   
    36   19   39 1   
    37   20   21 1   
    38   20   40 1   
    39   20   41 1   
    40   21   22 1   
    41   21   42 1   
    42   21   43 1   
    43   22   23 1   
    44   22   44 1   
    45   22   45 1   
    46   23   46 1   
    47   23   47 1   
    48   23   48 1   
@<TRIPOS>SUBSTRUCTURE
     1 ML5         1 TEMP              0 ****  ****    0 ROOT
