@<TRIPOS>MOLECULE
ML6
   44    46     1     0     0
SMALL
bcc


@<TRIPOS>ATOM
      1 N01         0.1000   -0.0370   -0.0300 nb        1 ML6     -0.761000
      2 C02         1.4540   -0.0790    0.0220 ca        1 ML6      0.704200
      3 N02         2.1790   -0.0220   -1.1470 nv        1 ML6     -0.954500
      4 C03         2.1780   -0.1360    1.2900 ca        1 ML6     -0.260300
      5 C04         1.4750   -0.1290    2.4580 ca        1 ML6     -0.050000
      6 C05         0.0480   -0.0710    2.4340 ca        1 ML6     -0.178300
      7 C06        -0.7260   -0.0600    3.6160 ca        1 ML6     -0.057000
      8 C07        -2.0990   -0.0060    3.5540 ca        1 ML6     -0.164000
      9 C08        -2.7440    0.0280    2.2940 ca        1 ML6     -0.169300
     10 C09        -2.0210    0.0150    1.1200 ca        1 ML6     -0.145300
     11 C10        -0.5890   -0.0310    1.1550 ca        1 ML6      0.453600
     12 C11        -4.2340    0.0550    2.2460 c3        1 ML6      0.174100
     13 N12        -4.7320    1.4730    2.2510 ny        1 ML6     -0.767000
     14 C13        -6.2210    1.5490    2.2020 c3        1 ML6      0.098800
     15 C14        -6.7320    2.9840    2.2100 c3        1 ML6     -0.109400
     16 C15        -8.2510    2.9780    2.1640 c3        1 ML6     -0.027100
     17 C21        -8.7840    4.3670    2.2190 ca        1 ML6     -0.083300
     18 C22        -9.3390    4.9590    1.0810 ca        1 ML6     -0.135000
     19 C23        -9.8520    6.2550    1.1430 ca        1 ML6     -0.094000
     20 C24        -9.8170    6.9760    2.3320 ca        1 ML6     -0.148000
     21 C25        -9.2590    6.3810    3.4800 ca        1 ML6      0.138900
     22 F25        -9.2170    7.0670    4.6450 f         1 ML6     -0.128900
     23 C26        -8.7440    5.0740    3.4240 ca        1 ML6     -0.170000
     24 HN02        1.7180   -0.0780   -2.0230 hn        1 ML6      0.445300
     25 HN0A        3.1460   -0.2310   -1.1090 hn        1 ML6      0.445300
     26 H03         3.2770   -0.1800    1.2860 ha        1 ML6      0.159000
     27 H04         1.9890   -0.1690    3.4320 ha        1 ML6      0.155000
     28 H06        -0.2110   -0.1000    4.5900 ha        1 ML6      0.153000
     29 H07        -2.7000   -0.0150    4.4750 ha        1 ML6      0.135000
     30 H09        -2.5260    0.0220    0.1400 ha        1 ML6      0.151000
     31 H11        -4.6210   -0.4400    1.3090 hx        1 ML6      0.107200
     32 H11A       -4.6760   -0.4670    3.1430 hx        1 ML6      0.107200
     33 HN12       -4.3900    1.9430    3.0980 hn        1 ML6      0.450800
     34 H13        -6.6250    0.9900    3.0950 hx        1 ML6      0.104200
     35 H13A       -6.5640    1.0210    1.2660 hx        1 ML6      0.104200
     36 H14        -6.3930    3.5190    3.1370 hc        1 ML6      0.071200
     37 H14A       -6.3350    3.5470    1.3240 hc        1 ML6      0.071200
     38 H15        -8.6520    2.3900    3.0340 hc        1 ML6      0.062700
     39 H15A       -8.5980    2.4680    1.2250 hc        1 ML6      0.062700
     40 H22        -9.3820    4.4010    0.1330 ha        1 ML6      0.138000
     41 H23       -10.2940    6.7120    0.2430 ha        1 ML6      0.152000
     42 H24       -10.2220    7.9980    2.3890 ha        1 ML6      0.164000
     43 H26        -8.3260    4.6180    4.3330 ha        1 ML6      0.142000
     44 H122       -4.3350    1.9680    1.4440 hn        1 ML6      0.450800
@<TRIPOS>BOND
     1    1    2 ar  
     2    1   11 ar  
     3    2    3 1   
     4    2    4 ar  
     5    3   24 1   
     6    3   25 1   
     7    4    5 ar  
     8    4   26 1   
     9    5    6 ar  
    10    5   27 1   
    11    6    7 ar  
    12    6   11 ar  
    13    7    8 ar  
    14    7   28 1   
    15    8    9 ar  
    16    8   29 1   
    17    9   10 ar  
    18    9   12 1   
    19   10   11 ar  
    20   10   30 1   
    21   12   13 1   
    22   12   31 1   
    23   12   32 1   
    24   13   14 1   
    25   13   33 1   
    26   13   44 1   
    27   14   15 1   
    28   14   34 1   
    29   14   35 1   
    30   15   16 1   
    31   15   36 1   
    32   15   37 1   
    33   16   17 1   
    34   16   38 1   
    35   16   39 1   
    36   17   18 ar  
    37   17   23 ar  
    38   18   19 ar  
    39   18   40 1   
    40   19   20 ar  
    41   19   41 1   
    42   20   21 ar  
    43   20   42 1   
    44   21   22 1   
    45   21   23 ar  
    46   23   43 1   
@<TRIPOS>SUBSTRUCTURE
     1 ML6         1 TEMP              0 ****  ****    0 ROOT
