@<TRIPOS>MOLECULE
ML6
   44    46     1     0     0
SMALL
bcc


@<TRIPOS>ATOM
      1 N01         0.0960   -0.0340   -0.0290 nb        1 ML6     -0.761000
      2 C02         1.4510   -0.0740    0.0200 ca        1 ML6      0.704200
      3 N02         2.1720   -0.0170   -1.1510 nh        1 ML6     -0.954500
      4 C03         2.1780   -0.1310    1.2860 ca        1 ML6     -0.260300
      5 C04         1.4780   -0.1250    2.4560 ca        1 ML6     -0.050000
      6 C05         0.0510   -0.0680    2.4350 ca        1 ML6     -0.178300
      7 C06        -0.7200   -0.0580    3.6190 ca        1 ML6     -0.057000
      8 C07        -2.0940   -0.0050    3.5610 ca        1 ML6     -0.164000
      9 C08        -2.7420    0.0290    2.3030 ca        1 ML6     -0.169300
     10 C09        -2.0220    0.0160    1.1270 ca        1 ML6     -0.146300
     11 C10        -0.5900   -0.0280    1.1580 ca        1 ML6      0.453600
     12 C11        -4.2320    0.0540    2.2590 c3        1 ML6      0.174100
     13 N12        -4.7310    1.4720    2.2570 n4        1 ML6     -0.767000
     14 C13        -6.2190    1.5470    2.2110 c3        1 ML6      0.098800
     15 C14        -6.7310    2.9820    2.2110 c3        1 ML6     -0.109400
     16 C15        -8.2510    2.9740    2.1670 c3        1 ML6     -0.027100
     17 C21        -8.7850    4.3640    2.2160 ca        1 ML6     -0.083300
     18 C22        -9.3410    4.9490    1.0750 ca        1 ML6     -0.135000
     19 C23        -9.8550    6.2450    1.1310 ca        1 ML6     -0.094000
     20 C24        -9.8200    6.9720    2.3170 ca        1 ML6     -0.148000
     21 C25        -9.2610    6.3830    3.4670 ca        1 ML6      0.138900
     22 F25        -9.2190    7.0750    4.6300 f         1 ML6     -0.128900
     23 C26        -8.7450    5.0760    3.4180 ca        1 ML6     -0.170000
     24 HN02        3.1390   -0.2250   -1.1160 hn        1 ML6      0.445300
     25 HN0A        1.7080   -0.0730   -2.0260 hn        1 ML6      0.445300
     26 H03         3.2770   -0.1740    1.2790 ha        1 ML6      0.159000
     27 H04         1.9940   -0.1650    3.4280 ha        1 ML6      0.155000
     28 H06        -0.2030   -0.0970    4.5920 ha        1 ML6      0.153000
     29 H07        -2.6920   -0.0130    4.4840 ha        1 ML6      0.136000
     30 H09        -2.5300    0.0230    0.1490 ha        1 ML6      0.151000
     31 H11        -4.6210   -0.4460    1.3260 hx        1 ML6      0.107200
     32 H11A       -4.6710   -0.4620    3.1600 hx        1 ML6      0.107200
     33 HN12       -4.3880    1.9480    3.1000 hn        1 ML6      0.450800
     34 H13        -6.5640    1.0140    1.2780 hx        1 ML6      0.104200
     35 H13A       -6.6220    0.9920    3.1070 hx        1 ML6      0.104200
     36 H14        -6.3920    3.5220    3.1350 hc        1 ML6      0.071200
     37 H14A       -6.3370    3.5410    1.3220 hc        1 ML6      0.071200
     38 H15        -8.5980    2.4600    1.2320 hc        1 ML6      0.062700
     39 H15A       -8.6510    2.3910    3.0410 hc        1 ML6      0.062700
     40 H22        -9.3840    4.3870    0.1300 ha        1 ML6      0.138000
     41 H23       -10.2970    6.6980    0.2290 ha        1 ML6      0.152000
     42 H24       -10.2250    7.9940    2.3690 ha        1 ML6      0.164000
     43 H26        -8.3260    4.6250    4.3290 ha        1 ML6      0.142000
     44 H122       -4.3350    1.9640    1.4460 hn        1 ML6      0.450800
@<TRIPOS>BOND
     1    1    2 ar  
     2    1   11 ar  
     3    2    3 1   
     4    2    4 ar  
     5    3   24 1   
     6    3   25 1   
     7    4    5 ar  
     8    4   26 1   
     9    5    6 ar  
    10    5   27 1   
    11    6    7 ar  
    12    6   11 ar  
    13    7    8 ar  
    14    7   28 1   
    15    8    9 ar  
    16    8   29 1   
    17    9   10 ar  
    18    9   12 1   
    19   10   11 ar  
    20   10   30 1   
    21   12   13 1   
    22   12   31 1   
    23   12   32 1   
    24   13   14 1   
    25   13   33 1   
    26   13   44 1   
    27   14   15 1   
    28   14   34 1   
    29   14   35 1   
    30   15   16 1   
    31   15   36 1   
    32   15   37 1   
    33   16   17 1   
    34   16   38 1   
    35   16   39 1   
    36   17   18 ar  
    37   17   23 ar  
    38   18   19 ar  
    39   18   40 1   
    40   19   20 ar  
    41   19   41 1   
    42   20   21 ar  
    43   20   42 1   
    44   21   22 1   
    45   21   23 ar  
    46   23   43 1   
@<TRIPOS>SUBSTRUCTURE
     1 ML6         1 TEMP              0 ****  ****    0 ROOT
