@<TRIPOS>MOLECULE
ML6
   45    47     1     0     0
SMALL
bcc


@<TRIPOS>ATOM
      1 N01         0.3280   -0.4450   -0.0110 nb        1 ML6     -0.623000
      2 C02         1.6420   -0.5600    0.1940 ca        1 ML6      0.487200
      3 N02         2.4800   -0.9440   -0.9680 n4        1 ML6     -0.827300
      4 C03         2.3020   -0.3440    1.4500 ca        1 ML6     -0.221300
      5 C04         1.5160    0.0030    2.5240 ca        1 ML6     -0.024000
      6 C05         0.1070    0.1320    2.3640 ca        1 ML6     -0.104300
      7 C06        -0.7480    0.4690    3.4460 ca        1 ML6     -0.075000
      8 C07        -2.1040    0.5620    3.2560 ca        1 ML6     -0.106000
      9 C08        -2.6710    0.3340    1.9730 ca        1 ML6     -0.141300
     10 C09        -1.8760    0.0150    0.8960 ca        1 ML6     -0.107300
     11 C10        -0.4550   -0.1020    1.0680 ca        1 ML6      0.404600
     12 C11        -4.1610    0.3590    1.8260 c3        1 ML6      0.156100
     13 N12        -4.7330    1.7310    1.9950 n4        1 ML6     -0.765000
     14 C13        -6.2320    1.7200    1.9560 c3        1 ML6      0.101800
     15 C14        -6.8200    3.1140    2.1250 c3        1 ML6     -0.111400
     16 C15        -8.3390    3.0230    2.1090 c3        1 ML6     -0.024100
     17 C21        -8.9440    4.3630    2.3430 ca        1 ML6     -0.091300
     18 C22        -9.6070    5.0300    1.3100 ca        1 ML6     -0.133000
     19 C23       -10.1940    6.2760    1.5420 ca        1 ML6     -0.091000
     20 C24       -10.1230    6.8700    2.7980 ca        1 ML6     -0.141000
     21 C25        -9.4550    6.1980    3.8400 ca        1 ML6      0.142900
     22 F25        -9.3760    6.7600    5.0680 f         1 ML6     -0.123900
     23 C26        -8.8680    4.9410    3.6130 ca        1 ML6     -0.174000
     24 HN02        2.9530   -1.8310   -0.7540 hn        1 ML6      0.481800
     25 HN0A        3.1820   -0.2100   -1.1260 hn        1 ML6      0.481800
     26 H03         3.3940   -0.4520    1.5540 ha        1 ML6      0.186000
     27 H04         1.9680    0.1810    3.5170 ha        1 ML6      0.194000
     28 H06        -0.3040    0.6410    4.4430 ha        1 ML6      0.182000
     29 H07        -2.7640    0.7910    4.1100 ha        1 ML6      0.158000
     30 H09        -2.3080   -0.1740   -0.1030 ha        1 ML6      0.176000
     31 H11        -4.6270   -0.3090    2.6110 hx        1 ML6      0.122200
     32 H11A       -4.4730   -0.0210    0.8090 hx        1 ML6      0.122200
     33 HN12       -4.4230    2.1230    2.8920 hn        1 ML6      0.452300
     34 H13        -6.5940    1.0430    2.7820 hx        1 ML6      0.110200
     35 H13A       -6.5480    1.2820    0.9650 hx        1 ML6      0.110200
     36 H14        -6.4910    3.5690    3.0980 hc        1 ML6      0.074200
     37 H14A       -6.4810    3.7900    1.2960 hc        1 ML6      0.074200
     38 H15        -8.6810    2.6090    1.1230 hc        1 ML6      0.064700
     39 H15A       -8.6830    2.3150    2.9110 hc        1 ML6      0.064700
     40 H22        -9.6820    4.5720    0.3120 ha        1 ML6      0.139000
     41 H23       -10.7230    6.7920    0.7250 ha        1 ML6      0.157000
     42 H24       -10.5870    7.8510    2.9900 ha        1 ML6      0.170000
     43 H26        -8.3710    4.4200    4.4440 ha        1 ML6      0.139000
     44 H023        1.9140   -1.0600   -1.8210 hn        1 ML6      0.481800
     45 H122       -4.3820    2.3460    1.2510 hn        1 ML6      0.452300
@<TRIPOS>BOND
     1    1    2 ar  
     2    1   11 ar  
     3    2    3 1   
     4    2    4 ar  
     5    3   24 1   
     6    3   25 1   
     7    3   44 1   
     8    4    5 ar  
     9    4   26 1   
    10    5    6 ar  
    11    5   27 1   
    12    6    7 ar  
    13    6   11 ar  
    14    7    8 ar  
    15    7   28 1   
    16    8    9 ar  
    17    8   29 1   
    18    9   10 ar  
    19    9   12 1   
    20   10   11 ar  
    21   10   30 1   
    22   12   13 1   
    23   12   31 1   
    24   12   32 1   
    25   13   14 1   
    26   13   33 1   
    27   13   45 1   
    28   14   15 1   
    29   14   34 1   
    30   14   35 1   
    31   15   16 1   
    32   15   36 1   
    33   15   37 1   
    34   16   17 1   
    35   16   38 1   
    36   16   39 1   
    37   17   18 ar  
    38   17   23 ar  
    39   18   19 ar  
    40   18   40 1   
    41   19   20 ar  
    42   19   41 1   
    43   20   21 ar  
    44   20   42 1   
    45   21   22 1   
    46   21   23 ar  
    47   23   43 1   
@<TRIPOS>SUBSTRUCTURE
     1 ML6         1 TEMP              0 ****  ****    0 ROOT
