@<TRIPOS>MOLECULE
ML8
   51    54     1     0     0
SMALL
bcc


@<TRIPOS>ATOM
      1 C24        -4.5300   -0.7230    1.3740 ca        1 ML8     -0.137000
      2 C25        -3.1420   -0.7360    1.2580 ca        1 ML8     -0.091000
      3 C23        -5.2960    0.1620    0.6170 ca        1 ML8     -0.095000
      4 C21        -3.2740    1.0380   -0.3820 ca        1 ML8     -0.123000
      5 C14        -2.5010    0.1520    0.3820 ca        1 ML8     -0.041800
      6 C1          1.0460    1.3970    0.0540 ca        1 ML8     -0.418400
      7 C22        -4.6670    1.0430   -0.2680 ca        1 ML8     -0.095300
      8 C6          1.7940    2.6100    0.0030 ca        1 ML8      0.535600
      9 C2          1.7820    0.1630   -0.0290 ca        1 ML8      0.629200
     10 C4          3.7680    1.3990   -0.2400 ca        1 ML8      0.921900
     11 C9         -0.3730    1.3650    0.1860 cc        1 ML8     -0.004200
     12 C10        -1.0450    0.1880    0.2680 cd        1 ML8     -0.143400
     13 C11        -0.3070   -1.0910    0.2400 c         1 ML8      0.709700
     14 C16         2.0410   -4.6280    0.6760 c3        1 ML8     -0.074400
     15 C17         1.7700   -4.6420   -0.8240 c3        1 ML8     -0.074400
     16 C15         1.7980   -3.2120    1.1770 c3        1 ML8     -0.091400
     17 C18         1.3660   -3.2330   -1.2350 c3        1 ML8     -0.091400
     18 C8          1.8330   -2.3180   -0.0820 c3        1 ML8      0.097700
     19 C19         5.9430    2.5580   -0.2940 c3        1 ML8      0.200100
     20 C26        -5.4500    1.9840   -1.1240 c3        1 ML8      0.178700
     21 N5          3.1250    2.6370   -0.1360 nb        1 ML8     -0.767000
     22 N3          3.1470    0.1710   -0.1660 nb        1 ML8     -0.819000
     23 N7          1.0990   -1.0580    0.0380 n         1 ML8     -0.418300
     24 N20         5.1430    1.3860   -0.4880 nh        1 ML8     -0.837900
     25 O12        -0.8640   -2.1960    0.3820 o         1 ML8     -0.617500
     26 O27        -6.7760    2.0850   -0.6240 oh        1 ML8     -0.597800
     27 H24        -5.0250   -1.4200    2.0660 ha        1 ML8      0.135000
     28 H25        -2.5440   -1.4540    1.8410 ha        1 ML8      0.153000
     29 H23        -6.3930    0.1760    0.7100 ha        1 ML8      0.152000
     30 H21        -2.7810    1.7280   -1.0830 ha        1 ML8      0.126000
     31 H9         -0.9190    2.3230    0.2230 ha        1 ML8      0.144000
     32 H16         1.3700   -5.3480    1.2070 hc        1 ML8      0.041950
     33 H16A        3.0960   -4.9390    0.8820 hc        1 ML8      0.041950
     34 H17         2.6850   -4.9640   -1.3810 hc        1 ML8      0.041950
     35 H17A        0.9550   -5.3670   -1.0730 hc        1 ML8      0.041950
     36 H15         0.8050   -3.1500    1.6900 hc        1 ML8      0.057450
     37 H15A        2.5840   -2.8920    1.9030 hc        1 ML8      0.057450
     38 H18         1.8530   -2.9290   -2.1930 hc        1 ML8      0.057450
     39 H18A        0.2570   -3.1780   -1.3780 hc        1 ML8      0.057450
     40 H8          2.9200   -2.0830   -0.2830 h1        1 ML8      0.089700
     41 H13         0.4960    3.9360    1.0790 hc        1 ML8      0.063367
     42 H13A        1.7530    4.7910    0.0860 hc        1 ML8      0.063367
     43 H13B        0.3400    4.0020   -0.7350 hc        1 ML8      0.063367
     44 H19         5.9170    2.9190    0.7700 h1        1 ML8      0.047367
     45 H19A        7.0020    2.3080   -0.5690 h1        1 ML8      0.047367
     46 H26        -4.9700    3.0010   -1.1220 h1        1 ML8      0.029200
     47 H26A       -5.4720    1.5980   -2.1820 h1        1 ML8      0.029200
     48 HO27       -7.2490    2.6630   -1.2330 ho        1 ML8      0.402000
     49 H231        5.5800    3.3870   -0.9590 h1        1 ML8      0.047367
     50 H241        5.6010    0.5080   -0.3650 hn        1 ML8      0.439800
     51 C13         1.0620    3.9120    0.1150 c3        1 ML8     -0.163400
@<TRIPOS>BOND
     1    1    2 ar  
     2    1    3 ar  
     3    1   27 1   
     4    2    5 ar  
     5    2   28 1   
     6    3    7 ar  
     7    3   29 1   
     8    4    5 ar  
     9    4    7 ar  
    10    4   30 1   
    11    5   12 1   
    12    6    8 ar  
    13    6    9 ar  
    14    6   11 1   
    15    7   20 1   
    16    8   21 ar  
    17    8   51 1   
    18    9   22 ar  
    19    9   23 1   
    20   10   21 ar  
    21   10   22 ar  
    22   10   24 1   
    23   11   12 2   
    24   11   31 1   
    25   12   13 1   
    26   13   23 1   
    27   13   25 2   
    28   14   15 1   
    29   14   16 1   
    30   14   32 1   
    31   14   33 1   
    32   15   17 1   
    33   15   34 1   
    34   15   35 1   
    35   16   18 1   
    36   16   36 1   
    37   16   37 1   
    38   17   18 1   
    39   17   38 1   
    40   17   39 1   
    41   18   23 1   
    42   18   40 1   
    43   19   24 1   
    44   19   44 1   
    45   19   45 1   
    46   19   49 1   
    47   20   26 1   
    48   20   46 1   
    49   20   47 1   
    50   24   50 1   
    51   26   48 1   
    52   41   51 1   
    53   42   51 1   
    54   43   51 1   
@<TRIPOS>SUBSTRUCTURE
     1 ML8         1 TEMP              0 ****  ****    0 ROOT
