@<TRIPOS>MOLECULE
ML8
   52    49     1     0     0
SMALL
bcc


@<TRIPOS>ATOM
      1 C24         0.0010    0.9930    1.8650 c2        1 ML8     -0.217000
      2 C25         1.1340    1.0790    1.1300 c2        1 ML8     -0.062000
      3 C23        -0.3580   -0.2290    2.5240 c2        1 ML8      0.096000
      4 C21         1.6990   -1.2930    1.7640 c1        1 ML8     -0.098000
      5 C14         1.9980   -0.1160    0.9270 c3        1 ML8     -0.108000
      6 C1          5.7240   -0.1950    1.7080 c2        1 ML8     -0.203000
      7 C22         0.4780   -1.3270    2.4770 c2        1 ML8     -0.287000
      8 C6          6.6670   -0.8970    2.5030 c2        1 ML8      0.084000
      9 C2          6.2170    0.8380    0.8280 c2        1 ML8      0.189000
     10 C4          8.3570    0.3870    1.5950 c2        1 ML8      0.014000
     11 C9          4.3180   -0.4770    1.7400 c2        1 ML8     -0.032000
     12 C10         3.4600    0.1930    0.9370 c2        1 ML8     -0.103000
     13 C11         3.9470    1.2130   -0.0130 c2        1 ML8      0.333000
     14 C16         6.0390    3.9490   -2.8480 c3        1 ML8     -0.201000
     15 C17         8.2960    5.1770   -0.1700 c1        1 ML8     -0.220500
     16 C15         5.5040    2.8060   -2.0840 c2        1 ML8     -0.110000
     17 C18         7.8950    6.1610    0.3780 c1        1 ML8     -0.220500
     18 C8          5.8280    2.6050   -0.7940 c2        1 ML8     -0.099000
     19 C19         9.6870   -2.0130    3.8820 c1        1 ML8      0.315000
     20 C26         0.0050   -2.5320    3.1670 c1        1 ML8      0.021000
     21 N5          7.9910   -0.6180    2.4480 n2        1 ML8     -0.350000
     22 N3          7.5760    1.1220    0.7940 n2        1 ML8     -0.182000
     23 N7          5.3340    1.5440    0.0180 n         1 ML8     -0.181000
     24 O12         3.2130    1.7880   -0.8320 o         1 ML8     -0.312000
     25 O27         0.9570   -3.3580    3.5640 oh        1 ML8     -0.215000
     26 H24        -0.6730    1.8590    1.9770 ha        1 ML8      0.155000
     27 H25         1.4270    2.0100    0.6150 ha        1 ML8      0.165000
     28 H23        -1.3040   -0.2620    3.0930 ha        1 ML8      0.160000
     29 H21         1.7420   -0.4950   -0.1290 hc        1 ML8      0.199000
     30 H9          3.9410   -1.2710    2.4150 ha        1 ML8      0.191000
     31 H16         3.5220    5.9250   -4.1230 ha        1 ML8      0.001167
     32 H16A        4.8010    2.1510   -2.6270 ha        1 ML8      0.149000
     33 H17         8.6640    4.3090   -0.6570 ha        1 ML8      0.221500
     34 H17A        6.7770    4.5460   -2.2560 hc        1 ML8      0.096667
     35 H15         6.5420    3.5800   -3.7780 hc        1 ML8      0.096667
     36 H15A        5.1980    4.6260   -3.1520 hc        1 ML8      0.096667
     37 H18         6.5240    3.2830   -0.2570 h4        1 ML8      0.166000
     38 H18A        3.6410    6.3030   -3.5740 ha        1 ML8      0.001167
     39 H8          7.5380    7.0380    0.8590 ha        1 ML8      0.221500
     40 H13         7.0030   -2.4420    4.0070 hc        1 ML8      0.104667
     41 H13A        5.6600   -2.7670    2.8260 hc        1 ML8      0.104667
     42 H13B        5.4380   -1.5350    4.1420 hc        1 ML8      0.104667
     43 H19         8.4090   -3.3000    5.6080 ha        1 ML8      0.001167
     44 H19A        9.3000   -1.3950    4.6920 ha        1 ML8      0.361000
     45 H26        -1.2330   -5.2980    3.2930 ha        1 ML8      0.001167
     46 H26A       -1.4010   -4.6730    3.0900 ha        1 ML8      0.001167
     47 HO27        0.5040   -4.1180    3.9790 ho        1 ML8      0.252000
     48 H231        8.0360   -3.6400    6.0610 ha        1 ML8      0.001167
     49 H241        9.4400    0.6350    1.5550 h5        1 ML8      0.185000
     50 C13         6.1760   -1.9700    3.4210 c3        1 ML8     -0.193000
     51 H202       10.4270   -3.2080    2.2660 hn        1 ML8      0.396000
     52 N20        10.0980   -2.6630    3.0210 n2        1 ML8     -0.089000
@<TRIPOS>BOND
     1    1    2 1   
     2    1    3 1   
     3    1   26 1   
     4    2    5 1   
     5    2   27 1   
     6    3    7 1   
     7    3   28 1   
     8    4    5 1   
     9    4    7 1   
    10    5   12 1   
    11    5   29 1   
    12    6    8 1   
    13    6    9 1   
    14    6   11 1   
    15    7   20 1   
    16    8   21 1   
    17    8   50 1   
    18    9   22 1   
    19    9   23 1   
    20   10   21 1   
    21   10   22 1   
    22   10   49 1   
    23   11   12 1   
    24   11   30 1   
    25   12   13 1   
    26   13   23 1   
    27   13   24 1   
    28   14   16 1   
    29   14   34 1   
    30   14   35 1   
    31   14   36 1   
    32   15   17 1   
    33   15   33 1   
    34   16   18 1   
    35   16   32 1   
    36   17   39 1   
    37   18   23 1   
    38   18   37 1   
    39   19   44 1   
    40   19   52 1   
    41   20   25 1   
    42   25   47 1   
    43   31   38 1   
    44   40   50 1   
    45   41   50 1   
    46   42   50 1   
    47   43   48 1   
    48   45   46 1   
    49   51   52 1   
@<TRIPOS>SUBSTRUCTURE
     1 ML8         1 TEMP              0 ****  ****    0 ROOT
