@<TRIPOS>MOLECULE
ML8
   51    52     1     0     0
SMALL
bcc


@<TRIPOS>ATOM
      1 C24         1.4860    0.7960    1.2590 cx        1 ML8     -0.167000
      2 C25         2.0160   -0.1650    2.3110 cx        1 ML8     -0.051000
      3 C23         0.7750    0.6010    2.5240 cu        1 ML8     -0.189000
      4 C21         3.2160    0.6520    4.2860 c1        1 ML8      0.250000
      5 C14         3.2520    0.1620    3.0510 c2        1 ML8     -0.341000
      6 C1          6.4250   -1.4960    1.8310 c2        1 ML8     -0.273000
      7 C22        -0.2350    0.8890    3.3130 c2        1 ML8     -0.131000
      8 C6          7.1370   -2.6850    1.9580 c2        1 ML8      0.163000
      9 C2          6.9750   -0.4600    0.9410 c2        1 ML8      0.224000
     10 C4          8.8310   -1.8420    0.3850 c2        1 ML8      0.180000
     11 C9          5.1930   -1.2550    2.5200 c2        1 ML8     -0.011000
     12 C10         4.5190   -0.0950    2.3630 c2        1 ML8     -0.107000
     13 C11         5.0300    0.9690    1.4680 c2        1 ML8      0.357000
     14 C16         6.7930    3.6110   -1.6510 c3        1 ML8     -0.182000
     15 C17         1.8350    5.3600   -0.1290 c2        1 ML8     -0.227000
     16 C15         6.1380    2.5520   -0.8580 c2        1 ML8     -0.154000
     17 C18         1.9100    4.3910    0.7730 c2        1 ML8     -0.227000
     18 C8          6.8270    1.7840    0.0050 c2        1 ML8     -0.053000
     19 C19        10.7340   -3.1660   -0.2210 c3        1 ML8     -0.136000
     20 C26        -1.3330    1.8370    2.9760 c3        1 ML8      0.009000
     21 N5          8.3000   -2.8690    1.2700 na        1 ML8     -0.301000
     22 N3          8.1030   -0.6320    0.2540 n2        1 ML8     -0.208000
     23 N7          6.2710    0.7570    0.8170 n         1 ML8     -0.220000
     24 N20         9.9450   -1.9840   -0.2920 n2        1 ML8     -0.224000
     25 O12         4.4230    2.0370    1.2780 o         1 ML8     -0.326000
     26 O27        -1.0160    2.7950    1.9850 oh        1 ML8     -0.323000
     27 H24         1.9340   -1.2560    2.1140 hc        1 ML8      0.128000
     28 H25         1.0660    0.3780    0.3260 hc        1 ML8      0.136500
     29 H23         2.0320    1.7490    1.0860 hc        1 ML8      0.136500
     30 H21        -0.3300    0.4130    4.3040 ha        1 ML8      0.137000
     31 H9          4.8030   -2.0420    3.1870 ha        1 ML8      0.141000
     32 H16         6.3650    4.6090   -1.3780 hc        1 ML8      0.084333
     33 H16A        6.6050    3.4370   -2.7400 hc        1 ML8      0.084333
     34 H17         0.9020    5.8980   -0.3470 ha        1 ML8      0.114000
     35 H17A        2.7010    5.6910   -0.7170 ha        1 ML8      0.114000
     36 H15         7.8970    3.6420   -1.4850 hc        1 ML8      0.084333
     37 H15A        5.0490    2.4560   -0.9950 ha        1 ML8      0.142000
     38 H18         7.9220    1.9010    0.1340 h4        1 ML8      0.162000
     39 H18A        2.8460    3.8550    0.9950 ha        1 ML8      0.114000
     40 H8          1.0410    4.0640    1.3640 ha        1 ML8      0.114000
     41 H13         6.5510   -3.3910    3.8970 hc        1 ML8      0.110000
     42 H13A        7.3080   -4.6720    2.8610 hc        1 ML8      0.110000
     43 H13B        5.6240   -4.1050    2.5030 hc        1 ML8      0.110000
     44 H19        10.1900   -4.0840   -0.5780 h1        1 ML8      0.076000
     45 H19A       11.6120   -2.9940   -0.9020 h1        1 ML8      0.076000
     46 H26        -1.6040    2.4530    3.8790 h1        1 ML8      0.093500
     47 H26A       -2.2360    1.2480    2.6490 h1        1 ML8      0.093500
     48 HO27       -0.5690    2.3360    1.2620 ho        1 ML8      0.205000
     49 H231        8.7970   -3.7250    1.3740 hn        1 ML8      0.244000
     50 H241       11.1290   -3.3740    0.8110 h1        1 ML8      0.076000
     51 C13         6.6360   -3.7780    2.8500 c3        1 ML8     -0.215000
@<TRIPOS>BOND
     1    1    2 1   
     2    1    3 1   
     3    1   28 1   
     4    1   29 1   
     5    2    3 1   
     6    2    5 1   
     7    2   27 1   
     8    3    7 1   
     9    4    5 1   
    10    5   12 1   
    11    6    8 1   
    12    6    9 1   
    13    6   11 1   
    14    7   20 1   
    15    7   30 1   
    16    8   21 1   
    17    8   51 1   
    18    9   22 1   
    19    9   23 1   
    20   10   21 1   
    21   10   22 1   
    22   10   24 1   
    23   11   12 1   
    24   11   31 1   
    25   12   13 1   
    26   13   23 1   
    27   13   25 1   
    28   14   16 1   
    29   14   32 1   
    30   14   33 1   
    31   14   36 1   
    32   15   17 1   
    33   15   34 1   
    34   15   35 1   
    35   16   18 1   
    36   16   37 1   
    37   17   39 1   
    38   17   40 1   
    39   18   23 1   
    40   18   38 1   
    41   19   24 1   
    42   19   44 1   
    43   19   45 1   
    44   19   50 1   
    45   20   26 1   
    46   20   46 1   
    47   20   47 1   
    48   21   49 1   
    49   26   48 1   
    50   41   51 1   
    51   42   51 1   
    52   43   51 1   
@<TRIPOS>SUBSTRUCTURE
     1 ML8         1 TEMP              0 ****  ****    0 ROOT
