@<TRIPOS>MOLECULE
ML8
   51    51     1     0     0
SMALL
bcc


@<TRIPOS>ATOM
      1 C24         0.9380   -0.6630    1.6910 cx        1 ML8     -0.170000
      2 C25         2.0340   -0.1440    2.6110 cx        1 ML8     -0.052000
      3 C23         0.6280    0.2590    2.7850 cu        1 ML8     -0.189000
      4 C21         2.8900    2.1270    2.2430 c1        1 ML8      0.263000
      5 C14         3.0440    0.8020    2.1060 c2        1 ML8     -0.354000
      6 C1          5.7730   -1.4410    0.7090 c2        1 ML8     -0.215000
      7 C22        -0.2550    0.9390    3.4810 c2        1 ML8     -0.123000
      8 C6          6.1710   -2.8080    0.6160 c2        1 ML8      0.076000
      9 C2          6.6770   -0.4620    0.1820 c2        1 ML8      0.192000
     10 C4          8.1430   -2.1750   -0.4340 c2        1 ML8      0.108000
     11 C9          4.5380   -1.0460    1.3210 c2        1 ML8     -0.030000
     12 C10         4.2410    0.2630    1.4780 c2        1 ML8     -0.088000
     13 C11         5.1820    1.3020    0.9970 c2        1 ML8      0.282000
     14 C16         7.6200    3.9480    0.5650 c3        1 ML8     -0.194000
     15 C17         4.2040    5.2140   -0.3810 c1        1 ML8     -0.076000
     16 C15         6.9130    3.2440   -0.5720 c3        1 ML8     -0.234000
     17 C18         2.9930    5.0440    0.3740 c3        1 ML8     -0.312000
     18 C8          7.1060    1.7830   -0.4820 c1        1 ML8      0.027000
     19 C19        10.4670   -2.0870   -0.8820 c2        1 ML8     -0.053000
     20 C26        -1.7180    0.9730    3.2100 c3        1 ML8      0.006000
     21 N5          7.3330   -3.1860    0.0590 n2        1 ML8     -0.158000
     22 N3          7.8720   -0.8300   -0.3690 n2        1 ML8     -0.169000
     23 N7          6.3390    0.9350    0.2370 n         1 ML8     -0.146000
     24 N20         9.3220   -2.5900   -1.1430 n2        1 ML8     -0.111000
     25 O12         4.9380    2.5040    1.2440 o         1 ML8     -0.319000
     26 O27        -2.1860   -0.0200    2.3190 oh        1 ML8     -0.321000
     27 H24         2.4640   -0.8490    3.3560 hc        1 ML8      0.132000
     28 H25         0.6340   -1.7230    1.7730 hc        1 ML8      0.124000
     29 H23         0.8950   -0.2970    0.6480 hc        1 ML8      0.124000
     30 H21         0.0640    1.5650    4.3340 ha        1 ML8      0.141000
     31 H9          3.8440   -1.8310    1.6660 ha        1 ML8      0.156000
     32 H16         5.8300    3.5690   -0.6010 hc        1 ML8      0.127500
     33 H16A        7.5660    5.0520    0.4070 hc        1 ML8      0.081000
     34 H17         8.6940    3.6470    0.6140 hc        1 ML8      0.081000
     35 H17A        4.9100    5.9750   -0.0120 ha        1 ML8      0.031000
     36 H15         7.1290    3.7050    1.5380 hc        1 ML8      0.081000
     37 H15A        7.3780    3.5520   -1.5510 hc        1 ML8      0.127500
     38 H18         2.6970    5.8800    1.0570 hc        1 ML8      0.118333
     39 H18A        3.1730    4.1190    1.0110 hc        1 ML8      0.118333
     40 H8          2.1330    4.8100   -0.3050 hc        1 ML8      0.118333
     41 H13         5.0900   -3.6820    2.2510 hc        1 ML8      0.106000
     42 H13A        5.6940   -4.8920    1.0410 hc        1 ML8      0.106000
     43 H13B        4.2850   -3.8280    0.6220 hc        1 ML8      0.106000
     44 H19        10.8280   -5.0840    4.8430 ha        1 ML8      0.000000
     45 H19A       11.3150   -2.4450   -1.4990 h4        1 ML8      0.134000
     46 H26        -1.9900    1.9920    2.8130 h1        1 ML8      0.097500
     47 H26A       -2.2910    0.7850    4.1610 h1        1 ML8      0.097500
     48 HO27       -1.6020   -0.0200    1.5500 ho        1 ML8      0.202000
     49 H231       10.8810   -4.4690    5.1220 ha        1 ML8      0.000000
     50 H241       10.7110   -1.3350   -0.1080 h4        1 ML8      0.134000
     51 C13         5.2630   -3.8670    1.1620 c3        1 ML8     -0.187000
@<TRIPOS>BOND
     1    1    2 1   
     2    1    3 1   
     3    1   28 1   
     4    1   29 1   
     5    2    3 1   
     6    2    5 1   
     7    2   27 1   
     8    3    7 1   
     9    4    5 1   
    10    5   12 1   
    11    6    8 1   
    12    6    9 1   
    13    6   11 1   
    14    7   20 1   
    15    7   30 1   
    16    8   21 1   
    17    8   51 1   
    18    9   22 1   
    19    9   23 1   
    20   10   21 1   
    21   10   22 1   
    22   10   24 1   
    23   11   12 1   
    24   11   31 1   
    25   12   13 1   
    26   13   23 1   
    27   13   25 1   
    28   14   16 1   
    29   14   33 1   
    30   14   34 1   
    31   14   36 1   
    32   15   17 1   
    33   15   35 1   
    34   16   18 1   
    35   16   32 1   
    36   16   37 1   
    37   17   38 1   
    38   17   39 1   
    39   17   40 1   
    40   18   23 1   
    41   19   24 1   
    42   19   45 1   
    43   19   50 1   
    44   20   26 1   
    45   20   46 1   
    46   20   47 1   
    47   26   48 1   
    48   41   51 1   
    49   42   51 1   
    50   43   51 1   
    51   44   49 1   
@<TRIPOS>SUBSTRUCTURE
     1 ML8         1 TEMP              0 ****  ****    0 ROOT
