@<TRIPOS>MOLECULE
ML9
   58    55     1     0     0
SMALL
bcc


@<TRIPOS>ATOM
      1 C14         0.8410   -4.7100   -0.1950 c1        1 ML9     -0.036000
      2 C15         1.1630   -6.0030   -0.5160 c1        1 ML9     -0.198000
      3 C18         1.9140   -3.9610   -2.1980 c1        1 ML9     -0.032000
      4 C13         1.2120   -3.6860   -1.0290 c1        1 ML9     -0.112000
      5 C5         -0.9620   -0.4380   -1.7700 c1        1 ML9     -0.285000
      6 C6         -1.8090    0.0330   -2.7580 c1        1 ML9      0.117000
      7 C4         -0.5490    0.4130   -0.7440 c1        1 ML9      0.224000
      8 C16         1.8650   -6.2750   -1.6880 c1        1 ML9      0.127000
      9 C2         -1.8250    2.1650   -1.7070 c1        1 ML9      0.212000
     10 C10        -0.4170   -1.8520   -1.8490 c2        1 ML9     -0.010000
     11 C9          0.5750   -2.3000   -0.8860 c2        1 ML9     -0.133000
     12 C8          1.0070   -1.4000    0.1940 c2        1 ML9      0.351000
     13 C23        -0.3960    0.8860    2.3320 c3        1 ML9     -0.161000
     14 C27         1.2570    2.1370    0.8800 c3        1 ML9     -0.161000
     15 C24        -0.1830    1.9000    3.4500 c3        1 ML9     -0.165000
     16 C26         1.4700    3.1510    1.9990 c3        1 ML9     -0.165000
     17 C22         0.8090    0.7830    1.4020 c3        1 ML9      0.022000
     18 C25         0.2650    3.2550    2.9290 c3        1 ML9      0.026000
     19 C21        -2.4640   -0.7530   -3.9110 c2        1 ML9     -0.189000
     20 C20         2.5260   -8.3990   -2.5280 c3        1 ML9     -0.064000
     21 C30        -1.2340    6.2150    2.6200 c3        1 ML9     -0.052000
     22 C29        -1.5880    4.7740    3.0130 c3        1 ML9     -0.024000
     23 N17         2.2340   -5.2540   -2.5170 n1        1 ML9     -0.206000
     24 N1         -2.2360    1.3200   -2.7280 n2        1 ML9     -0.249000
     25 N3         -0.9800    1.6990   -0.7190 n2        1 ML9     -0.286000
     26 N7          0.4640   -0.0630    0.2790 n         1 ML9     -0.235000
     27 N12        -2.1720    3.1460   -2.7030 n2        1 ML9     -0.342000
     28 O11         1.8850   -1.7520    0.9660 o         1 ML9     -0.355000
     29 O31        -1.5690    7.0920    3.6840 oh        1 ML9     -0.329000
     30 O19         1.9510   -7.1350   -2.8130 os        1 ML9     -0.205000
     31 O28        -0.8110    3.8550    2.2230 os        1 ML9     -0.273000
     32 H14         0.3430   -4.5170    0.6340 ha        1 ML9      0.165000
     33 H15         0.8990   -6.7350    0.0780 ha        1 ML9      0.160000
     34 H18         2.1800   -3.2270   -2.7960 ha        1 ML9      0.156000
     35 H10        -0.7800   -2.4800   -2.5060 ha        1 ML9      0.143000
     36 H23        -1.1860    1.1550    1.8030 hc        1 ML9      0.101500
     37 H23A       -0.5670    0.0020    2.7320 hc        1 ML9      0.101500
     38 H27         0.5770    2.4810    0.2670 hc        1 ML9      0.101500
     39 H27A        2.1040    2.0240    0.3870 hc        1 ML9      0.101500
     40 H24        -1.0300    2.0130    3.9440 hc        1 ML9      0.089500
     41 H24A        0.5030    1.5530    4.0680 hc        1 ML9      0.089500
     42 H26         1.6400    4.0330    1.5990 hc        1 ML9      0.089500
     43 H26A        2.2580    2.8820    2.5260 hc        1 ML9      0.089500
     44 H22         1.5600    0.3670    1.8970 h1        1 ML9      0.132000
     45 H25         0.5030    3.8260    3.6930 h1        1 ML9      0.076000
     46 H21        -3.4390   -0.7860   -3.7750 ha        1 ML9      0.103333
     47 H21A       -2.2680   -0.3080   -4.7640 ha        1 ML9      0.103333
     48 H21B       -2.1050   -1.6680   -3.9290 ha        1 ML9      0.103333
     49 H20         3.4900   -8.2920   -2.3630 h1        1 ML9      0.088333
     50 H20A        2.3890   -9.0030   -3.2950 h1        1 ML9      0.088333
     51 H20B        2.0980   -8.7810   -1.7310 h1        1 ML9      0.088333
     52 H30        -0.2690    6.2770    2.4350 h1        1 ML9      0.068000
     53 H30A       -1.7390    6.4680    1.8140 h1        1 ML9      0.068000
     54 H29        -1.3890    4.6360    3.9670 h1        1 ML9      0.098000
     55 H29A       -2.5450    4.6160    2.8530 h1        1 ML9      0.098000
     56 HN12       -2.1450    2.9240   -3.5930 hn        1 ML9      0.242000
     57 HN1A       -2.4130    3.9940   -2.4480 hn        1 ML9      0.242000
     58 HO31       -0.9130    7.7000    3.7900 ho        1 ML9      0.202000
@<TRIPOS>BOND
     1    1    4 1   
     2    1   32 1   
     3    2    8 1   
     4    2   33 1   
     5    3   23 1   
     6    3   34 1   
     7    4   11 1   
     8    5    6 1   
     9    5   10 1   
    10    6   24 1   
    11    7   25 1   
    12    7   26 1   
    13    8   30 1   
    14    9   24 1   
    15    9   25 1   
    16   10   11 1   
    17   10   35 1   
    18   11   12 1   
    19   12   26 1   
    20   12   28 1   
    21   13   15 1   
    22   13   17 1   
    23   13   36 1   
    24   13   37 1   
    25   14   16 1   
    26   14   17 1   
    27   14   38 1   
    28   14   39 1   
    29   15   18 1   
    30   15   40 1   
    31   15   41 1   
    32   16   18 1   
    33   16   42 1   
    34   16   43 1   
    35   17   26 1   
    36   17   44 1   
    37   18   31 1   
    38   18   45 1   
    39   19   46 1   
    40   19   47 1   
    41   19   48 1   
    42   20   30 1   
    43   20   49 1   
    44   20   50 1   
    45   20   51 1   
    46   21   22 1   
    47   21   29 1   
    48   21   52 1   
    49   21   53 1   
    50   22   31 1   
    51   22   54 1   
    52   22   55 1   
    53   27   56 1   
    54   27   57 1   
    55   29   58 1   
@<TRIPOS>SUBSTRUCTURE
     1 ML9         1 TEMP              0 ****  ****    0 ROOT
