@<TRIPOS>MOLECULE
ML9
   58    55     1     0     0
SMALL
bcc


@<TRIPOS>ATOM
      1 C14         0.2710    1.4310    0.2860 c2        1 ML9     -0.090000
      2 C15         1.6140    1.8400   -0.0190 c2        1 ML9     -0.221000
      3 C18         2.8550    0.1400    2.8250 c1        1 ML9      0.154000
      4 C13        -0.1010    0.2420    0.7950 c2        1 ML9     -0.133000
      5 C5         -3.8410    0.3110    1.4280 c2        1 ML9     -0.267000
      6 C6         -4.9520    1.2060    1.4530 c2        1 ML9      0.112000
      7 C4         -4.1220   -1.0770    1.6540 c2        1 ML9      0.211000
      8 C16         2.7500    1.5370    0.6730 c2        1 ML9      0.225000
      9 C2         -6.4020   -0.5860    1.7950 c2        1 ML9      0.208000
     10 C10        -2.5040    0.7480    1.1700 c2        1 ML9     -0.014000
     11 C9         -1.4720   -0.1290    1.0810 c2        1 ML9     -0.132000
     12 C8         -1.7150   -1.5670    1.3020 c2        1 ML9      0.299000
     13 C23        -5.6970   -5.3300    0.7750 c2        1 ML9     -0.231000
     14 C27        -6.2570   -2.7540    6.3390 c2        1 ML9     -0.125000
     15 C24        -5.7460   -6.5210    1.3570 c2        1 ML9     -0.231000
     16 C26        -5.7860   -3.5720    5.4510 c1        1 ML9     -0.308000
     17 C22        -3.2630   -3.2600    2.1320 c1        1 ML9     -0.060000
     18 C25        -5.2910   -4.3410    4.5150 c2        1 ML9      0.033000
     19 C20         6.2600    1.1230    1.3750 c1        1 ML9     -0.035000
     20 C30        -7.4090   -6.4900    5.3480 c3        1 ML9     -0.046000
     21 N17         2.8150    0.7800    1.8290 n2        1 ML9     -0.331000
     22 N1         -6.2120    0.7900    1.6380 n2        1 ML9     -0.241000
     23 N3         -5.3890   -1.5370    1.8230 n2        1 ML9     -0.223000
     24 N7         -3.0380   -2.0180    1.7020 n         1 ML9     -0.166000
     25 N12        -7.6970   -1.0450    1.9080 nh        1 ML9     -0.343000
     26 O11        -0.8410   -2.4390    1.1950 o         1 ML9     -0.296000
     27 O31        -7.6750   -7.2750    4.2050 oh        1 ML9     -0.331000
     28 O19         3.9230    2.0740    0.1980 oh        1 ML9     -0.314000
     29 O28        -5.2620   -5.7190    4.5280 os        1 ML9     -0.221000
     30 H14        -0.4920    2.1860    0.0190 ha        1 ML9      0.118000
     31 H15         1.7320    2.4940   -0.9010 ha        1 ML9      0.158000
     32 H18         0.6400   -0.5520    1.0010 ha        1 ML9      0.153000
     33 H10        -2.3320    1.8290    1.0320 ha        1 ML9      0.147000
     34 H23        -6.1540   -5.1290   -0.2030 ha        1 ML9      0.115750
     35 H23A       -5.1910   -4.4660    1.2390 ha        1 ML9      0.115750
     36 H27        -2.3740   -3.9300    2.1240 ha        1 ML9      0.080000
     37 H27A       -5.6490   -2.3760    7.1750 ha        1 ML9      0.113500
     38 H24        -6.2440   -7.3890    0.9050 ha        1 ML9      0.115750
     39 H24A       -5.2820   -6.7120    2.3370 ha        1 ML9      0.115750
     40 H26        -7.8650   -4.2000    1.3760 ha        1 ML9      0.001000
     41 H26A       -4.8050   -3.9800    3.5760 h4        1 ML9      0.229000
     42 H22        -7.2940   -2.3870    6.3150 ha        1 ML9      0.113500
     43 H25        -8.4970   -3.9860    1.5000 ha        1 ML9      0.001000
     44 H21        -5.6460    3.2710    1.3340 hc        1 ML9      0.105000
     45 H21A       -3.9980    3.0300    2.0540 hc        1 ML9      0.105000
     46 H21B       -4.2490    2.8420    0.2580 hc        1 ML9      0.105000
     47 H20         4.7240    1.7060    0.6770 ho        1 ML9      0.285000
     48 H20A        6.7620    0.2070    1.0360 ha        1 ML9      0.047000
     49 H20B        6.8380    1.6880    2.1170 ha        1 ML9      0.047000
     50 H30        -5.7280   -5.8280    6.5800 h1        1 ML9      0.105500
     51 H30A       -5.4330   -7.3860    5.6410 h1        1 ML9      0.105500
     52 H29        -7.9150   -7.0260    6.1940 h1        1 ML9      0.089500
     53 H29A       -7.8560   -5.4670    5.2230 h1        1 ML9      0.089500
     54 HN12       -7.8610   -2.0070    2.0940 hn        1 ML9      0.251500
     55 HN1A       -8.4380   -0.3950    1.9920 hn        1 ML9      0.251500
     56 HO31       -7.1440   -6.9130    3.4800 ho        1 ML9      0.214000
     57 C21        -4.7050    2.6710    1.2660 c3        1 ML9     -0.189000
     58 C29        -5.9140   -6.3700    5.6190 c3        1 ML9     -0.073000
@<TRIPOS>BOND
     1    1    2 1   
     2    1    4 1   
     3    1   30 1   
     4    2    8 1   
     5    2   31 1   
     6    3   21 1   
     7    4   11 1   
     8    4   32 1   
     9    5    6 1   
    10    5    7 1   
    11    5   10 1   
    12    6   22 1   
    13    6   57 1   
    14    7   23 1   
    15    7   24 1   
    16    8   21 1   
    17    8   28 1   
    18    9   22 1   
    19    9   23 1   
    20    9   25 1   
    21   10   11 1   
    22   10   33 1   
    23   11   12 1   
    24   12   24 1   
    25   12   26 1   
    26   13   15 1   
    27   13   34 1   
    28   13   35 1   
    29   14   16 1   
    30   14   37 1   
    31   14   42 1   
    32   15   38 1   
    33   15   39 1   
    34   16   18 1   
    35   17   24 1   
    36   17   36 1   
    37   18   29 1   
    38   18   41 1   
    39   19   48 1   
    40   19   49 1   
    41   20   27 1   
    42   20   52 1   
    43   20   53 1   
    44   20   58 1   
    45   25   54 1   
    46   25   55 1   
    47   27   56 1   
    48   28   47 1   
    49   29   58 1   
    50   40   43 1   
    51   44   57 1   
    52   45   57 1   
    53   46   57 1   
    54   50   58 1   
    55   51   58 1   
@<TRIPOS>SUBSTRUCTURE
     1 ML9         1 TEMP              0 ****  ****    0 ROOT
