@<TRIPOS>MOLECULE
ML9
   58    61     1     0     0
SMALL
bcc


@<TRIPOS>ATOM
      1 C14         4.2760   -0.7800   -0.9260 ca        1 ML9     -0.063000
      2 C15         5.2130   -1.8030   -0.9640 ca        1 ML9     -0.267300
      3 C18         2.9900   -2.0920    0.6360 ca        1 ML9      0.466200
      4 C13         3.1360   -0.9020   -0.1110 ca        1 ML9     -0.195100
      5 C5          1.5850    2.5330   -0.0060 ca        1 ML9     -0.423400
      6 C6          1.9470    3.9130    0.0160 ca        1 ML9      0.540600
      7 C4          0.1810    2.2160    0.0170 ca        1 ML9      0.630200
      8 C16         4.9730   -2.9500   -0.1620 ca        1 ML9      0.628600
      9 C2         -0.3040    4.5110    0.0330 ca        1 ML9      0.932900
     10 C10         2.5450    1.4800   -0.0480 cc        1 ML9     -0.001200
     11 C9          2.1620    0.1760   -0.0380 cd        1 ML9     -0.136400
     12 C8          0.7290   -0.1720    0.0420 c         1 ML9      0.712700
     13 C23        -2.0580   -0.3090   -1.2120 c3        1 ML9     -0.092900
     14 C27        -2.1050   -0.1810    1.2950 c3        1 ML9     -0.092900
     15 C24        -3.5580   -0.5010   -1.2340 c3        1 ML9     -0.089400
     16 C26        -3.6050   -0.3810    1.2760 c3        1 ML9     -0.089400
     17 C22        -1.6570    0.5370    0.0100 c3        1 ML9      0.103700
     18 C25        -4.0320   -1.1790    0.0490 c3        1 ML9      0.142100
     19 C20         5.7580   -5.1140    0.5180 c3        1 ML9      0.125700
     20 C30        -7.5440   -2.1790    0.5180 c3        1 ML9      0.132400
     21 N17         3.8770   -3.1010    0.6280 nb        1 ML9     -0.729000
     22 N1          1.0440    4.8980    0.0390 nb        1 ML9     -0.774000
     23 N3         -0.7630    3.2120    0.0430 nb        1 ML9     -0.822000
     24 N7         -0.2260    0.8770    0.0190 n         1 ML9     -0.421300
     25 N12        -1.2510    5.5210   -0.0230 nh        1 ML9     -0.942500
     26 O11         0.3230   -1.3470    0.1280 o         1 ML9     -0.629500
     27 O31        -7.8440   -2.5800   -0.8030 oh        1 ML9     -0.600800
     28 O19         5.9490   -3.9210   -0.2430 os        1 ML9     -0.448100
     29 O28        -5.4600   -1.2280   -0.0390 os        1 ML9     -0.437600
     30 H14         4.4220    0.1210   -1.5420 ha        1 ML9      0.137000
     31 H15         6.1140   -1.7510   -1.5870 ha        1 ML9      0.158000
     32 H18         2.0960   -2.2540    1.2700 h4        1 ML9      0.047100
     33 H10         3.6140    1.7470   -0.0880 ha        1 ML9      0.143000
     34 H23        -1.5460   -1.3070   -1.1730 hc        1 ML9      0.062700
     35 H23A       -1.7390    0.2060   -2.1550 hc        1 ML9      0.062700
     36 H27        -1.8250    0.4300    2.1920 hc        1 ML9      0.062700
     37 H27A       -1.5890   -1.1740    1.3770 hc        1 ML9      0.062700
     38 H24        -4.0800    0.4850   -1.3430 hc        1 ML9      0.052450
     39 H24A       -3.8450   -1.1330   -2.1130 hc        1 ML9      0.052450
     40 H26        -3.9180   -0.9240    2.2050 hc        1 ML9      0.052450
     41 H26A       -4.1320    0.6090    1.2710 hc        1 ML9      0.052450
     42 H22        -2.2530    1.4970   -0.0540 h1        1 ML9      0.092700
     43 H25        -3.6150   -2.2230    0.1070 h1        1 ML9      0.048700
     44 H21         3.8780    3.8840   -0.9160 hc        1 ML9      0.064367
     45 H21A        3.5620    5.3810    0.0580 hc        1 ML9      0.064367
     46 H21B        3.8960    3.8110    0.9050 hc        1 ML9      0.064367
     47 H20         5.7210   -4.8830    1.6090 h1        1 ML9      0.050367
     48 H20A        4.8280   -5.6410    0.1970 h1        1 ML9      0.050367
     49 H20B        6.6660   -5.7190    0.2680 h1        1 ML9      0.050367
     50 H30        -8.0750   -2.9180    1.1760 h1        1 ML9      0.051200
     51 H30A       -7.9380   -1.1450    0.7060 h1        1 ML9      0.051200
     52 H29        -5.8370   -1.9960    1.8720 h1        1 ML9      0.038700
     53 H29A       -5.6240   -3.2330    0.5350 h1        1 ML9      0.038700
     54 HN12       -2.2040    5.2910    0.1200 hn        1 ML9      0.445300
     55 HN1A       -0.9570    6.4550    0.1290 hn        1 ML9      0.445300
     56 HO31       -7.3310   -2.0110   -1.3920 ho        1 ML9      0.413000
     57 C21         3.4010    4.2760    0.0170 c3        1 ML9     -0.165400
     58 C29        -6.0450   -2.2250    0.7940 c3        1 ML9      0.087400
@<TRIPOS>BOND
     1    1    2 ar  
     2    1    4 ar  
     3    1   30 1   
     4    2    8 ar  
     5    2   31 1   
     6    3    4 ar  
     7    3   21 ar  
     8    3   32 1   
     9    4   11 1   
    10    5    6 ar  
    11    5    7 ar  
    12    5   10 1   
    13    6   22 ar  
    14    6   57 1   
    15    7   23 ar  
    16    7   24 1   
    17    8   21 ar  
    18    8   28 1   
    19    9   22 ar  
    20    9   23 ar  
    21    9   25 1   
    22   10   11 2   
    23   10   33 1   
    24   11   12 1   
    25   12   24 1   
    26   12   26 2   
    27   13   15 1   
    28   13   17 1   
    29   13   34 1   
    30   13   35 1   
    31   14   16 1   
    32   14   17 1   
    33   14   36 1   
    34   14   37 1   
    35   15   18 1   
    36   15   38 1   
    37   15   39 1   
    38   16   18 1   
    39   16   40 1   
    40   16   41 1   
    41   17   24 1   
    42   17   42 1   
    43   18   29 1   
    44   18   43 1   
    45   19   28 1   
    46   19   47 1   
    47   19   48 1   
    48   19   49 1   
    49   20   27 1   
    50   20   50 1   
    51   20   51 1   
    52   20   58 1   
    53   25   54 1   
    54   25   55 1   
    55   27   56 1   
    56   29   58 1   
    57   44   57 1   
    58   45   57 1   
    59   46   57 1   
    60   52   58 1   
    61   53   58 1   
@<TRIPOS>SUBSTRUCTURE
     1 ML9         1 TEMP              0 ****  ****    0 ROOT
