@<TRIPOS>MOLECULE
ML9
   58    58     1     0     0
SMALL
bcc


@<TRIPOS>ATOM
      1 C14         0.3480    0.0440    0.3450 c2        1 ML9     -0.139000
      2 C15         1.6580    0.1900   -0.0090 c2        1 ML9     -0.157000
      3 C18         0.2770    0.1160    1.8340 c2        1 ML9     -0.096000
      4 C13        -0.8060    0.0010    2.6370 c2        1 ML9      0.029000
      5 C5         -4.0430    0.3930    0.7270 c2        1 ML9     -0.301000
      6 C6         -4.6110    1.0270   -0.4230 c2        1 ML9      0.128000
      7 C4         -4.9210   -0.4190    1.5320 c2        1 ML9      0.231000
      8 C16         2.3930    0.3540    1.2730 c2        1 ML9     -0.029000
      9 C2         -6.6800    0.0690    0.0640 c2        1 ML9      0.229000
     10 C10        -2.6760    0.5250    1.0910 c2        1 ML9      0.028000
     11 C9         -2.1770   -0.1020    2.1940 c2        1 ML9     -0.195000
     12 C8         -3.0700   -0.8980    3.0580 c2        1 ML9      0.358000
     13 C23        -5.5210   -3.2820    2.9640 c3        1 ML9     -0.174000
     14 C27        -4.4760   -3.1990    6.5720 c1        1 ML9     -0.090000
     15 C24        -6.3310   -4.0750    3.9660 c3        1 ML9     -0.258000
     16 C26        -3.1080   -3.6300    6.5480 c3        1 ML9     -0.311000
     17 C22        -5.2940   -1.8730    3.5070 c3        1 ML9     -0.031000
     18 C25        -6.5460   -5.5060    3.6820 c1        1 ML9     -0.054000
     19 C20         4.5390    0.6370    2.2750 c1        1 ML9     -0.006000
     20 C30        -6.1600   -8.2260    3.6440 c3        1 ML9     -0.026000
     21 N17         1.6140    0.3050    2.3450 n2        1 ML9     -0.159000
     22 N1         -5.8910    0.8840   -0.7670 n2        1 ML9     -0.249000
     23 N3         -6.2390   -0.5870    1.1950 n2        1 ML9     -0.293000
     24 N7         -4.4280   -1.0360    2.6850 n         1 ML9     -0.232000
     25 N12        -8.0070   -0.0780   -0.2780 nv        1 ML9     -0.346000
     26 O11        -2.6760   -1.4440    4.1090 o         1 ML9     -0.374000
     27 O31        -7.4710   -8.2180    4.1600 oh        1 ML9     -0.339000
     28 O19         3.7900    0.5390    1.2440 os        1 ML9     -0.014000
     29 O28        -5.8330   -5.9770    2.6710 os        1 ML9     -0.193000
     30 H14        -0.5130   -0.1380   -0.2930 ha        1 ML9      0.154000
     31 H15         2.1350    0.1880   -0.9850 ha        1 ML9      0.170000
     32 H18        -0.6720   -0.0370    3.7390 ha        1 ML9      0.171000
     33 H10        -2.0230    1.1630    0.4690 ha        1 ML9      0.150000
     34 H23        -4.5370   -3.7940    2.7920 hc        1 ML9      0.092000
     35 H23A       -6.0560   -3.2470    1.9810 hc        1 ML9      0.092000
     36 H27        -4.7540   -2.4530    7.3320 ha        1 ML9      0.042000
     37 H27A       -4.8220   -1.9590    4.5330 h1        1 ML9      0.118000
     38 H24        -7.3500   -3.6170    4.0930 hc        1 ML9      0.154500
     39 H24A       -5.8250   -4.0290    4.9870 hc        1 ML9      0.154500
     40 H26        -3.0360   -4.7170    6.2830 hc        1 ML9      0.123333
     41 H26A       -2.6440   -3.0500    5.6880 hc        1 ML9      0.123333
     42 H22        -6.2880   -1.3560    3.6320 h1        1 ML9      0.118000
     43 H25        -2.4970   -3.4380    7.4660 hc        1 ML9      0.123333
     44 H21        -2.8800    1.2710   -1.6660 hc        1 ML9      0.105667
     45 H21A       -3.3210    2.7240   -0.6570 hc        1 ML9      0.105667
     46 H21B       -4.2780    2.3240   -2.1460 hc        1 ML9      0.105667
     47 H20         4.4010    2.9990    2.7520 ha        1 ML9      0.005000
     48 H20A        4.9150    2.9730    2.3090 ha        1 ML9      0.005000
     49 H20B        4.1500    0.5760    3.3090 ha        1 ML9      0.064000
     50 H30        -6.9590   -7.4640    1.7540 h1        1 ML9      0.105500
     51 H30A       -5.1250   -7.6570    1.7940 h1        1 ML9      0.105500
     52 H29        -5.9490   -9.3020    3.4010 h1        1 ML9      0.090000
     53 H29A       -5.4300   -7.8590    4.4160 h1        1 ML9      0.090000
     54 HN12       -8.3540    0.3530   -1.0990 hn        1 ML9      0.251000
     55 HN1A       -8.5950   -0.6640    0.2610 hn        1 ML9      0.251000
     56 HO31       -7.6720   -7.2980    4.4040 ho        1 ML9      0.235000
     57 C21        -3.7290    1.8860   -1.2760 c3        1 ML9     -0.192000
     58 C29        -6.0370   -7.3820    2.3840 c3        1 ML9     -0.054000
@<TRIPOS>BOND
     1    1    2 1   
     2    1    3 1   
     3    1   30 1   
     4    2    8 1   
     5    2   31 1   
     6    3    4 1   
     7    3   21 1   
     8    4   11 1   
     9    4   32 1   
    10    5    6 1   
    11    5    7 1   
    12    5   10 1   
    13    6   22 1   
    14    6   57 1   
    15    7   23 1   
    16    7   24 1   
    17    8   21 1   
    18    8   28 1   
    19    9   22 1   
    20    9   23 1   
    21    9   25 1   
    22   10   11 1   
    23   10   33 1   
    24   11   12 1   
    25   12   24 1   
    26   12   26 1   
    27   13   15 1   
    28   13   17 1   
    29   13   34 1   
    30   13   35 1   
    31   14   16 1   
    32   14   36 1   
    33   15   18 1   
    34   15   38 1   
    35   15   39 1   
    36   16   40 1   
    37   16   41 1   
    38   16   43 1   
    39   17   24 1   
    40   17   37 1   
    41   17   42 1   
    42   18   29 1   
    43   19   28 1   
    44   19   49 1   
    45   20   27 1   
    46   20   52 1   
    47   20   53 1   
    48   20   58 1   
    49   25   54 1   
    50   25   55 1   
    51   27   56 1   
    52   29   58 1   
    53   44   57 1   
    54   45   57 1   
    55   46   57 1   
    56   47   48 1   
    57   50   58 1   
    58   51   58 1   
@<TRIPOS>SUBSTRUCTURE
     1 ML9         1 TEMP              0 ****  ****    0 ROOT
