@<TRIPOS>MOLECULE
ML9
   59    57     1     0     0
SMALL
bcc


@<TRIPOS>ATOM
      1 C14        -0.8240   -1.7010    2.3190 c2        1 ML9     -0.144000
      2 C15        -0.7720   -2.7510    3.1520 c2        1 ML9     -0.142000
      3 C18        -1.5710   -0.3400    4.2390 c2        1 ML9      0.016000
      4 C13        -1.3780   -0.3760    2.7460 c3        1 ML9     -0.038000
      5 C5         -3.7710    0.6400   -0.0120 c2        1 ML9     -0.299000
      6 C6         -3.7660    1.0660   -1.3850 c2        1 ML9      0.138000
      7 C4         -5.0550    0.4980    0.6210 c2        1 ML9      0.223000
      8 C16        -1.3130   -2.6490    4.5120 c2        1 ML9     -0.080000
      9 C2         -6.1010    1.1390   -1.3730 c2        1 ML9      0.239000
     10 C10        -2.5930    0.3560    0.7200 c2        1 ML9      0.043000
     11 C9         -2.6490   -0.0560    2.0210 c2        1 ML9     -0.228000
     12 C8         -3.9450   -0.1930    2.6880 c2        1 ML9      0.388000
     13 C23        -7.1250   -1.3310    2.3740 c3        1 ML9     -0.230000
     14 C27        -2.2320   -4.4800    0.2200 c1        1 ML9     -0.220000
     15 C24        -3.8810   -6.2340    4.3500 c2        1 ML9     -0.313000
     16 C26        -2.7110   -5.2440   -0.5650 c1        1 ML9     -0.220000
     17 C22        -6.4070   -0.0180    2.6370 c3        1 ML9     -0.030000
     18 C25        -3.0680   -6.6600    5.3170 c2        1 ML9     -0.026000
     19 C20        -3.6090   -1.6190    6.4910 c1        1 ML9      0.474000
     20 C30        -1.6220   -3.7730    5.2270 c2        1 ML9      0.026000
     21 N17        -1.5590   -1.3540    5.0380 n2        1 ML9     -0.226000
     22 N1         -4.8840    1.3130   -2.0620 n2        1 ML9     -0.230000
     23 N3         -6.2200    0.7370   -0.0530 n2        1 ML9     -0.296000
     24 N7         -5.1140    0.1120    1.9700 n         1 ML9     -0.218000
     25 O11        -4.0790   -0.5450    3.8940 o         1 ML9     -0.508000
     26 O31        -2.3250   -3.6380    6.4100 oh        1 ML9     -0.337000
     27 O19        -3.1720   -1.3790    7.5290 o         1 ML9      0.087000
     28 O28        -1.8510   -6.1170    5.6850 os        1 ML9     -0.231000
     29 H14        -0.6140    0.4190    2.4840 hc        1 ML9      0.135000
     30 H15        -0.3280   -3.7130    2.8490 ha        1 ML9      0.152000
     31 H18        -1.7580    0.6590    4.6820 h4        1 ML9      0.165000
     32 H10        -1.6170    0.4670    0.2160 ha        1 ML9      0.151000
     33 H23        -7.3480   -1.4630    1.2880 hc        1 ML9      0.090333
     34 H23A       -6.5190   -2.2010    2.7210 hc        1 ML9      0.090333
     35 H27        -0.4490   -1.7540    1.2850 ha        1 ML9      0.148000
     36 H27A       -6.2290    0.0900    3.7480 h1        1 ML9      0.113500
     37 H24        -8.0920   -1.3210    2.9340 hc        1 ML9      0.090333
     38 H24A       -3.6640   -5.3830    3.6950 ha        1 ML9      0.133000
     39 H26        -1.8060   -3.7960    0.9110 ha        1 ML9      0.219000
     40 H26A       -3.1310   -5.9250   -1.2630 ha        1 ML9      0.219000
     41 H22        -7.0660    0.8400    2.3180 h1        1 ML9      0.113500
     42 H25        -3.2590   -7.5190    5.9870 h4        1 ML9      0.180000
     43 H21        -2.5670    1.5810   -3.1340 hc        1 ML9      0.112000
     44 H21A       -1.9070    0.2580   -2.0830 hc        1 ML9      0.112000
     45 H21B       -1.8380    1.9940   -1.5240 hc        1 ML9      0.112000
     46 H20        -4.0350   -1.8350    5.5000 ha        1 ML9      0.388000
     47 H20A       -5.2170    0.6120    5.6910 ha        1 ML9      0.002000
     48 H20B       -5.0810    0.1950    6.2090 ha        1 ML9      0.002000
     49 H30        -0.3960   -5.6830    1.6010 ha        1 ML9      0.002000
     50 H30A        0.0160   -5.8830    2.1020 ha        1 ML9      0.002000
     51 H29        -0.1460   -5.3190    4.9600 h1        1 ML9      0.136000
     52 H29A       -1.5200   -5.3560    3.7390 h1        1 ML9      0.136000
     53 HN12       -4.8300   -6.7490    4.1510 ha        1 ML9      0.133000
     54 HN1A       -7.2110    1.6810   -3.0160 hn        1 ML9      0.259500
     55 HO31       -2.1840   -4.4380    6.9470 ho        1 ML9      0.273000
     56 C21        -2.4480    1.2360   -2.0760 c3        1 ML9     -0.196000
     57 C29        -1.2540   -5.1640    4.8130 c3        1 ML9     -0.026000
     58 H123       -8.1380    1.2860   -1.6280 hn        1 ML9      0.259500
     59 N12        -7.2570    1.3850   -2.0710 nh        1 ML9     -0.327000
@<TRIPOS>BOND
     1    1    2 1   
     2    1    4 1   
     3    1   35 1   
     4    2    8 1   
     5    2   30 1   
     6    3    4 1   
     7    3   21 1   
     8    3   31 1   
     9    4   11 1   
    10    4   29 1   
    11    5    6 1   
    12    5    7 1   
    13    5   10 1   
    14    6   22 1   
    15    6   56 1   
    16    7   23 1   
    17    7   24 1   
    18    8   20 1   
    19    8   21 1   
    20    9   22 1   
    21    9   23 1   
    22    9   59 1   
    23   10   11 1   
    24   10   32 1   
    25   11   12 1   
    26   12   24 1   
    27   12   25 1   
    28   13   17 1   
    29   13   33 1   
    30   13   34 1   
    31   13   37 1   
    32   14   16 1   
    33   14   39 1   
    34   15   18 1   
    35   15   38 1   
    36   15   53 1   
    37   16   40 1   
    38   17   24 1   
    39   17   36 1   
    40   17   41 1   
    41   18   28 1   
    42   18   42 1   
    43   19   27 1   
    44   19   46 1   
    45   20   26 1   
    46   20   57 1   
    47   26   55 1   
    48   28   57 1   
    49   43   56 1   
    50   44   56 1   
    51   45   56 1   
    52   47   48 1   
    53   49   50 1   
    54   51   57 1   
    55   52   57 1   
    56   54   59 1   
    57   58   59 1   
@<TRIPOS>SUBSTRUCTURE
     1 ML9         1 TEMP              0 ****  ****    0 ROOT
