@<TRIPOS>MOLECULE
MLA
    9     8     1     0     0
SMALL
bcc


@<TRIPOS>ATOM
      1 C1          0.1200    0.0000    0.0450 c         1 MLA      0.904600
      2 O1A         1.3710    0.0000   -0.2460 o         1 MLA     -0.893800
      3 O1B        -0.2410    0.0000    1.2550 o         1 MLA     -0.893800
      4 C2         -0.8230    0.0000   -1.1540 c3        1 MLA     -0.249400
      5 C3         -2.3470   -0.0000   -1.0910 c         1 MLA      0.904600
      6 O3A        -3.0310    0.0000   -0.0290 o         1 MLA     -0.893800
      7 O3B        -2.9400   -0.0000   -2.2290 o         1 MLA     -0.893800
      8 HC21       -0.5410    0.9010   -1.7650 hc        1 MLA      0.007700
      9 HC22       -0.5410   -0.9010   -1.7650 hc        1 MLA      0.007700
@<TRIPOS>BOND
     1    1    2 1   
     2    1    3 1   
     3    1    4 1   
     4    4    5 1   
     5    4    8 1   
     6    4    9 1   
     7    5    6 1   
     8    5    7 1   
@<TRIPOS>SUBSTRUCTURE
     1 MLA         1 TEMP              0 ****  ****    0 ROOT
