@<TRIPOS>MOLECULE
MLA
    9     8     1     0     0
SMALL
bcc


@<TRIPOS>ATOM
      1 C1         -0.0650    0.2770    1.2860 c         1 MLA      0.922600
      2 O1A        -0.2430   -0.5040    2.2800 o         1 MLA     -0.898800
      3 O1B         0.6500    1.3200    1.4080 o         1 MLA     -0.898800
      4 C2         -0.8410    0.0000    0.0020 c3        1 MLA     -0.260400
      5 C3         -0.0740   -0.2780   -1.2880 c         1 MLA      0.922600
      6 O3A         0.6380   -1.3210   -1.4140 o         1 MLA     -0.898800
      7 O3B        -0.2580    0.5040   -2.2800 o         1 MLA     -0.898800
      8 HC21       -1.5000   -0.8890    0.1840 hc        1 MLA      0.004700
      9 HC22       -1.5000    0.8910   -0.1760 hc        1 MLA      0.004700
@<TRIPOS>BOND
     1    1    2 1   
     2    1    3 1   
     3    1    4 1   
     4    4    5 1   
     5    4    8 1   
     6    4    9 1   
     7    5    6 1   
     8    5    7 1   
@<TRIPOS>SUBSTRUCTURE
     1 MLA         1 TEMP              0 ****  ****    0 ROOT
