@<TRIPOS>MOLECULE
MLB
   45    46     1     0     0
SMALL
bcc


@<TRIPOS>ATOM
      1 C1          1.9690   -0.2530   -1.3200 c3        1 MLB      0.309900
      2 O1          0.7180   -0.5810   -0.7400 os        1 MLB     -0.466600
      3 C2          2.9760   -1.3150   -0.8420 c3        1 MLB      0.094100
      4 O2          2.5650   -2.6180   -1.1920 oh        1 MLB     -0.593800
      5 C3          3.1840   -1.2030    0.6750 c3        1 MLB      0.077100
      6 O3          4.2450   -2.0390    1.1060 oh        1 MLB     -0.608800
      7 C4          3.5750    0.2360    1.0510 c3        1 MLB      0.127100
      8 O4          4.8400    0.5830    0.5170 oh        1 MLB     -0.594800
      9 C5          2.5250    1.2100    0.5020 c3        1 MLB      0.104100
     10 O5          2.2990    1.0510   -0.9030 os        1 MLB     -0.435600
     11 C6          2.9770    2.6640    0.6740 c3        1 MLB      0.142400
     12 O6          1.9480    3.5610    0.3170 oh        1 MLB     -0.599800
     13 C1'        -2.6750    0.4400    1.5880 c3        1 MLB      0.303900
     14 O1'        -2.5900   -0.8680    2.1070 oh        1 MLB     -0.638800
     15 C2'        -4.0470    0.5850    0.9070 c3        1 MLB      0.096100
     16 O2'        -5.0950    0.2230    1.7800 oh        1 MLB     -0.591800
     17 C3'        -4.1050   -0.2550   -0.3760 c3        1 MLB      0.074100
     18 O3'        -5.2580    0.0570   -1.1400 oh        1 MLB     -0.606800
     19 C4'        -2.8900    0.0580   -1.2630 c3        1 MLB      0.125100
     20 O4'        -2.8650   -0.7870   -2.4000 oh        1 MLB     -0.597800
     21 C5'        -1.6070   -0.2150   -0.4610 c3        1 MLB      0.141100
     22 O5'        -1.5790    0.6020    0.7140 os        1 MLB     -0.437600
     23 C6'        -0.3730    0.1720   -1.2760 c3        1 MLB      0.140400
     24 H1          1.9150   -0.1990   -2.4430 h2        1 MLB      0.091700
     25 H2          3.9560   -1.1570   -1.3750 h1        1 MLB      0.109700
     26 HO2         1.6540   -2.7280   -0.8830 ho        1 MLB      0.420000
     27 H3          2.2370   -1.4940    1.2090 h1        1 MLB      0.059700
     28 HO3         4.1410   -2.8830    0.6440 ho        1 MLB      0.425000
     29 H4          3.6120    0.3250    2.1730 h1        1 MLB      0.056700
     30 HO4         5.4500   -0.1240    0.7710 ho        1 MLB      0.423000
     31 H5          1.5490    1.0280    1.0350 h1        1 MLB      0.073700
     32 H6          3.1870    2.8670    1.7570 h1        1 MLB      0.065200
     33 H6A         3.8980    2.8470    0.0590 h1        1 MLB      0.065200
     34 HO6         1.7310    3.3880   -0.6080 ho        1 MLB      0.410000
     35 HO1'       -1.7160   -0.9670    2.5060 ho        1 MLB      0.430000
     36 H2'        -4.2300    1.6710    0.6680 h1        1 MLB      0.101700
     37 HO2'       -4.8910   -0.6540    2.1340 ho        1 MLB      0.423000
     38 H3'        -4.1160   -1.3510   -0.1130 h1        1 MLB      0.065700
     39 HO3'       -6.0070    0.0430   -0.5290 ho        1 MLB      0.426000
     40 H4'        -2.9290    1.1340   -1.5920 h1        1 MLB      0.060700
     41 HO4'       -3.7370   -0.7170   -2.8120 ho        1 MLB      0.428000
     42 H5'        -1.5620   -1.2980   -0.1610 h1        1 MLB      0.079700
     43 H6'        -0.1560    1.2680   -1.1810 h1        1 MLB      0.064200
     44 H6'A       -0.5290   -0.1130   -2.3510 h1        1 MLB      0.064200
     45 H1'        -2.5250    1.2210    2.3860 h2        1 MLB      0.089700
@<TRIPOS>BOND
     1    1    2 1   
     2    1    3 1   
     3    1   10 1   
     4    1   24 1   
     5    2   23 1   
     6    3    4 1   
     7    3    5 1   
     8    3   25 1   
     9    4   26 1   
    10    5    6 1   
    11    5    7 1   
    12    5   27 1   
    13    6   28 1   
    14    7    8 1   
    15    7    9 1   
    16    7   29 1   
    17    8   30 1   
    18    9   10 1   
    19    9   11 1   
    20    9   31 1   
    21   11   12 1   
    22   11   32 1   
    23   11   33 1   
    24   12   34 1   
    25   13   14 1   
    26   13   15 1   
    27   13   22 1   
    28   13   45 1   
    29   14   35 1   
    30   15   16 1   
    31   15   17 1   
    32   15   36 1   
    33   16   37 1   
    34   17   18 1   
    35   17   19 1   
    36   17   38 1   
    37   18   39 1   
    38   19   20 1   
    39   19   21 1   
    40   19   40 1   
    41   20   41 1   
    42   21   22 1   
    43   21   23 1   
    44   21   42 1   
    45   23   43 1   
    46   23   44 1   
@<TRIPOS>SUBSTRUCTURE
     1 MLB         1 TEMP              0 ****  ****    0 ROOT
