@<TRIPOS>MOLECULE
MLB
   45    46     1     0     0
SMALL
bcc


@<TRIPOS>ATOM
      1 C1          0.8830    1.7890   -0.6540 c3        1 MLB      0.340900
      2 O1          0.3980    0.5250   -0.2300 os        1 MLB     -0.434600
      3 C2          2.3950    1.7630   -0.6400 c3        1 MLB      0.138100
      4 O2          2.8470    0.6140   -1.3770 oh        1 MLB     -0.582800
      5 C3          2.9460    1.6970    0.7410 c3        1 MLB      0.062100
      6 O3          4.3760    1.8580    0.6810 oh        1 MLB     -0.613800
      7 C4          2.3820    2.7530    1.6240 c3        1 MLB      0.096100
      8 O4          2.8790    4.0390    1.1910 oh        1 MLB     -0.595800
      9 C5          0.8650    2.7770    1.5970 c3        1 MLB      0.101100
     10 O5          0.3260    2.8370    0.2300 os        1 MLB     -0.447600
     11 C6          0.3930    3.9530    2.3470 c3        1 MLB      0.145400
     12 O6         -1.0060    3.8490    2.5530 oh        1 MLB     -0.602800
     13 C1'        -1.5150   -3.2600    0.6900 c3        1 MLB      0.348900
     14 O1'        -0.3670   -3.9910    0.4370 oh        1 MLB     -0.619800
     15 C2'        -2.5960   -3.7090   -0.2530 c3        1 MLB      0.047100
     16 O2'        -2.7110   -5.1530   -0.1840 oh        1 MLB     -0.606800
     17 C3'        -2.3160   -3.3130   -1.6640 c3        1 MLB      0.069100
     18 O3'        -3.4740   -3.6200   -2.4760 oh        1 MLB     -0.603800
     19 C4'        -2.0080   -1.8560   -1.7920 c3        1 MLB      0.123100
     20 O4'        -1.5770   -1.5860   -3.1470 oh        1 MLB     -0.590800
     21 C5'        -0.9250   -1.4100   -0.8350 c3        1 MLB      0.139100
     22 O5'        -1.2030   -1.8040    0.5510 os        1 MLB     -0.402600
     23 C6'        -0.8010    0.1080   -0.9030 c3        1 MLB      0.137400
     24 H1          0.5790    1.9540   -1.5690 h2        1 MLB      0.091700
     25 H2          2.7330    2.5780   -1.0790 h1        1 MLB      0.067700
     26 HO2         3.5020    0.8600   -1.9410 ho        1 MLB      0.420000
     27 H3          2.7400    0.8170    1.1250 h1        1 MLB      0.087700
     28 HO3         4.7620    1.2090    1.1290 ho        1 MLB      0.413000
     29 H4          2.6790    2.5920    2.5370 h1        1 MLB      0.044700
     30 HO4         3.4730    4.3650    1.8160 ho        1 MLB      0.416000
     31 H5          0.5290    1.9710    2.0320 h1        1 MLB      0.091700
     32 H6          0.8480    3.9920    3.2110 h1        1 MLB      0.061700
     33 H6A         0.5890    4.7670    1.8370 h1        1 MLB      0.061700
     34 HO6        -1.2730    4.4840    3.1370 ho        1 MLB      0.410000
     35 H1'        -1.8090   -3.4370    1.6190 h2        1 MLB      0.090700
     36 HO1'       -0.2030   -4.5430    1.1300 ho        1 MLB      0.430000
     37 H2'        -3.4510   -3.3070    0.0280 h1        1 MLB      0.072700
     38 HO2'       -3.5140   -5.3730    0.1680 ho        1 MLB      0.415000
     39 H3'        -1.5510   -3.8290   -1.9930 h1        1 MLB      0.072700
     40 HO3'       -3.3010   -4.3420   -2.9830 ho        1 MLB      0.409000
     41 H4'        -2.8240   -1.3420   -1.6100 h1        1 MLB      0.058700
     42 HO4'       -2.2950   -1.3670   -3.6550 ho        1 MLB      0.421000
     43 H5'        -0.0620   -1.8160   -1.1160 h1        1 MLB      0.094700
     44 H6'        -1.5800    0.5190   -0.4700 h1        1 MLB      0.061700
     45 H6'A       -0.7620    0.3890   -1.8370 h1        1 MLB      0.061700
@<TRIPOS>BOND
     1    1    2 1   
     2    1    3 1   
     3    1   10 1   
     4    1   24 1   
     5    2   23 1   
     6    3    4 1   
     7    3    5 1   
     8    3   25 1   
     9    4   26 1   
    10    5    6 1   
    11    5    7 1   
    12    5   27 1   
    13    6   28 1   
    14    7    8 1   
    15    7    9 1   
    16    7   29 1   
    17    8   30 1   
    18    9   10 1   
    19    9   11 1   
    20    9   31 1   
    21   11   12 1   
    22   11   32 1   
    23   11   33 1   
    24   12   34 1   
    25   13   14 1   
    26   13   15 1   
    27   13   22 1   
    28   13   35 1   
    29   14   36 1   
    30   15   16 1   
    31   15   17 1   
    32   15   37 1   
    33   16   38 1   
    34   17   18 1   
    35   17   19 1   
    36   17   39 1   
    37   18   40 1   
    38   19   20 1   
    39   19   21 1   
    40   19   41 1   
    41   20   42 1   
    42   21   22 1   
    43   21   23 1   
    44   21   43 1   
    45   23   44 1   
    46   23   45 1   
@<TRIPOS>SUBSTRUCTURE
     1 MLB         1 TEMP              0 ****  ****    0 ROOT
