@<TRIPOS>MOLECULE
MLE
   24    23     1     0     0
SMALL
bcc


@<TRIPOS>ATOM
      1 N          -0.4350   -1.5990   -0.1980 n3        1 MLE     -0.794200
      2 CN         -1.4380   -2.3380    0.5190 c3        1 MLE      0.146100
      3 CA         -0.3330   -0.1960    0.1940 c3        1 MLE      0.043500
      4 CB          0.8200    0.5270   -0.5040 c3        1 MLE     -0.062400
      5 CG          2.2070   -0.0390   -0.2350 c3        1 MLE     -0.073700
      6 CD1         3.2470    0.8110   -0.9390 c3        1 MLE     -0.084100
      7 CD2         2.5140   -0.1150    1.2450 c3        1 MLE     -0.084100
      8 C          -1.6570    0.6040   -0.0880 c         1 MLE      0.927600
      9 O          -1.6720    1.4250   -1.0430 o         1 MLE     -0.840300
     10 OXT        -2.6210    0.4080    0.7050 o         1 MLE     -0.840300
     11 H           0.4610   -2.0350   -0.0570 hn        1 MLE      0.310800
     12 HN1        -1.1820   -2.5180    1.6020 h1        1 MLE      0.024033
     13 HN2        -2.4110   -1.7740    0.4830 h1        1 MLE      0.024033
     14 HN3        -1.5620   -3.3370    0.0230 h1        1 MLE      0.024033
     15 HA         -0.1660   -0.1160    1.3130 h1        1 MLE     -0.003300
     16 HB2         0.6270    0.5280   -1.6100 hc        1 MLE      0.056200
     17 HB3         0.7840    1.5960   -0.1660 hc        1 MLE      0.056200
     18 HG          2.2710   -1.0790   -0.6650 hc        1 MLE      0.034700
     19 HD11        4.2680    0.3790   -0.8010 hc        1 MLE      0.022700
     20 HD12        3.0270    0.8650   -2.0320 hc        1 MLE      0.022700
     21 HD13        3.2450    1.8500   -0.5280 hc        1 MLE      0.022700
     22 HD21        1.8580   -0.8710    1.7400 hc        1 MLE      0.022700
     23 HD22        3.5790   -0.4070    1.4110 hc        1 MLE      0.022700
     24 HD23        2.3370    0.8750    1.7310 hc        1 MLE      0.022700
@<TRIPOS>BOND
     1    1    2 1   
     2    1    3 1   
     3    1   11 1   
     4    2   12 1   
     5    2   13 1   
     6    2   14 1   
     7    3    4 1   
     8    3    8 1   
     9    3   15 1   
    10    4    5 1   
    11    4   16 1   
    12    4   17 1   
    13    5    6 1   
    14    5    7 1   
    15    5   18 1   
    16    6   19 1   
    17    6   20 1   
    18    6   21 1   
    19    7   22 1   
    20    7   23 1   
    21    7   24 1   
    22    8    9 1   
    23    8   10 1   
@<TRIPOS>SUBSTRUCTURE
     1 MLE         1 TEMP              0 ****  ****    0 ROOT
