@<TRIPOS>MOLECULE
MLG
   32    32     1     0     0
SMALL
bcc


@<TRIPOS>ATOM
      1 C06        -1.3210    0.1720   -1.8230 ca        1 MLG     -0.194000
      2 C05        -1.7080    0.2620   -3.1570 ca        1 MLG     -0.087000
      3 C04        -0.7470    0.1720   -4.1670 ca        1 MLG     -0.012600
      4 CL08       -1.2180    0.2820   -5.7960 cl        1 MLG     -0.087400
      5 C03         0.6020   -0.0070   -3.8500 ca        1 MLG     -0.091000
      6 C02         0.9990   -0.0970   -2.5150 ca        1 MLG     -0.006600
      7 CL07        2.6470   -0.3140   -2.1730 cl        1 MLG     -0.064400
      8 C01         0.0290   -0.0070   -1.4900 ca        1 MLG      0.140100
      9 O09         0.4950   -0.1080   -0.1980 os        1 MLG     -0.313900
     10 C11         0.2880   -0.1100    2.1420 c3        1 MLG     -0.088400
     11 C10        -0.4880    0.0070    0.8410 c3        1 MLG      0.128400
     12 C12        -0.7010   -0.1620    3.3050 c3        1 MLG      0.172800
     13 N13        -0.0750   -0.0170    4.6130 n3        1 MLG     -0.726600
     14 C17         0.9530   -0.9970    4.8730 c3        1 MLG      0.148100
     15 C14        -1.0900    0.0550    5.6650 c3        1 MLG      0.248900
     16 C15        -0.5630    0.3340    6.9800 c1        1 MLG     -0.141100
     17 C16        -0.1660    0.5760    8.0820 c1        1 MLG     -0.143500
     18 H06        -2.0890    0.2440   -1.0400 ha        1 MLG      0.146000
     19 H05        -2.7700    0.4030   -3.4100 ha        1 MLG      0.151000
     20 H03         1.3560   -0.0760   -4.6520 ha        1 MLG      0.163000
     21 H111        0.9160   -1.0380    2.1160 hc        1 MLG      0.070200
     22 H112        0.9810    0.7650    2.2440 hc        1 MLG      0.070200
     23 H101       -1.2380   -0.8220    0.7380 h1        1 MLG      0.041700
     24 H102       -1.0040    1.0000    0.7630 h1        1 MLG      0.041700
     25 H121       -1.2880   -1.1260    3.2290 h1        1 MLG      0.030200
     26 H122       -1.4330    0.6890    3.1890 h1        1 MLG      0.030200
     27 H171        1.3470   -0.8520    5.9130 h1        1 MLG      0.037700
     28 H172        0.5920   -2.0570    4.7710 h1        1 MLG      0.037700
     29 H173        1.7940   -0.8340    4.1480 h1        1 MLG      0.037700
     30 H141       -1.8040    0.8890    5.3890 h1        1 MLG      0.048700
     31 H142       -1.6930   -0.9040    5.7250 h1        1 MLG      0.048700
     32 H16         0.1810    0.7900    9.0600 ha        1 MLG      0.165500
@<TRIPOS>BOND
     1    1    2 ar  
     2    1    8 ar  
     3    1   18 1   
     4    2    3 ar  
     5    2   19 1   
     6    3    4 1   
     7    3    5 ar  
     8    5    6 ar  
     9    5   20 1   
    10    6    7 1   
    11    6    8 ar  
    12    8    9 1   
    13    9   11 1   
    14   10   11 1   
    15   10   12 1   
    16   10   21 1   
    17   10   22 1   
    18   11   23 1   
    19   11   24 1   
    20   12   13 1   
    21   12   25 1   
    22   12   26 1   
    23   13   14 1   
    24   13   15 1   
    25   14   27 1   
    26   14   28 1   
    27   14   29 1   
    28   15   16 1   
    29   15   30 1   
    30   15   31 1   
    31   16   17 3   
    32   17   32 1   
@<TRIPOS>SUBSTRUCTURE
     1 MLG         1 TEMP              0 ****  ****    0 ROOT
