@<TRIPOS>MOLECULE
MLI
    9     8     1     0     0
SMALL
bcc


@<TRIPOS>ATOM
      1 C1          0.0010    0.8480    0.0230 c3        1 MLI     -0.260400
      2 C2          1.3100    0.0680    0.1120 c         1 MLI      0.922600
      3 C3         -1.3120    0.0870   -0.1370 c         1 MLI      0.922600
      4 O6          1.5530   -0.6930    1.0990 o         1 MLI     -0.898800
      5 O7          2.2050    0.2880   -0.7710 o         1 MLI     -0.898800
      6 O8         -1.5590   -0.5780   -1.1910 o         1 MLI     -0.898800
      7 O9         -2.2060    0.2290    0.7620 o         1 MLI     -0.898800
      8 H11        -0.0720    1.4640    0.9570 hc        1 MLI      0.004700
      9 H12         0.0780    1.5480   -0.8500 hc        1 MLI      0.004700
@<TRIPOS>BOND
     1    1    2 1   
     2    1    3 1   
     3    1    8 1   
     4    1    9 1   
     5    2    4 1   
     6    2    5 1   
     7    3    6 1   
     8    3    7 1   
@<TRIPOS>SUBSTRUCTURE
     1 MLI         1 TEMP              0 ****  ****    0 ROOT
