@<TRIPOS>MOLECULE
MLI
    9     8     1     0     0
SMALL
bcc


@<TRIPOS>ATOM
      1 C1          0.0650    0.0100    0.0900 c3        1 MLI     -0.260400
      2 C2          1.5820    0.1300   -0.0310 c         1 MLI      0.922600
      3 C3         -0.5630   -0.1430    1.4730 c         1 MLI      0.922600
      4 O6          2.1990    1.1370    0.4350 o         1 MLI     -0.898800
      5 O7          2.2040   -0.7500   -0.7140 o         1 MLI     -0.898800
      6 O8         -0.3580   -1.1820    2.1740 o         1 MLI     -0.898800
      7 O9         -1.3940    0.7440    1.8600 o         1 MLI     -0.898800
      8 H11        -0.2580   -0.8800   -0.5120 hc        1 MLI      0.004700
      9 H12        -0.3700    0.9280   -0.3840 hc        1 MLI      0.004700
@<TRIPOS>BOND
     1    1    2 1   
     2    1    3 1   
     3    1    8 1   
     4    1    9 1   
     5    2    4 1   
     6    2    5 1   
     7    3    6 1   
     8    3    7 1   
@<TRIPOS>SUBSTRUCTURE
     1 MLI         1 TEMP              0 ****  ****    0 ROOT
