@<TRIPOS>MOLECULE
MLL
   25    24     1     0     0
SMALL
bcc


@<TRIPOS>ATOM
      1 N          -1.9770   -0.2150   -0.5600 n3        1 MLL     -0.893800
      2 CA         -0.5640   -0.0670   -0.6240 c3        1 MLL      0.137500
      3 CB          0.0150   -0.1480    0.7700 c3        1 MLL     -0.073400
      4 CG         -0.0440    1.2160    1.4210 c3        1 MLL     -0.060700
      5 CD2         1.3610    1.7030    1.6990 c3        1 MLL     -0.091600
      6 CD1        -0.8110    1.1210    2.7220 c3        1 MLL     -0.091600
      7 C           0.0200   -1.1690   -1.4770 c         1 MLL      0.578100
      8 O           0.0770   -2.3040   -1.0480 o         1 MLL     -0.551000
      9 O9          0.4950   -0.8820   -2.7680 os        1 MLL     -0.434900
     10 C10         1.0000   -2.0050   -3.4540 c3        1 MLL      0.124700
     11 H          -2.3760    0.4420   -1.0590 hn        1 MLL      0.363800
     12 H2         -2.2140   -1.0350   -0.8900 hn        1 MLL      0.363800
     13 HA         -0.3450    0.8010   -1.0170 h1        1 MLL      0.091700
     14 HB2        -0.5030   -0.7860    1.3010 hc        1 MLL      0.056700
     15 HB3         0.9450   -0.4460    0.7200 hc        1 MLL      0.056700
     16 HG         -0.4940    1.8430    0.8230 hc        1 MLL      0.059700
     17 HD21        1.3230    2.5820    2.1310 hc        1 MLL      0.035200
     18 HD22        1.8160    1.0680    2.2900 hc        1 MLL      0.035200
     19 HD23        1.8540    1.7750    0.8550 hc        1 MLL      0.035200
     20 HD11       -1.7580    0.9570    2.5310 hc        1 MLL      0.035200
     21 HD12       -0.4530    0.3840    3.2590 hc        1 MLL      0.035200
     22 HD13       -0.7190    1.9620    3.2170 hc        1 MLL      0.035200
     23 H101        0.2600   -2.6090   -3.6820 h1        1 MLL      0.051700
     24 H102        1.4480   -1.7120   -4.2760 h1        1 MLL      0.051700
     25 H103        1.6430   -2.4770   -2.8810 h1        1 MLL      0.051700
@<TRIPOS>BOND
     1    1    2 1   
     2    1   11 1   
     3    1   12 1   
     4    2    3 1   
     5    2    7 1   
     6    2   13 1   
     7    3    4 1   
     8    3   14 1   
     9    3   15 1   
    10    4    5 1   
    11    4    6 1   
    12    4   16 1   
    13    5   17 1   
    14    5   18 1   
    15    5   19 1   
    16    6   20 1   
    17    6   21 1   
    18    6   22 1   
    19    7    8 2   
    20    7    9 1   
    21    9   10 1   
    22   10   23 1   
    23   10   24 1   
    24   10   25 1   
@<TRIPOS>SUBSTRUCTURE
     1 MLL         1 TEMP              0 ****  ****    0 ROOT
