@<TRIPOS>MOLECULE
MLL
   25    24     1     0     0
SMALL
bcc


@<TRIPOS>ATOM
      1 N           2.6310   -5.3320   -0.7510 n3        1 MLL     -0.899800
      2 CA          1.4400   -4.5200   -0.6140 c3        1 MLL      0.128500
      3 CB          1.6720   -2.9990   -0.5510 c3        1 MLL     -0.116400
      4 CG          0.4480   -2.2530   -0.0400 c3        1 MLL     -0.072700
      5 CD2         0.3510   -2.3230    1.4700 c3        1 MLL     -0.090600
      6 CD1         0.4940   -0.8070   -0.4920 c3        1 MLL     -0.090600
      7 C           0.4470   -4.7980   -1.7350 c         1 MLL      0.637100
      8 O          -0.7490   -5.0660   -1.6240 o         1 MLL     -0.535000
      9 O9          0.9790   -4.6910   -2.9900 os        1 MLL     -0.442900
     10 C10         0.0990   -4.9550   -4.0850 c3        1 MLL      0.126700
     11 H           3.2930   -5.0890   -0.0400 hn        1 MLL      0.361300
     12 H2          3.0490   -5.2060   -1.6530 hn        1 MLL      0.361300
     13 HA          0.9300   -4.8480    0.3440 h1        1 MLL      0.094700
     14 HB2         1.9400   -2.6300   -1.5760 hc        1 MLL      0.053200
     15 HB3         2.5410   -2.7850    0.1240 hc        1 MLL      0.053200
     16 HG         -0.4740   -2.7350   -0.4790 hc        1 MLL      0.063700
     17 HD21        0.3050   -3.3850    1.8140 hc        1 MLL      0.035700
     18 HD22       -0.5720   -1.8000    1.8190 hc        1 MLL      0.035700
     19 HD23        1.2350   -1.8340    1.9450 hc        1 MLL      0.035700
     20 HD11        0.4890   -0.7450   -1.6070 hc        1 MLL      0.035700
     21 HD12        1.4180   -0.3070   -0.1130 hc        1 MLL      0.035700
     22 HD13       -0.3930   -0.2540   -0.1020 hc        1 MLL      0.035700
     23 H101       -0.3000   -5.9950   -4.0090 h1        1 MLL      0.051700
     24 H102        0.7500   -4.8290   -4.9840 h1        1 MLL      0.051700
     25 H103       -0.7420   -4.2210   -4.0800 h1        1 MLL      0.051700
@<TRIPOS>BOND
     1    1    2 1   
     2    1   11 1   
     3    1   12 1   
     4    2    3 1   
     5    2    7 1   
     6    2   13 1   
     7    3    4 1   
     8    3   14 1   
     9    3   15 1   
    10    4    5 1   
    11    4    6 1   
    12    4   16 1   
    13    5   17 1   
    14    5   18 1   
    15    5   19 1   
    16    6   20 1   
    17    6   21 1   
    18    6   22 1   
    19    7    8 2   
    20    7    9 1   
    21    9   10 1   
    22   10   23 1   
    23   10   24 1   
    24   10   25 1   
@<TRIPOS>SUBSTRUCTURE
     1 MLL         1 TEMP              0 ****  ****    0 ROOT
