@<TRIPOS>MOLECULE
MLM
   11     9     1     0     0
SMALL
bcc


@<TRIPOS>ATOM
      1 C1          0.9860   -0.6770    1.3710 c1        1 MLM      0.335000
      2 O1          2.2260   -0.4840    1.2790 os        1 MLM     -0.595000
      3 O2          0.4540   -0.8250    2.5030 o         1 MLM     -0.552000
      4 C2          0.1330   -0.7280    0.1220 c3        1 MLM     -0.255000
      5 C3         -0.2800    0.6750   -0.2650 c2        1 MLM      0.304000
      6 O3          0.0190    1.6140    0.4460 o         1 MLM     -0.448000
      7 N6         -1.0160    0.8940   -1.4580 n         1 MLM     -0.410000
      8 H2C1       -0.6650   -1.2670    0.2940 hc        1 MLM      0.098500
      9 H2C2        0.6470   -1.1300   -0.6070 hc        1 MLM      0.098500
     10 H6N1       -1.2400    0.1870   -1.9930 hn        1 MLM      0.212500
     11 H6N2       -1.2650    1.7420   -1.6920 hn        1 MLM      0.212500
@<TRIPOS>BOND
     1    1    3 1   
     2    1    4 1   
     3    4    5 1   
     4    4    8 1   
     5    4    9 1   
     6    5    6 1   
     7    5    7 1   
     8    7   10 1   
     9    7   11 1   
@<TRIPOS>SUBSTRUCTURE
     1 MLM         1 TEMP              0 ****  ****    0 ROOT
