@<TRIPOS>MOLECULE
MLM
   11    10     1     0     0
SMALL
bcc


@<TRIPOS>ATOM
      1 C1         -0.4560    0.5160   -0.9150 c         1 MLM      0.915600
      2 O1         -0.2740    0.2080   -2.1230 o         1 MLM     -0.838800
      3 O2         -0.3190    1.6900   -0.4570 o         1 MLM     -0.838800
      4 C2         -0.9200   -0.6090    0.0350 c3        1 MLM     -0.276400
      5 C3         -0.2280   -0.6180    1.3720 c         1 MLM      0.660100
      6 O3          0.2630   -1.6640    1.8630 o         1 MLM     -0.687100
      7 N6         -0.2040    0.5550    2.1050 n         1 MLM     -0.650000
      8 H2C1       -0.7490   -1.5990   -0.4590 hc        1 MLM      0.059200
      9 H2C2       -2.0190   -0.4740    0.1970 hc        1 MLM      0.059200
     10 H6N1        0.4390    0.5970    2.8590 hn        1 MLM      0.299000
     11 H6N2       -0.3290    1.3990    1.5780 hn        1 MLM      0.299000
@<TRIPOS>BOND
     1    1    2 1   
     2    1    3 1   
     3    1    4 1   
     4    4    5 1   
     5    4    8 1   
     6    4    9 1   
     7    5    6 2   
     8    5    7 1   
     9    7   10 1   
    10    7   11 1   
@<TRIPOS>SUBSTRUCTURE
     1 MLM         1 TEMP              0 ****  ****    0 ROOT
