@<TRIPOS>MOLECULE
MLN
   56    56     1     0     0
SMALL
bcc


@<TRIPOS>ATOM
      1 O3         -0.2010   -0.8900   -0.1800 o         1 MLN     -0.906500
      2 P1          1.0590   -0.3100    0.3930 p5        1 MLN      1.323900
      3 O1          1.1740   -0.4850    1.8990 o         1 MLN     -0.906500
      4 O2          2.2290   -1.5320   -0.0490 os        1 MLN     -0.554200
      5 O4          1.6120    0.9420   -0.2010 o         1 MLN     -0.906500
      6 C5          1.7650   -2.8150   -0.1210 c3        1 MLN      0.168100
      7 C6          2.0660   -3.6560    1.1580 c         1 MLN      0.616100
      8 C7          2.3930   -3.5550   -1.3110 c3        1 MLN     -0.078400
      9 C8          1.9400   -2.9360   -2.6140 c3        1 MLN     -0.082400
     10 C9          2.5320   -3.6570   -3.8060 c3        1 MLN     -0.076400
     11 C10         2.0840   -3.0390   -5.1060 c3        1 MLN     -0.086100
     12 O11         2.0510   -4.9200    1.1190 o         1 MLN     -0.756100
     13 N12         2.3330   -2.9640    2.3200 n         1 MLN     -0.564900
     14 C13         2.2080   -3.4680    3.6460 c3        1 MLN      0.072700
     15 C14         0.9650   -4.3110    3.9770 c3        1 MLN     -0.098400
     16 C15        -0.3540   -3.5490    3.9780 c3        1 MLN     -0.041700
     17 C16        -0.2260   -2.1070    4.4170 c3        1 MLN     -0.112600
     18 C17        -1.0420   -3.6150    2.6290 c3        1 MLN     -0.112600
     19 C18         3.4260   -4.3120    4.1350 c         1 MLN      0.654100
     20 N19         3.8360   -5.3770    3.3250 n         1 MLN     -0.456100
     21 O20         3.9660   -4.0680    5.2290 o         1 MLN     -0.621100
     22 C21         4.8700   -6.2610    3.5420 ca        1 MLN      0.170600
     23 C22         5.1250   -7.2690    2.5600 ca        1 MLN     -0.218000
     24 C23         6.1250   -8.2040    2.7340 ca        1 MLN     -0.032500
     25 C24         6.9200   -8.1770    3.8970 ca        1 MLN     -0.268200
     26 C25         6.6990   -7.1840    4.8710 ca        1 MLN     -0.032500
     27 C26         5.6990   -6.2470    4.6990 ca        1 MLN     -0.218000
     28 N27         7.9740   -9.1800    4.0920 no        1 MLN      0.326200
     29 O28         8.1540  -10.0310    3.2540 o         1 MLN     -0.252500
     30 O29         8.6510   -9.1510    5.0910 o         1 MLN     -0.252500
     31 HC51        0.6300   -2.8230   -0.2070 h1        1 MLN      0.095700
     32 HC71        3.5080   -3.4960   -1.2320 hc        1 MLN      0.024200
     33 HC72        2.0980   -4.6360   -1.2700 hc        1 MLN      0.024200
     34 HC81        0.8200   -2.9590   -2.6710 hc        1 MLN      0.066200
     35 HC82        2.2440   -1.8550   -2.6230 hc        1 MLN      0.066200
     36 HC91        3.6520   -3.6260   -3.7430 hc        1 MLN      0.018700
     37 HC92        2.2320   -4.7380   -3.7810 hc        1 MLN      0.018700
     38 H101        2.3880   -1.9660   -5.1520 hc        1 MLN      0.019700
     39 H102        2.5360   -3.5750   -5.9760 hc        1 MLN      0.019700
     40 H103        0.9720   -3.0880   -5.1990 hc        1 MLN      0.019700
     41 HN12        2.1470   -1.9310    2.2280 hn        1 MLN      0.422500
     42 HC13        2.2230   -2.5630    4.3350 h1        1 MLN      0.101700
     43 H141        1.1230   -4.7430    5.0020 hc        1 MLN      0.039700
     44 H142        0.8970   -5.1630    3.2490 hc        1 MLN      0.039700
     45 HC15       -1.0180   -4.0840    4.7230 hc        1 MLN     -0.004300
     46 H161        0.3510   -2.0340    5.3700 hc        1 MLN      0.049867
     47 H162        0.2770   -1.4840    3.6200 hc        1 MLN      0.049867
     48 H163       -1.2430   -1.6790    4.5910 hc        1 MLN      0.049867
     49 H171       -1.1410   -4.6730    2.2870 hc        1 MLN      0.049867
     50 H172       -2.0620   -3.1670    2.7030 hc        1 MLN      0.049867
     51 H173       -0.4690   -3.0360    1.8600 hc        1 MLN      0.049867
     52 HN19        3.3300   -5.4880    2.4540 hn        1 MLN      0.382500
     53 HC22        4.5160   -7.2980    1.6410 ha        1 MLN      0.173000
     54 HC23        6.3040   -8.9720    1.9640 ha        1 MLN      0.151500
     55 HC25        7.3290   -7.1540    5.7760 ha        1 MLN      0.151500
     56 HC26        5.5480   -5.4740    5.4720 ha        1 MLN      0.173000
@<TRIPOS>BOND
     1    1    2 1   
     2    2    3 1   
     3    2    4 1   
     4    2    5 1   
     5    4    6 1   
     6    6    7 1   
     7    6    8 1   
     8    6   31 1   
     9    7   12 2   
    10    7   13 1   
    11    8    9 1   
    12    8   32 1   
    13    8   33 1   
    14    9   10 1   
    15    9   34 1   
    16    9   35 1   
    17   10   11 1   
    18   10   36 1   
    19   10   37 1   
    20   11   38 1   
    21   11   39 1   
    22   11   40 1   
    23   13   14 1   
    24   13   41 1   
    25   14   15 1   
    26   14   19 1   
    27   14   42 1   
    28   15   16 1   
    29   15   43 1   
    30   15   44 1   
    31   16   17 1   
    32   16   18 1   
    33   16   45 1   
    34   17   46 1   
    35   17   47 1   
    36   17   48 1   
    37   18   49 1   
    38   18   50 1   
    39   18   51 1   
    40   19   20 1   
    41   19   21 2   
    42   20   22 1   
    43   20   52 1   
    44   22   23 ar  
    45   22   27 ar  
    46   23   24 ar  
    47   23   53 1   
    48   24   25 ar  
    49   24   54 1   
    50   25   26 ar  
    51   25   28 1   
    52   26   27 ar  
    53   26   55 1   
    54   27   56 1   
    55   28   29 1   
    56   28   30 1   
@<TRIPOS>SUBSTRUCTURE
     1 MLN         1 TEMP              0 ****  ****    0 ROOT
