@<TRIPOS>MOLECULE
MLN
   57    57     1     0     0
SMALL
bcc


@<TRIPOS>ATOM
      1 O3          1.2260    0.1920   -2.9550 o         1 MLN     -0.794000
      2 P1          2.3120    0.8110   -2.1760 p5        1 MLN      1.421800
      3 O1          3.1590    0.2040   -1.1510 o         1 MLN     -0.794000
      4 O2          1.8170    2.3120   -1.6540 os        1 MLN     -0.562200
      5 O4          3.3140    1.4750   -3.3860 os        1 MLN     -0.542500
      6 C5          2.4820    3.3900   -2.2460 c3        1 MLN      0.108100
      7 C6          3.3900    2.8080   -3.3280 c         1 MLN      0.718600
      8 C7          3.2880    4.1940   -1.2290 c3        1 MLN     -0.088400
      9 C8          2.3680    4.9620   -0.3060 c3        1 MLN     -0.074400
     10 C9          3.1510    5.6990    0.7600 c3        1 MLN     -0.080400
     11 C10         2.2430    6.4840    1.6710 c3        1 MLN     -0.090100
     12 O11         4.1200    3.4040   -4.1230 o         1 MLN     -0.638500
     13 N12         0.2490    0.4700   -5.7810 n8        1 MLN     -0.923800
     14 C13         0.9620   -0.7870   -5.8780 c3        1 MLN      0.106500
     15 C14         0.1220   -2.0050   -6.2880 c3        1 MLN     -0.088400
     16 C15        -0.5670   -2.6890   -5.1160 c3        1 MLN     -0.059700
     17 C16         0.4180   -3.4690   -4.2690 c3        1 MLN     -0.104100
     18 C17        -1.3430   -1.7230   -4.2470 c3        1 MLN     -0.104100
     19 C18         2.1250   -0.6170   -6.8930 c         1 MLN      0.675100
     20 N19         3.1440    0.2400   -6.4800 ns        1 MLN     -0.451100
     21 O20         2.1500   -1.2240   -7.9790 o         1 MLN     -0.619100
     22 C21         4.2970    0.5830   -7.1740 ca        1 MLN      0.142600
     23 C22         5.1830    1.5320   -6.5850 ca        1 MLN     -0.200000
     24 C23         6.3510    1.9040   -7.2230 ca        1 MLN     -0.041000
     25 C24         6.6810    1.3430   -8.4710 ca        1 MLN     -0.242200
     26 C25         5.8210    0.4060   -9.0680 ca        1 MLN     -0.041000
     27 C26         4.6480    0.0320   -8.4320 ca        1 MLN     -0.200000
     28 N27         7.9250    1.7380   -9.1530 no        1 MLN      0.322200
     29 O28         8.6590    2.5420   -8.6360 o         1 MLN     -0.240500
     30 O29         8.1960    1.2510  -10.2240 o         1 MLN     -0.240500
     31 HC51        1.7160    4.0620   -2.7320 h1        1 MLN      0.067700
     32 HC71        3.9340    3.5050   -0.6250 hc        1 MLN      0.056700
     33 HC72        3.9580    4.8970   -1.7890 hc        1 MLN      0.056700
     34 HC81        1.7610    5.6950   -0.8990 hc        1 MLN      0.046700
     35 HC82        1.6510    4.2440    0.1730 hc        1 MLN      0.046700
     36 HC91        3.7430    4.9610    1.3640 hc        1 MLN      0.037200
     37 HC92        3.8870    6.3920    0.2730 hc        1 MLN      0.037200
     38 H101        1.6640    7.2440    1.0910 hc        1 MLN      0.027033
     39 H102        2.8370    7.0140    2.4530 hc        1 MLN      0.027033
     40 H103        1.5160    5.8050    2.1790 hc        1 MLN      0.027033
     41 HN12        0.1860    0.7550   -4.8190 hn        1 MLN      0.373800
     42 HC13        1.4340   -1.0270   -4.8720 h1        1 MLN      0.116700
     43 H141       -0.6480   -1.7020   -7.0450 hc        1 MLN      0.049700
     44 H142        0.7940   -2.7520   -6.7920 hc        1 MLN      0.049700
     45 HC15       -1.2980   -3.4260   -5.5630 hc        1 MLN      0.024700
     46 H161        1.0250   -4.1570   -4.9040 hc        1 MLN      0.041200
     47 H162        1.1070   -2.7760   -3.7260 hc        1 MLN      0.041200
     48 H163       -0.1310   -4.0780   -3.5100 hc        1 MLN      0.041200
     49 H171       -1.9770   -2.2890   -3.5220 hc        1 MLN      0.041200
     50 H172       -2.0110   -1.0820   -4.8710 hc        1 MLN      0.041200
     51 H173       -0.6440   -1.0670   -3.6620 hc        1 MLN      0.041200
     52 HN19        3.0090    0.7120   -5.6020 hn        1 MLN      0.363500
     53 HC22        4.9340    1.9880   -5.6050 ha        1 MLN      0.188000
     54 HC23        7.0230    2.6420   -6.7520 ha        1 MLN      0.159000
     55 HC25        6.0770   -0.0340  -10.0470 ha        1 MLN      0.159000
     56 HC26        3.9890   -0.7040   -8.9220 ha        1 MLN      0.188000
     57 H122       -0.6690    0.3920   -6.1690 hn        1 MLN      0.373800
@<TRIPOS>BOND
     1    1    2 1   
     2    2    3 1   
     3    2    4 1   
     4    2    5 1   
     5    4    6 1   
     6    5    7 1   
     7    6    7 1   
     8    6    8 1   
     9    6   31 1   
    10    7   12 2   
    11    8    9 1   
    12    8   32 1   
    13    8   33 1   
    14    9   10 1   
    15    9   34 1   
    16    9   35 1   
    17   10   11 1   
    18   10   36 1   
    19   10   37 1   
    20   11   38 1   
    21   11   39 1   
    22   11   40 1   
    23   13   14 1   
    24   13   41 1   
    25   13   57 1   
    26   14   15 1   
    27   14   19 1   
    28   14   42 1   
    29   15   16 1   
    30   15   43 1   
    31   15   44 1   
    32   16   17 1   
    33   16   18 1   
    34   16   45 1   
    35   17   46 1   
    36   17   47 1   
    37   17   48 1   
    38   18   49 1   
    39   18   50 1   
    40   18   51 1   
    41   19   20 1   
    42   19   21 2   
    43   20   22 1   
    44   20   52 1   
    45   22   23 ar  
    46   22   27 ar  
    47   23   24 ar  
    48   23   53 1   
    49   24   25 ar  
    50   24   54 1   
    51   25   26 ar  
    52   25   28 1   
    53   26   27 ar  
    54   26   55 1   
    55   27   56 1   
    56   28   29 1   
    57   28   30 1   
@<TRIPOS>SUBSTRUCTURE
     1 MLN         1 TEMP              0 ****  ****    0 ROOT
