@<TRIPOS>MOLECULE
MLN
   56    56     1     0     0
SMALL
bcc


@<TRIPOS>ATOM
      1 O3          2.9380   -0.2370   -0.4480 o         1 MLN     -0.906500
      2 P1          4.2070   -0.8660    0.0480 p5        1 MLN      1.323900
      3 O1          4.7440   -1.9480   -0.8750 o         1 MLN     -0.906500
      4 O2          5.3810    0.3620   -0.3650 os        1 MLN     -0.554200
      5 O4          4.3920   -1.0560    1.5160 o         1 MLN     -0.906500
      6 C5          5.1060    1.1130   -1.4720 c3        1 MLN      0.168100
      7 C6          5.8580    0.6290   -2.7510 c         1 MLN      0.616100
      8 C7          5.4940    2.5810   -1.2460 c3        1 MLN     -0.078400
      9 C8          4.6240    3.1940   -0.1720 c3        1 MLN     -0.082400
     10 C9          4.9740    4.6490    0.0620 c3        1 MLN     -0.076400
     11 C10         4.1090    5.2620    1.1330 c3        1 MLN     -0.086100
     12 O11         6.0170    1.4020   -3.7400 o         1 MLN     -0.756100
     13 N12         6.3220   -0.6690   -2.7570 n         1 MLN     -0.564900
     14 C13         6.6310   -1.4470   -3.9100 c3        1 MLN      0.072700
     15 C14         5.6580   -1.3810   -5.0990 c3        1 MLN     -0.098400
     16 C15         4.2910   -2.0060   -4.8540 c3        1 MLN     -0.041700
     17 C16         4.3210   -3.1880   -3.9110 c3        1 MLN     -0.112600
     18 C17         3.2840   -0.9840   -4.3650 c3        1 MLN     -0.112600
     19 C18         8.0440   -1.1770   -4.5120 c         1 MLN      0.654100
     20 N19         8.3740    0.1510   -4.8090 n         1 MLN     -0.456100
     21 O20         8.8160   -2.1200   -4.7620 o         1 MLN     -0.621100
     22 C21         9.5450    0.6370   -5.3460 ca        1 MLN      0.170600
     23 C22         9.6730    2.0470   -5.5460 ca        1 MLN     -0.218000
     24 C23        10.8080    2.5920   -6.1100 ca        1 MLN     -0.032500
     25 C24        11.8720    1.7550   -6.5010 ca        1 MLN     -0.268200
     26 C25        11.7780    0.3650   -6.2990 ca        1 MLN     -0.032500
     27 C26        10.6420   -0.1830   -5.7340 ca        1 MLN     -0.218000
     28 N27        13.0740    2.3320   -7.1160 no        1 MLN      0.326200
     29 O28        13.1460    3.5240   -7.2890 o         1 MLN     -0.252500
     30 O29        13.9820    1.6080   -7.4480 o         1 MLN     -0.252500
     31 HC51        4.0040    1.0340   -1.7430 h1        1 MLN      0.095700
     32 HC71        6.5690    2.6330   -0.9360 hc        1 MLN      0.024200
     33 HC72        5.3820    3.1450   -2.2070 hc        1 MLN      0.024200
     34 HC81        4.7540    2.6070    0.7760 hc        1 MLN      0.066200
     35 HC82        3.5450    3.1040   -0.4660 hc        1 MLN      0.066200
     36 HC91        4.8530    5.2250   -0.8930 hc        1 MLN      0.018700
     37 HC92        6.0530    4.7300    0.3590 hc        1 MLN      0.018700
     38 H101        4.3850    6.3310    1.3030 hc        1 MLN      0.019700
     39 H102        3.0320    5.2160    0.8400 hc        1 MLN      0.019700
     40 H103        4.2300    4.7070    2.0960 hc        1 MLN      0.019700
     41 HN12        5.9690   -1.2300   -1.9370 hn        1 MLN      0.422500
     42 HC13        6.6970   -2.5260   -3.5590 h1        1 MLN      0.101700
     43 H141        5.5230   -0.3070   -5.4010 hc        1 MLN      0.039700
     44 H142        6.1460   -1.9220   -5.9550 hc        1 MLN      0.039700
     45 HC15        3.9360   -2.3740   -5.8640 hc        1 MLN     -0.004300
     46 H161        5.1140   -3.9140   -4.2110 hc        1 MLN      0.049867
     47 H162        4.4950   -2.8530   -2.8460 hc        1 MLN      0.049867
     48 H163        3.3360   -3.7150   -3.9420 hc        1 MLN      0.049867
     49 H171        3.5400   -0.6360   -3.3320 hc        1 MLN      0.049867
     50 H172        2.2670   -1.4440   -4.3270 hc        1 MLN      0.049867
     51 H173        3.2530   -0.1020   -5.0480 hc        1 MLN      0.049867
     52 HN19        7.6750    0.8430   -4.5640 hn        1 MLN      0.382500
     53 HC22        8.8510    2.7160   -5.2380 ha        1 MLN      0.173000
     54 HC23       10.8840    3.6830   -6.2550 ha        1 MLN      0.151500
     55 HC25       12.6150   -0.2900   -6.5920 ha        1 MLN      0.151500
     56 HC26       10.5920   -1.2750   -5.5790 ha        1 MLN      0.173000
@<TRIPOS>BOND
     1    1    2 1   
     2    2    3 1   
     3    2    4 1   
     4    2    5 1   
     5    4    6 1   
     6    6    7 1   
     7    6    8 1   
     8    6   31 1   
     9    7   12 2   
    10    7   13 1   
    11    8    9 1   
    12    8   32 1   
    13    8   33 1   
    14    9   10 1   
    15    9   34 1   
    16    9   35 1   
    17   10   11 1   
    18   10   36 1   
    19   10   37 1   
    20   11   38 1   
    21   11   39 1   
    22   11   40 1   
    23   13   14 1   
    24   13   41 1   
    25   14   15 1   
    26   14   19 1   
    27   14   42 1   
    28   15   16 1   
    29   15   43 1   
    30   15   44 1   
    31   16   17 1   
    32   16   18 1   
    33   16   45 1   
    34   17   46 1   
    35   17   47 1   
    36   17   48 1   
    37   18   49 1   
    38   18   50 1   
    39   18   51 1   
    40   19   20 1   
    41   19   21 2   
    42   20   22 1   
    43   20   52 1   
    44   22   23 ar  
    45   22   27 ar  
    46   23   24 ar  
    47   23   53 1   
    48   24   25 ar  
    49   24   54 1   
    50   25   26 ar  
    51   25   28 1   
    52   26   27 ar  
    53   26   55 1   
    54   27   56 1   
    55   28   29 1   
    56   28   30 1   
@<TRIPOS>SUBSTRUCTURE
     1 MLN         1 TEMP              0 ****  ****    0 ROOT
