@<TRIPOS>MOLECULE
MLO
   38    39     1     0     0
SMALL
bcc


@<TRIPOS>ATOM
      1 CAA         5.8310    0.5850    1.9490 c2        1 MLO     -0.227000
      2 CAB        -5.4150    2.3610   -1.5160 c2        1 MLO     -0.227000
      3 OAD         0.3240   -0.5180    2.3710 oh        1 MLO     -0.499100
      4 CAE         4.5560    0.7000    1.5880 c2        1 MLO     -0.159200
      5 CAF        -4.9470    1.5480   -0.5720 c2        1 MLO     -0.159200
      6 CAG         2.2290   -0.6240   -2.2270 ca        1 MLO     -0.215500
      7 CAH        -2.0850   -0.3700    2.1720 ca        1 MLO     -0.215500
      8 CAI         3.2530    0.0530   -1.5740 ca        1 MLO     -0.086000
      9 CAJ        -3.2050   -0.1700    1.3730 ca        1 MLO     -0.086000
     10 CAK         1.7420    0.5990    0.2280 ca        1 MLO     -0.068500
     11 CAL        -1.7830    0.0810   -0.5620 ca        1 MLO     -0.068500
     12 CAM         4.1070    1.4060    0.3590 c3        1 MLO     -0.003400
     13 CAN        -4.2640    0.2590   -0.8560 c3        1 MLO     -0.003400
     14 CAO         0.9520   -0.6850   -1.6500 ca        1 MLO      0.129600
     15 CAP        -0.8040   -0.3400    1.5990 ca        1 MLO      0.129600
     16 CAQ         3.0160    0.6700   -0.3430 ca        1 MLO     -0.111800
     17 CAR        -3.0610    0.0580    0.0000 ca        1 MLO     -0.111800
     18 CAS         0.6890   -0.0740   -0.4040 cp        1 MLO     -0.046500
     19 CAT        -0.6330   -0.1160    0.2150 cp        1 MLO     -0.046500
     20 HAA         6.1330    0.0730    2.8710 ha        1 MLO      0.110750
     21 HAAA        6.6590    0.9900    1.3530 ha        1 MLO      0.110750
     22 HAB        -5.9300    3.3000   -1.2760 ha        1 MLO      0.110750
     23 HABA       -5.3170    2.1480   -2.5880 ha        1 MLO      0.110750
     24 HOAC        0.2820   -1.8020   -3.0490 ho        1 MLO      0.417000
     25 HOAD        0.0360   -0.7830    3.2570 ho        1 MLO      0.417000
     26 HAE         3.7430    0.2750    2.2010 ha        1 MLO      0.125000
     27 HAF        -5.0500    1.7930    0.4990 ha        1 MLO      0.125000
     28 HAG         2.4170   -1.1130   -3.1940 ha        1 MLO      0.132000
     29 HAH        -2.1990   -0.5530    3.2500 ha        1 MLO      0.132000
     30 HAI         4.2530    0.0990   -2.0310 ha        1 MLO      0.133000
     31 HAJ        -4.2090   -0.1920    1.8220 ha        1 MLO      0.133000
     32 HAK         1.5590    1.0720    1.2080 ha        1 MLO      0.150000
     33 HAL        -1.6650    0.2440   -1.6470 ha        1 MLO      0.150000
     34 HAM         3.7280    2.4250    0.6540 hc        1 MLO      0.053950
     35 HAMA        4.9720    1.5660   -0.3400 hc        1 MLO      0.053950
     36 HAN        -4.9940   -0.5780   -0.6620 hc        1 MLO      0.053950
     37 HANA       -3.9770    0.1980   -1.9410 hc        1 MLO      0.053950
     38 OAC        -0.0850   -1.3350   -2.2830 oh        1 MLO     -0.499100
@<TRIPOS>BOND
     1    1    4 2   
     2    1   20 1   
     3    1   21 1   
     4    2    5 2   
     5    2   22 1   
     6    2   23 1   
     7    3   15 1   
     8    3   25 1   
     9    4   12 1   
    10    4   26 1   
    11    5   13 1   
    12    5   27 1   
    13    6    8 ar  
    14    6   14 ar  
    15    6   28 1   
    16    7    9 ar  
    17    7   15 ar  
    18    7   29 1   
    19    8   16 ar  
    20    8   30 1   
    21    9   17 ar  
    22    9   31 1   
    23   10   16 ar  
    24   10   18 ar  
    25   10   32 1   
    26   11   17 ar  
    27   11   19 ar  
    28   11   33 1   
    29   12   16 1   
    30   12   34 1   
    31   12   35 1   
    32   13   17 1   
    33   13   36 1   
    34   13   37 1   
    35   14   18 ar  
    36   14   38 1   
    37   15   19 ar  
    38   18   19 1   
    39   24   38 1   
@<TRIPOS>SUBSTRUCTURE
     1 MLO         1 TEMP              0 ****  ****    0 ROOT
