@<TRIPOS>MOLECULE
MLO
   38    39     1     0     0
SMALL
bcc


@<TRIPOS>ATOM
      1 CAA         1.2890    1.5700    0.4440 c1        1 MLO     -0.045000
      2 CAB         7.8560    2.3500   -0.0980 c2        1 MLO     -0.228000
      3 OAD         6.7550   -2.8620   -1.7090 oh        1 MLO     -0.304000
      4 CAE         2.0570    0.3500    0.3860 c3        1 MLO     -0.251000
      5 CAF         8.4890    1.1800   -0.0840 c2        1 MLO     -0.161000
      6 CAG         3.4210   -3.9590    1.2460 c1        1 MLO     -0.120000
      7 CAH         8.7920   -2.5020   -0.5470 c1        1 MLO     -0.158000
      8 CAI         2.6690   -2.8420    1.6380 c2        1 MLO     -0.237000
      9 CAJ         9.3820   -1.6800    0.1270 c1        1 MLO     -0.186000
     10 CAK         4.5630   -1.3830    1.1470 c2        1 MLO     -0.192000
     11 CAL         7.4980   -1.2800    1.4000 c2        1 MLO     -0.124000
     12 CAM         2.3410   -0.3600    1.7000 c3        1 MLO     -0.181000
     13 CAN         9.1520    0.6190    1.1180 c3        1 MLO     -0.124000
     14 CAO         4.8740   -3.8290    1.0530 c3        1 MLO      0.008000
     15 CAP         7.4460   -3.0500   -0.4960 c3        1 MLO      0.221000
     16 CAQ         3.1790   -1.5720    1.5050 c2        1 MLO      0.061000
     17 CAR         8.9750   -0.8830    1.2660 c3        1 MLO      0.065000
     18 CAS         5.4050   -2.4250    0.9090 c2        1 MLO      0.004000
     19 CAT         6.8240   -2.1940    0.6560 c2        1 MLO     -0.130000
     20 HAA         1.5010   -0.3410   -0.3180 hc        1 MLO      0.158000
     21 HAAA        0.9430    1.9020    1.4350 ha        1 MLO      0.041000
     22 HAB         7.3960    2.7530   -1.0100 ha        1 MLO      0.111500
     23 HABA        7.7580    2.9880    0.7900 ha        1 MLO      0.111500
     24 HOAC        4.6050   -5.2790   -0.2080 ho        1 MLO      0.240000
     25 HOAD        5.9680   -3.4250   -1.6660 ho        1 MLO      0.225000
     26 HAE         3.0270    0.5980   -0.1400 hc        1 MLO      0.158000
     27 HAF         8.5730    0.5590   -0.9930 ha        1 MLO      0.143000
     28 HAG         5.3400   -4.2500    2.0100 h1        1 MLO      0.146000
     29 HAH         7.4470   -4.1360   -0.1900 h1        1 MLO      0.127000
     30 HAI         1.6250   -3.0010    1.9540 ha        1 MLO      0.154000
     31 HAJ         9.5150   -1.2150    2.2010 hc        1 MLO      0.119000
     32 HAK         4.9280   -0.3440    1.0760 ha        1 MLO      0.147000
     33 HAL         6.9880   -0.7340    2.2100 ha        1 MLO      0.136000
     34 HAM         2.8750    0.3430    2.3950 hc        1 MLO      0.102500
     35 HAMA        1.3690   -0.6400    2.1890 hc        1 MLO      0.102500
     36 HAN         8.7700    1.1160    2.0500 hc        1 MLO      0.097000
     37 HANA       10.2550    0.8330    1.0480 hc        1 MLO      0.097000
     38 OAC         5.3180   -4.6490   -0.0230 oh        1 MLO     -0.334000
@<TRIPOS>BOND
     1    1    4 1   
     2    1   21 1   
     3    2    5 1   
     4    2   22 1   
     5    2   23 1   
     6    3   15 1   
     7    3   25 1   
     8    4   12 1   
     9    4   20 1   
    10    4   26 1   
    11    5   13 1   
    12    5   27 1   
    13    6    8 1   
    14    6   14 1   
    15    7    9 1   
    16    7   15 1   
    17    8   16 1   
    18    8   30 1   
    19    9   17 1   
    20   10   16 1   
    21   10   18 1   
    22   10   32 1   
    23   11   17 1   
    24   11   19 1   
    25   11   33 1   
    26   12   16 1   
    27   12   34 1   
    28   12   35 1   
    29   13   17 1   
    30   13   36 1   
    31   13   37 1   
    32   14   18 1   
    33   14   28 1   
    34   14   38 1   
    35   15   19 1   
    36   15   29 1   
    37   17   31 1   
    38   18   19 1   
    39   24   38 1   
@<TRIPOS>SUBSTRUCTURE
     1 MLO         1 TEMP              0 ****  ****    0 ROOT
