@<TRIPOS>MOLECULE
MLO
   38    30     1     0     0
SMALL
bcc


@<TRIPOS>ATOM
      1 CAA        -6.4040   -0.1450   -0.9590 c1        1 MLO     -0.190500
      2 CAB         5.7090    1.8440    2.0930 c1        1 MLO     -0.190500
      3 OAC         0.4410   -2.8630    0.9120 oh        1 MLO     -0.252000
      4 OAD         0.4540   -0.9100   -2.8240 oh        1 MLO     -0.252000
      5 CAE        -5.0930   -0.4550   -0.9250 c1        1 MLO     -0.190500
      6 CAF         4.8920    1.4010    1.1170 c1        1 MLO     -0.190500
      7 CAG        -1.6670   -2.3450    1.1760 c1        1 MLO     -0.215500
      8 CAH         2.3070    0.3060   -2.2190 c1        1 MLO     -0.215500
      9 CAI        -2.8620   -1.7190    0.8580 c1        1 MLO     -0.086000
     10 CAJ         3.1000    1.0370   -1.3480 c1        1 MLO     -0.086000
     11 CAK        -1.6540   -0.0000   -0.3030 c1        1 MLO     -0.069000
     12 CAL         1.5320    0.6260    0.4230 c1        1 MLO     -0.069000
     13 CAM        -4.2000    0.1460    0.1380 c2        1 MLO     -0.093000
     14 CAN         3.5430    2.0510    0.9070 c2        1 MLO     -0.093000
     15 CAO        -0.4650   -1.7980    0.7540 c2        1 MLO      0.084500
     16 CAP         1.1280   -0.2660   -1.7690 c2        1 MLO      0.084500
     17 CAQ        -2.8550   -0.5470    0.1190 c1        1 MLO     -0.104500
     18 CAR         2.7120    1.1980   -0.0270 c1        1 MLO     -0.104500
     19 CAS        -0.4580   -0.6260    0.0150 c1        1 MLO     -0.047000
     20 CAT         0.7400   -0.1060   -0.4480 c1        1 MLO     -0.047000
     21 HAA        -6.7790    0.4680   -0.2960 DU        1 MLO      0.109500
     22 HAAA       -6.9810   -0.5340   -1.6470 ha        1 MLO      0.118500
     23 HAB         5.4280    2.5860    2.6660 DU        1 MLO      0.109500
     24 HABA        6.5810    1.4240    2.2290 ha        1 MLO      0.118500
     25 HOAC        0.6030   -2.9880    1.7780 ho        1 MLO      0.216500
     26 HOAD        0.9970   -1.5030   -3.2030 ho        1 MLO      0.216500
     27 HAE        -4.7190   -1.0680   -1.5870 ha        1 MLO      0.118500
     28 HAF         5.1720    0.6610    0.5450 ha        1 MLO      0.118500
     29 HAG        -1.6720   -3.1710    1.6970 ha        1 MLO      0.132000
     30 HAH         2.5810    0.1930   -3.1500 ha        1 MLO      0.132000
     31 HAI        -3.7090   -2.1040    1.1550 ha        1 MLO      0.133000
     32 HAJ         3.9300    1.4400   -1.6650 ha        1 MLO      0.133000
     33 HAK        -1.6490    0.8260   -0.8240 ha        1 MLO      0.150500
     34 HAL         1.2590    0.7390    1.3540 ha        1 MLO      0.150500
     35 HAM        -4.6150    0.0280    1.0160 ha        1 MLO      0.092500
     36 HAMA       -4.0780    1.1000   -0.0400 ha        1 MLO      0.092500
     37 HAN         3.6660    2.9390    0.5140 ha        1 MLO      0.092500
     38 HANA        3.0840    2.1360    1.7660 ha        1 MLO      0.092500
@<TRIPOS>BOND
     1    1    5 1   
     2    1   22 1   
     3    2    6 1   
     4    2   24 1   
     5    3   15 1   
     6    3   25 1   
     7    4   16 1   
     8    4   26 1   
     9    5   27 1   
    10    6   28 1   
    11    7   15 1   
    12    7   29 1   
    13    8   16 1   
    14    8   30 1   
    15    9   17 1   
    16    9   31 1   
    17   10   18 1   
    18   10   32 1   
    19   11   19 1   
    20   11   33 1   
    21   12   20 1   
    22   12   34 1   
    23   13   17 1   
    24   13   35 1   
    25   13   36 1   
    26   14   18 1   
    27   14   37 1   
    28   14   38 1   
    29   15   19 1   
    30   16   20 1   
@<TRIPOS>SUBSTRUCTURE
     1 MLO         1 TEMP              0 ****  ****    0 ROOT
