@<TRIPOS>MOLECULE
MLO
   38    39     1     0     0
SMALL
bcc


@<TRIPOS>ATOM
      1 CAA         0.4620    0.7510   -0.3050 c1        1 MLO     -0.041000
      2 CAB         9.8460    2.5060    1.7290 c2        1 MLO     -0.224000
      3 OAD         6.0810   -3.3780   -1.4080 oh        1 MLO     -0.317000
      4 CAE         1.3330   -0.3860   -0.0730 c3        1 MLO     -0.245000
      5 CAF         9.7900    1.5560    0.7990 c2        1 MLO     -0.156000
      6 CAG         3.6860   -3.6210    2.2620 c1        1 MLO     -0.120000
      7 CAH         8.0130   -2.0630   -1.5360 c2        1 MLO     -0.089000
      8 CAI         2.7120   -2.6080    2.2400 c2        1 MLO     -0.240000
      9 CAJ         8.7450   -1.1780   -0.8820 c1        1 MLO     -0.165000
     10 CAK         4.1860   -1.1810    0.9160 c2        1 MLO     -0.189000
     11 CAL         7.2110   -0.6520    0.7510 c2        1 MLO     -0.099000
     12 CAM         1.8330   -0.4330    1.3630 c3        1 MLO     -0.138000
     13 CAN         9.6420    0.1080    1.1080 c3        1 MLO     -0.084000
     14 CAO         5.0560   -3.2990    1.8340 c3        1 MLO      0.003000
     15 CAP         7.0820   -2.8020   -0.5910 c3        1 MLO      0.103000
     16 CAQ         2.9090   -1.4450    1.5360 c2        1 MLO      0.060000
     17 CAR         8.6060   -0.5300    0.2720 c2        1 MLO     -0.035000
     18 CAS         5.2200   -2.0590    0.9950 c2        1 MLO      0.003000
     19 CAT         6.5160   -1.7640    0.3990 c2        1 MLO     -0.117000
     20 HAA         0.8480   -1.3700   -0.3330 hc        1 MLO      0.124500
     21 HAAA       -0.0950    0.7230   -1.2560 ha        1 MLO      0.040000
     22 HAB         9.9810    3.5650    1.4740 ha        1 MLO      0.112500
     23 HABA        9.7660    2.2960    2.8040 ha        1 MLO      0.112500
     24 HOAC        5.1790   -5.1950    1.4570 ho        1 MLO      0.238000
     25 HOAD        5.5530   -3.9530   -0.8370 ho        1 MLO      0.224000
     26 HAE         2.2130   -0.2690   -0.7770 hc        1 MLO      0.124500
     27 HAF         9.8700    1.7950   -0.2740 ha        1 MLO      0.130000
     28 HAG         5.6160   -3.0900    2.8120 h1        1 MLO      0.148000
     29 HAH         7.5970   -3.6000    0.0170 h1        1 MLO      0.117000
     30 HAI         1.7450   -2.8110    2.7300 ha        1 MLO      0.154000
     31 HAJ         7.9200   -2.2170   -2.6140 ha        1 MLO      0.173000
     32 HAK         4.2990   -0.2330    0.3650 ha        1 MLO      0.149000
     33 HAL         6.8320    0.0940    1.4610 ha        1 MLO      0.144000
     34 HAM         2.2270    0.5800    1.6510 hc        1 MLO      0.115500
     35 HAMA        0.9710   -0.6610    2.0450 hc        1 MLO      0.115500
     36 HAN         9.3890   -0.0400    2.1940 hc        1 MLO      0.100500
     37 HANA       10.6320   -0.3960    0.9210 hc        1 MLO      0.100500
     38 OAC         5.6950   -4.4110    1.2180 oh        1 MLO     -0.331000
@<TRIPOS>BOND
     1    1    4 1   
     2    1   21 1   
     3    2    5 1   
     4    2   22 1   
     5    2   23 1   
     6    3   15 1   
     7    3   25 1   
     8    4   12 1   
     9    4   20 1   
    10    4   26 1   
    11    5   13 1   
    12    5   27 1   
    13    6    8 1   
    14    6   14 1   
    15    7    9 1   
    16    7   15 1   
    17    7   31 1   
    18    8   16 1   
    19    8   30 1   
    20    9   17 1   
    21   10   16 1   
    22   10   18 1   
    23   10   32 1   
    24   11   17 1   
    25   11   19 1   
    26   11   33 1   
    27   12   16 1   
    28   12   34 1   
    29   12   35 1   
    30   13   17 1   
    31   13   36 1   
    32   13   37 1   
    33   14   18 1   
    34   14   28 1   
    35   14   38 1   
    36   15   19 1   
    37   15   29 1   
    38   18   19 1   
    39   24   38 1   
@<TRIPOS>SUBSTRUCTURE
     1 MLO         1 TEMP              0 ****  ****    0 ROOT
