@<TRIPOS>MOLECULE
MLP
   14    14     1     0     0
SMALL
bcc


@<TRIPOS>ATOM
      1 C1         -1.8330   -0.7070    0.7970 cx        1 MLP     -0.155900
      2 C2         -1.8520   -0.8160   -0.7000 cx        1 MLP     -0.155900
      3 C3         -1.0870    0.2930   -0.0390 cx        1 MLP     -0.017000
      4 N4         -1.4150    1.6720   -0.0910 n3        1 MLP     -0.873800
      5 P5          0.6790   -0.0680   -0.0240 p5        1 MLP      1.215700
      6 O6          1.3080    1.2660   -0.3870 o         1 MLP     -0.949833
      7 O7          0.8620   -1.1280   -1.0910 o         1 MLP     -0.949833
      8 O8          0.9730   -0.5580    1.3760 o         1 MLP     -0.949833
      9 H11        -1.1810   -1.3810    1.3880 hc        1 MLP      0.045700
     10 H12        -2.7690   -0.4400    1.3170 hc        1 MLP      0.045700
     11 H21        -2.8030   -0.6130   -1.2250 hc        1 MLP      0.045700
     12 H22        -1.2240   -1.5830   -1.2000 hc        1 MLP      0.045700
     13 HN41       -0.5450    2.1710   -0.2490 hn        1 MLP      0.328300
     14 HN42       -2.0250    1.8540   -0.8700 hn        1 MLP      0.328300
@<TRIPOS>BOND
     1    1    2 1   
     2    1    3 1   
     3    1    9 1   
     4    1   10 1   
     5    2    3 1   
     6    2   11 1   
     7    2   12 1   
     8    3    4 1   
     9    3    5 1   
    10    4   13 1   
    11    4   14 1   
    12    5    6 1   
    13    5    7 1   
    14    5    8 1   
@<TRIPOS>SUBSTRUCTURE
     1 MLP         1 TEMP              0 ****  ****    0 ROOT
