@<TRIPOS>MOLECULE
MLT
   13    12     1     0     0
SMALL
bcc


@<TRIPOS>ATOM
      1 C1          0.0790   -0.2840   -0.0800 c         1 MLT      0.881600
      2 O1         -0.6220    0.0250    0.9370 o         1 MLT     -0.876300
      3 O2         -0.4360   -0.7360   -1.1430 o         1 MLT     -0.876300
      4 C2          1.6110   -0.1100    0.0320 c3        1 MLT      0.044100
      5 O3          1.9880   -0.1440    1.4070 oh        1 MLT     -0.640800
      6 C3          2.0610    1.1860   -0.6260 c3        1 MLT     -0.184400
      7 C4          3.5470    1.2680   -0.9780 c         1 MLT      0.909600
      8 O4          4.1520    0.2690   -1.4720 o         1 MLT     -0.886800
      9 O5          4.1360    2.3860   -0.8140 o         1 MLT     -0.886800
     10 H2          2.1470   -0.9770   -0.4390 h1        1 MLT      0.070700
     11 HO3         1.2770    0.2990    1.8900 ho        1 MLT      0.396000
     12 H31         1.4890    1.3000   -1.5840 hc        1 MLT      0.025700
     13 H32         1.8010    2.0470    0.0410 hc        1 MLT      0.025700
@<TRIPOS>BOND
     1    1    2 1   
     2    1    3 1   
     3    1    4 1   
     4    4    5 1   
     5    4    6 1   
     6    4   10 1   
     7    5   11 1   
     8    6    7 1   
     9    6   12 1   
    10    6   13 1   
    11    7    8 1   
    12    7    9 1   
@<TRIPOS>SUBSTRUCTURE
     1 MLT         1 TEMP              0 ****  ****    0 ROOT
