@<TRIPOS>MOLECULE
MLT
   13    12     1     0     0
SMALL
bcc


@<TRIPOS>ATOM
      1 C1          1.8700    0.1860    0.0760 c         1 MLT      0.881600
      2 O1          2.5820   -0.2920   -0.8660 o         1 MLT     -0.876300
      3 O2          2.3000    1.0790    0.8620 o         1 MLT     -0.876300
      4 C2          0.4450   -0.3860    0.2500 c3        1 MLT      0.044100
      5 O3          0.3890   -1.6900   -0.3250 oh        1 MLT     -0.640800
      6 C3         -0.5900    0.5340   -0.3790 c3        1 MLT     -0.184400
      7 C4         -2.0310    0.3310    0.0940 c         1 MLT      0.909600
      8 O4         -2.2870    0.1220    1.3180 o         1 MLT     -0.886800
      9 O5         -2.9610    0.4380   -0.7700 o         1 MLT     -0.886800
     10 H2          0.2040   -0.5360    1.3370 h1        1 MLT      0.070700
     11 HO3         0.9540   -1.6600   -1.1100 ho        1 MLT      0.396000
     12 H31        -0.3070    1.5900   -0.1290 hc        1 MLT      0.025700
     13 H32        -0.5580    0.4180   -1.4920 hc        1 MLT      0.025700
@<TRIPOS>BOND
     1    1    2 1   
     2    1    3 1   
     3    1    4 1   
     4    4    5 1   
     5    4    6 1   
     6    4   10 1   
     7    5   11 1   
     8    6    7 1   
     9    6   12 1   
    10    6   13 1   
    11    7    8 1   
    12    7    9 1   
@<TRIPOS>SUBSTRUCTURE
     1 MLT         1 TEMP              0 ****  ****    0 ROOT
