@<TRIPOS>MOLECULE
MLU
   24    23     1     0     0
SMALL
bcc


@<TRIPOS>ATOM
      1 N           0.5110   -1.5370   -0.5140 n3        1 MLU     -0.806200
      2 CN          1.4390   -2.4320    0.1350 c3        1 MLU      0.154100
      3 CA          0.3700   -0.2670    0.2010 c3        1 MLU      0.026500
      4 C           1.6390    0.6500    0.1360 c         1 MLU      0.890600
      5 O           2.4680    0.4640   -0.8010 o         1 MLU     -0.843800
      6 CB         -0.8070    0.5620   -0.3210 c3        1 MLU     -0.052400
      7 CG         -2.1700   -0.0450   -0.0210 c3        1 MLU     -0.070700
      8 CD1        -2.5570    0.1620    1.4290 c3        1 MLU     -0.083100
      9 CD2        -3.2240    0.5610   -0.9270 c3        1 MLU     -0.083100
     10 OXT         1.7590    1.5290    1.0330 o         1 MLU     -0.843800
     11 H           0.8670   -1.3210   -1.4330 hn        1 MLU      0.353800
     12 HCN1        1.5520   -3.3530   -0.4960 h1        1 MLU      0.015033
     13 HCN2        2.4570   -1.9820    0.2970 h1        1 MLU      0.015033
     14 HCN3        1.0240   -2.7330    1.1330 h1        1 MLU      0.015033
     15 HA          0.1860   -0.5000    1.2880 h1        1 MLU      0.041700
     16 HB2        -0.7340    1.5750    0.1580 hc        1 MLU      0.043700
     17 HB3        -0.7010    0.7030   -1.4280 hc        1 MLU      0.043700
     18 HG         -2.1270   -1.1520   -0.2220 hc        1 MLU      0.057700
     19 HD11       -2.6350    1.2520    1.6630 hc        1 MLU      0.021033
     20 HD12       -3.5430   -0.3170    1.6430 hc        1 MLU      0.021033
     21 HD13       -1.7880   -0.2860    2.1030 hc        1 MLU      0.021033
     22 HD21       -2.9890    0.3420   -1.9960 hc        1 MLU      0.021033
     23 HD22       -4.2320    0.1410   -0.6930 hc        1 MLU      0.021033
     24 HD23       -3.2630    1.6690   -0.7950 hc        1 MLU      0.021033
@<TRIPOS>BOND
     1    1    2 1   
     2    1    3 1   
     3    1   11 1   
     4    2   12 1   
     5    2   13 1   
     6    2   14 1   
     7    3    4 1   
     8    3    6 1   
     9    3   15 1   
    10    4    5 1   
    11    4   10 1   
    12    6    7 1   
    13    6   16 1   
    14    6   17 1   
    15    7    8 1   
    16    7    9 1   
    17    7   18 1   
    18    8   19 1   
    19    8   20 1   
    20    8   21 1   
    21    9   22 1   
    22    9   23 1   
    23    9   24 1   
@<TRIPOS>SUBSTRUCTURE
     1 MLU         1 TEMP              0 ****  ****    0 ROOT
