@<TRIPOS>MOLECULE
MLY
   29    28     1     0     0
SMALL
bcc


@<TRIPOS>ATOM
      1 N          -1.8990    0.1750   -2.3500 n3        1 MLY     -0.892800
      2 CA         -0.4630    0.3990   -2.2420 c3        1 MLY      0.018500
      3 CB          0.1530   -0.2070   -0.9800 c3        1 MLY     -0.063400
      4 CG         -0.3710    0.4340    0.2860 c3        1 MLY     -0.076400
      5 CD          0.3210   -0.1300    1.5110 c3        1 MLY     -0.082400
      6 CE         -0.2990    0.4560    2.7760 c3        1 MLY      0.167800
      7 NZ          0.3970    0.1290    4.0160 n3        1 MLY     -0.738600
      8 CH1        -0.2610    0.7070    5.1660 c3        1 MLY      0.159600
      9 CH2         0.6730   -1.2780    4.1800 c3        1 MLY      0.159600
     10 C           0.3620   -0.1020   -3.4750 c         1 MLY      0.887600
     11 O          -0.2660   -0.6330   -4.4350 o         1 MLY     -0.844800
     12 OXT         1.6120    0.0700   -3.4490 o         1 MLY     -0.844800
     13 H          -2.0780   -0.8060   -2.2210 hn        1 MLY      0.329800
     14 H2         -2.1600    0.3830   -3.3010 hn        1 MLY      0.329800
     15 HA         -0.3190    1.5180   -2.2000 h1        1 MLY      0.040700
     16 HB2         1.2640   -0.0630   -1.0540 hc        1 MLY      0.046200
     17 HB3        -0.0400   -1.3110   -0.9520 hc        1 MLY      0.046200
     18 HG2        -1.4770    0.2670    0.3680 hc        1 MLY      0.036700
     19 HG3        -0.2070    1.5430    0.2390 hc        1 MLY      0.036700
     20 HD2         1.4160    0.1050    1.4680 hc        1 MLY      0.041700
     21 HD3         0.2160   -1.2470    1.5150 hc        1 MLY      0.041700
     22 HE2        -1.3810    0.1320    2.8210 h1        1 MLY      0.026700
     23 HE3        -0.2890    1.5810    2.6880 h1        1 MLY      0.026700
     24 HH11        0.3710    0.5290    6.0750 h1        1 MLY      0.024700
     25 HH12       -0.3640    1.8130    5.0100 h1        1 MLY      0.024700
     26 HH13       -1.2850    0.2810    5.3580 h1        1 MLY      0.024700
     27 HH21        1.3720   -1.6040    3.3650 h1        1 MLY      0.024700
     28 HH22        1.1760   -1.4450    5.1680 h1        1 MLY      0.024700
     29 HH23       -0.2490   -1.9220    4.1390 h1        1 MLY      0.024700
@<TRIPOS>BOND
     1    1    2 1   
     2    1   13 1   
     3    1   14 1   
     4    2    3 1   
     5    2   10 1   
     6    2   15 1   
     7    3    4 1   
     8    3   16 1   
     9    3   17 1   
    10    4    5 1   
    11    4   18 1   
    12    4   19 1   
    13    5    6 1   
    14    5   20 1   
    15    5   21 1   
    16    6    7 1   
    17    6   22 1   
    18    6   23 1   
    19    7    8 1   
    20    7    9 1   
    21    8   24 1   
    22    8   25 1   
    23    8   26 1   
    24    9   27 1   
    25    9   28 1   
    26    9   29 1   
    27   10   11 1   
    28   10   12 1   
@<TRIPOS>SUBSTRUCTURE
     1 MLY         1 TEMP              0 ****  ****    0 ROOT
