@<TRIPOS>MOLECULE
MLZ
   26    25     1     0     0
SMALL
bcc


@<TRIPOS>ATOM
      1 N           0.2770   -2.2150   -2.5540 n3        1 MLZ     -0.892800
      2 CA          0.1620   -0.7620   -2.5610 c3        1 MLZ      0.018500
      3 CB          1.2500   -0.0630   -1.7450 c3        1 MLZ     -0.064400
      4 CG          1.1440   -0.3620   -0.2660 c3        1 MLZ     -0.074400
      5 CD          2.1630    0.4320    0.5260 c3        1 MLZ     -0.086400
      6 CE          2.0010    0.1600    2.0190 c3        1 MLZ      0.156800
      7 NZ          2.9440    0.8840    2.8530 n3        1 MLZ     -0.829200
      8 CM          2.5440    0.9770    4.2300 c3        1 MLZ      0.157100
      9 C           0.1370   -0.1220   -3.9900 c         1 MLZ      0.887600
     10 O           0.1950   -0.8950   -4.9890 o         1 MLZ     -0.844800
     11 OXT         0.0370    1.1340   -4.0650 o         1 MLZ     -0.844800
     12 H          -0.3030   -2.5620   -3.3010 hn        1 MLZ      0.329800
     13 H2          1.2210   -2.4610   -2.7980 hn        1 MLZ      0.329800
     14 HA         -0.8370   -0.5220   -2.0930 h1        1 MLZ      0.039700
     15 HB2         2.2640   -0.3610   -2.1180 hc        1 MLZ      0.046700
     16 HB3         1.1370    1.0400   -1.9250 hc        1 MLZ      0.046700
     17 HG2         1.2980   -1.4580   -0.0840 hc        1 MLZ      0.036700
     18 HG3         0.1110   -0.1100    0.0920 hc        1 MLZ      0.036700
     19 HD2         2.0280    1.5260    0.3170 hc        1 MLZ      0.040700
     20 HD3         3.1970    0.1540    0.1960 hc        1 MLZ      0.040700
     21 HE2         0.9310    0.3890    2.3060 h1        1 MLZ      0.027200
     22 HE3         2.1660   -0.9380    2.2130 h1        1 MLZ      0.027200
     23 HZ          3.1150    1.7980    2.4740 hn        1 MLZ      0.353800
     24 HCM1        1.5640    1.5090    4.3890 h1        1 MLZ      0.020367
     25 HCM2        3.3380    1.5240    4.8010 h1        1 MLZ      0.020367
     26 HCM3        2.4440   -0.0580    4.6510 h1        1 MLZ      0.020367
@<TRIPOS>BOND
     1    1    2 1   
     2    1   12 1   
     3    1   13 1   
     4    2    3 1   
     5    2    9 1   
     6    2   14 1   
     7    3    4 1   
     8    3   15 1   
     9    3   16 1   
    10    4    5 1   
    11    4   17 1   
    12    4   18 1   
    13    5    6 1   
    14    5   19 1   
    15    5   20 1   
    16    6    7 1   
    17    6   21 1   
    18    6   22 1   
    19    7    8 1   
    20    7   23 1   
    21    8   24 1   
    22    8   25 1   
    23    8   26 1   
    24    9   10 1   
    25    9   11 1   
@<TRIPOS>SUBSTRUCTURE
     1 MLZ         1 TEMP              0 ****  ****    0 ROOT
