@<TRIPOS>MOLECULE
MM0
   64    68     1     0     0
SMALL
bcc


@<TRIPOS>ATOM
      1 C1         -0.2860   -0.2620   -0.0260 ca        1 MM0     -0.190300
      2 C2          1.1380   -0.2810   -0.0800 ca        1 MM0     -0.132000
      3 C3         -0.9340   -0.2210    1.1860 ca        1 MM0     -0.035000
      4 C5         -0.0460   -0.1170    4.8180 ca        1 MM0     -0.219600
      5 C6          1.3920   -0.1780    4.6780 ca        1 MM0      0.468600
      6 C8          1.6690   -0.1220    7.1060 ca        1 MM0     -0.095000
      7 C9         -0.3100    0.0180    8.5690 ca        1 MM0     -0.046000
      8 C10        -2.3310    0.1580    9.9980 ca        1 MM0     -0.038000
      9 C12        -4.5100    0.2370    8.9350 ca        1 MM0     -0.128000
     10 C13        -3.9490    0.1790    7.6900 ca        1 MM0     -0.138300
     11 C4          1.8850   -0.2750    1.0630 ca        1 MM0     -0.133300
     12 C7          2.2220   -0.1810    5.8790 ca        1 MM0     -0.161300
     13 C11        -3.7000    0.2260   10.1060 ca        1 MM0     -0.188300
     14 N1          2.0040   -0.2340    3.4850 nb        1 MM0     -0.646000
     15 C14        -0.8170   -0.1340    3.6640 ca        1 MM0     -0.015000
     16 C15        -0.1900   -0.2000    2.3970 ca        1 MM0     -0.182300
     17 N2         -0.9320   -1.5270   -2.0460 n4        1 MM0     -0.767000
     18 C16         1.2410   -0.2380    2.3520 ca        1 MM0      0.443600
     19 C17        -1.6070   -1.4790   -3.3780 c3        1 MM0      0.098800
     20 C18        -1.5030   -2.7990   -4.1350 c3        1 MM0     -0.105400
     21 N3         -4.8820    1.5880   11.7950 n4        1 MM0     -0.767000
     22 C19        -2.2030   -2.6670   -5.4650 c3        1 MM0     -0.103100
     23 C20        -4.3630    0.2250   11.4410 c3        1 MM0      0.172100
     24 C21        -5.5940    1.5930   13.1080 c3        1 MM0      0.098800
     25 C22        -6.1190    2.9740   13.4840 c3        1 MM0     -0.105400
     26 C23        -6.8220    2.8950   14.8170 c3        1 MM0     -0.103100
     27 C          -1.0480   -0.2260   -1.3070 c3        1 MM0      0.174100
     28 C4A         0.2420   -0.0480    7.2990 ca        1 MM0     -0.142300
     29 C9A        -0.6420   -0.0400    6.1560 ca        1 MM0      0.476600
     30 C10A       -1.7140    0.0960    8.7200 ca        1 MM0     -0.166300
     31 C8A        -2.5190    0.1040    7.5360 ca        1 MM0      0.437600
     32 N          -1.9760    0.0360    6.2820 nb        1 MM0     -0.668000
     33 H          -2.1440   -0.0290   -1.1280 hx        1 MM0      0.109700
     34 HA         -0.6400    0.5840   -1.9790 hx        1 MM0      0.109700
     35 H2          1.6370   -0.2760   -1.0620 ha        1 MM0      0.138000
     36 H14        -1.9190   -0.0950    3.7100 ha        1 MM0      0.168000
     37 H20        -5.2410   -0.4850   11.4420 hx        1 MM0      0.111200
     38 H9          0.3370    0.0080    9.4610 ha        1 MM0      0.158000
     39 H17        -1.1290   -0.6530   -3.9790 hx        1 MM0      0.106700
     40 H20A       -3.6450   -0.0900   12.2530 hx        1 MM0      0.111200
     41 HN3        -4.0990    2.2510   11.8290 hn        1 MM0      0.449800
     42 H21        -6.4500    0.8620   13.0410 hx        1 MM0      0.107700
     43 H22        -6.8350    3.3450   12.7040 hc        1 MM0      0.066700
     44 H3         -2.0340   -0.1900    1.2480 ha        1 MM0      0.145000
     45 H4          2.9890   -0.2870    1.0220 ha        1 MM0      0.180000
     46 H7          3.3180   -0.2330    5.7460 ha        1 MM0      0.178000
     47 H8          2.3010   -0.1280    8.0110 ha        1 MM0      0.158000
     48 H10        -1.6850    0.1340   10.8920 ha        1 MM0      0.148000
     49 H12        -5.6060    0.2690    9.0440 ha        1 MM0      0.139000
     50 H13        -4.5820    0.1810    6.7860 ha        1 MM0      0.170000
     51 HN2        -1.3450   -2.2780   -1.4810 hn        1 MM0      0.450300
     52 H17A       -2.6900   -1.2170   -3.2070 hx        1 MM0      0.106700
     53 H18        -0.4260   -3.0690   -4.3030 hc        1 MM0      0.067200
     54 H18A       -1.9760   -3.6270   -3.5420 hc        1 MM0      0.067200
     55 H19        -3.2850   -2.4240   -5.3270 hc        1 MM0      0.064033
     56 H19A       -2.1290   -3.6340   -6.0220 hc        1 MM0      0.064033
     57 H19B       -1.7340   -1.8670   -6.0880 hc        1 MM0      0.064033
     58 H21A       -4.8730    1.2280   13.8950 hx        1 MM0      0.107700
     59 H22A       -5.2720    3.7090   13.5500 hc        1 MM0      0.066700
     60 H23        -6.1230    2.5540   15.6190 hc        1 MM0      0.064367
     61 H23A       -7.6870    2.1900   14.7730 hc        1 MM0      0.064367
     62 H23B       -7.2080    3.9070   15.0960 hc        1 MM0      0.064367
     63 H221        0.0630   -1.7510   -2.1740 hn        1 MM0      0.450300
     64 H32        -5.5210    1.9050   11.0570 hn        1 MM0      0.449800
@<TRIPOS>BOND
     1    1    2 ar  
     2    1    3 ar  
     3    1   27 1   
     4    2   11 ar  
     5    2   35 1   
     6    3   16 ar  
     7    3   44 1   
     8    4    5 ar  
     9    4   15 ar  
    10    4   29 ar  
    11    5   12 ar  
    12    5   14 ar  
    13    6   12 ar  
    14    6   28 ar  
    15    6   47 1   
    16    7   28 ar  
    17    7   30 ar  
    18    7   38 1   
    19    8   13 ar  
    20    8   30 ar  
    21    8   48 1   
    22    9   10 ar  
    23    9   13 ar  
    24    9   49 1   
    25   10   31 ar  
    26   10   50 1   
    27   11   18 ar  
    28   11   45 1   
    29   12   46 1   
    30   13   23 1   
    31   14   18 ar  
    32   15   16 ar  
    33   15   36 1   
    34   16   18 ar  
    35   17   19 1   
    36   17   27 1   
    37   17   51 1   
    38   17   63 1   
    39   19   20 1   
    40   19   39 1   
    41   19   52 1   
    42   20   22 1   
    43   20   53 1   
    44   20   54 1   
    45   21   23 1   
    46   21   24 1   
    47   21   41 1   
    48   21   64 1   
    49   22   55 1   
    50   22   56 1   
    51   22   57 1   
    52   23   37 1   
    53   23   40 1   
    54   24   25 1   
    55   24   42 1   
    56   24   58 1   
    57   25   26 1   
    58   25   43 1   
    59   25   59 1   
    60   26   60 1   
    61   26   61 1   
    62   26   62 1   
    63   27   33 1   
    64   27   34 1   
    65   28   29 ar  
    66   29   32 ar  
    67   30   31 ar  
    68   31   32 ar  
@<TRIPOS>SUBSTRUCTURE
     1 MM0         1 TEMP              0 ****  ****    0 ROOT
