@<TRIPOS>MOLECULE
MM0
   64    68     1     0     0
SMALL
bcc


@<TRIPOS>ATOM
      1 C1         -0.2840   -0.2630   -0.0250 ca        1 MM0     -0.190300
      2 C2          1.1400   -0.2830   -0.0790 ca        1 MM0     -0.132000
      3 C3         -0.9320   -0.2210    1.1870 ca        1 MM0     -0.035000
      4 C5         -0.0450   -0.1180    4.8190 ca        1 MM0     -0.219600
      5 C6          1.3930   -0.1800    4.6790 ca        1 MM0      0.468600
      6 C8          1.6690   -0.1240    7.1080 ca        1 MM0     -0.095000
      7 C9         -0.3100    0.0170    8.5690 ca        1 MM0     -0.046000
      8 C10        -2.3310    0.1580    9.9990 ca        1 MM0     -0.038000
      9 C12        -4.5100    0.2380    8.9350 ca        1 MM0     -0.128000
     10 C13        -3.9490    0.1800    7.6900 ca        1 MM0     -0.138300
     11 C4          1.8870   -0.2770    1.0650 ca        1 MM0     -0.133300
     12 C7          2.2230   -0.1830    5.8810 ca        1 MM0     -0.161300
     13 C11        -3.7000    0.2270   10.1060 ca        1 MM0     -0.188300
     14 N1          2.0050   -0.2360    3.4860 nb        1 MM0     -0.646000
     15 C14        -0.8160   -0.1350    3.6650 ca        1 MM0     -0.015000
     16 C15        -0.1880   -0.2010    2.3970 ca        1 MM0     -0.182300
     17 N2         -0.9310   -1.5270   -2.0450 ny        1 MM0     -0.767000
     18 C16         1.2430   -0.2400    2.3530 ca        1 MM0      0.443600
     19 C17        -1.6050   -1.4780   -3.3770 c3        1 MM0      0.098800
     20 C18        -1.5030   -2.7980   -4.1350 c3        1 MM0     -0.105400
     21 N3         -4.8830    1.5890   11.7940 ny        1 MM0     -0.767000
     22 C19        -2.2020   -2.6650   -5.4650 c3        1 MM0     -0.103100
     23 C20        -4.3630    0.2260   11.4410 c3        1 MM0      0.172100
     24 C21        -5.5970    1.5940   13.1060 c3        1 MM0      0.098800
     25 C22        -6.1230    2.9750   13.4810 c3        1 MM0     -0.105400
     26 C23        -6.8280    2.8960   14.8130 c3        1 MM0     -0.103100
     27 C          -1.0450   -0.2260   -1.3060 c3        1 MM0      0.174100
     28 C4A         0.2430   -0.0500    7.3000 ca        1 MM0     -0.142300
     29 C9A        -0.6410   -0.0410    6.1570 ca        1 MM0      0.476600
     30 C10A       -1.7130    0.0950    8.7210 ca        1 MM0     -0.166300
     31 C8A        -2.5180    0.1040    7.5360 ca        1 MM0      0.437600
     32 N          -1.9750    0.0360    6.2830 nb        1 MM0     -0.668000
     33 H          -2.1410   -0.0280   -1.1280 hx        1 MM0      0.109700
     34 HA         -0.6360    0.5840   -1.9780 hx        1 MM0      0.109700
     35 H2          1.6400   -0.2780   -1.0610 ha        1 MM0      0.138000
     36 H14        -1.9170   -0.0940    3.7110 ha        1 MM0      0.168000
     37 H20        -5.2420   -0.4840   11.4420 hx        1 MM0      0.111200
     38 H9          0.3370    0.0070    9.4620 ha        1 MM0      0.158000
     39 H17        -1.1250   -0.6520   -3.9780 hx        1 MM0      0.106700
     40 H20A       -3.6460   -0.0880   12.2530 hx        1 MM0      0.111200
     41 HN3        -4.1010    2.2520   11.8290 hn        1 MM0      0.449800
     42 H21        -6.4530    0.8620   13.0380 hx        1 MM0      0.107700
     43 H22        -6.8390    3.3460   12.7000 hc        1 MM0      0.066700
     44 H3         -2.0320   -0.1890    1.2480 ha        1 MM0      0.145000
     45 H4          2.9900   -0.2910    1.0240 ha        1 MM0      0.180000
     46 H7          3.3180   -0.2370    5.7480 ha        1 MM0      0.178000
     47 H8          2.3020   -0.1300    8.0120 ha        1 MM0      0.158000
     48 H10        -1.6850    0.1340   10.8930 ha        1 MM0      0.148000
     49 H12        -5.6060    0.2700    9.0430 ha        1 MM0      0.139000
     50 H13        -4.5810    0.1820    6.7850 ha        1 MM0      0.170000
     51 HN2        -1.3450   -2.2770   -1.4800 hn        1 MM0      0.450300
     52 H17A       -2.6880   -1.2140   -3.2070 hx        1 MM0      0.106700
     53 H18        -0.4260   -3.0690   -4.3030 hc        1 MM0      0.067200
     54 H18A       -1.9760   -3.6250   -3.5420 hc        1 MM0      0.067200
     55 H19        -3.2840   -2.4210   -5.3270 hc        1 MM0      0.064033
     56 H19A       -2.1290   -3.6320   -6.0220 hc        1 MM0      0.064033
     57 H19B       -1.7320   -1.8660   -6.0870 hc        1 MM0      0.064033
     58 H21A       -4.8770    1.2300   13.8940 hx        1 MM0      0.107700
     59 H22A       -5.2770    3.7100   13.5480 hc        1 MM0      0.066700
     60 H23        -6.1300    2.5550   15.6170 hc        1 MM0      0.064367
     61 H23A       -7.6930    2.1900   14.7680 hc        1 MM0      0.064367
     62 H23B       -7.2150    3.9080   15.0910 hc        1 MM0      0.064367
     63 H221        0.0640   -1.7520   -2.1730 hn        1 MM0      0.450300
     64 H32        -5.5220    1.9050   11.0550 hn        1 MM0      0.449800
@<TRIPOS>BOND
     1    1    2 ar  
     2    1    3 ar  
     3    1   27 1   
     4    2   11 ar  
     5    2   35 1   
     6    3   16 ar  
     7    3   44 1   
     8    4    5 ar  
     9    4   15 ar  
    10    4   29 ar  
    11    5   12 ar  
    12    5   14 ar  
    13    6   12 ar  
    14    6   28 ar  
    15    6   47 1   
    16    7   28 ar  
    17    7   30 ar  
    18    7   38 1   
    19    8   13 ar  
    20    8   30 ar  
    21    8   48 1   
    22    9   10 ar  
    23    9   13 ar  
    24    9   49 1   
    25   10   31 ar  
    26   10   50 1   
    27   11   18 ar  
    28   11   45 1   
    29   12   46 1   
    30   13   23 1   
    31   14   18 ar  
    32   15   16 ar  
    33   15   36 1   
    34   16   18 ar  
    35   17   19 1   
    36   17   27 1   
    37   17   51 1   
    38   17   63 1   
    39   19   20 1   
    40   19   39 1   
    41   19   52 1   
    42   20   22 1   
    43   20   53 1   
    44   20   54 1   
    45   21   23 1   
    46   21   24 1   
    47   21   41 1   
    48   21   64 1   
    49   22   55 1   
    50   22   56 1   
    51   22   57 1   
    52   23   37 1   
    53   23   40 1   
    54   24   25 1   
    55   24   42 1   
    56   24   58 1   
    57   25   26 1   
    58   25   43 1   
    59   25   59 1   
    60   26   60 1   
    61   26   61 1   
    62   26   62 1   
    63   27   33 1   
    64   27   34 1   
    65   28   29 ar  
    66   29   32 ar  
    67   30   31 ar  
    68   31   32 ar  
@<TRIPOS>SUBSTRUCTURE
     1 MM0         1 TEMP              0 ****  ****    0 ROOT
