@<TRIPOS>MOLECULE
MM0
   62    66     1     0     0
SMALL
bcc


@<TRIPOS>ATOM
      1 C1         -5.2710    0.2260   -0.6590 ca        1 MM0     -0.091300
      2 C2         -5.7650   -1.0960   -0.4780 ca        1 MM0     -0.097000
      3 C3         -3.9260    0.4770   -0.5340 ca        1 MM0     -0.102000
      4 C5         -0.7800   -1.4050    0.1990 ca        1 MM0     -0.218600
      5 C6         -1.3620   -2.7160    0.3670 ca        1 MM0      0.437600
      6 C8          0.8480   -3.6660    0.8150 ca        1 MM0     -0.105000
      7 C9          2.8430   -2.2150    0.7960 ca        1 MM0     -0.064000
      8 C10         4.8190   -0.7150    0.7620 ca        1 MM0     -0.107000
      9 C12         4.4860    1.6370    0.2960 ca        1 MM0     -0.100000
     10 C13         3.1360    1.4610    0.1600 ca        1 MM0     -0.176300
     11 C4         -4.9230   -2.1320   -0.1810 ca        1 MM0     -0.178300
     12 C7         -0.4810   -3.8380    0.6820 ca        1 MM0     -0.170300
     13 C11         5.3450    0.5430    0.6020 ca        1 MM0     -0.087300
     14 N1         -2.6760   -2.9520    0.2480 nb        1 MM0     -0.662000
     15 C14        -1.6290   -0.3490   -0.1000 ca        1 MM0     -0.033000
     16 C15        -3.0190   -0.5750   -0.2310 ca        1 MM0     -0.162300
     17 N2         -7.3510    1.4310   -0.1110 n3        1 MM0     -0.825200
     18 C16        -3.5090   -1.9070   -0.0470 ca        1 MM0      0.417600
     19 C17        -8.1370    2.6310   -0.3260 c3        1 MM0      0.163800
     20 C18        -9.2020    2.8500    0.7480 c3        1 MM0     -0.084400
     21 N3          7.4190    1.4910   -0.3360 n3        1 MM0     -0.825200
     22 C19       -10.0170    4.0780    0.4320 c3        1 MM0     -0.093100
     23 C20         6.8140    0.7890    0.7800 c3        1 MM0      0.208100
     24 C21         8.8670    1.5260   -0.2600 c3        1 MM0      0.163800
     25 C22         9.5200    2.0850   -1.5230 c3        1 MM0     -0.084400
     26 C23        11.0160    2.1460   -1.3540 c3        1 MM0     -0.093100
     27 C          -6.2260    1.3250   -1.0200 c3        1 MM0      0.208100
     28 C4A         1.4740   -2.3780    0.6560 ca        1 MM0     -0.157300
     29 C9A         0.6670   -1.2210    0.3440 ca        1 MM0      0.457600
     30 C10A        3.4200   -0.9370    0.6330 ca        1 MM0     -0.152300
     31 C8A         2.5500    0.1580    0.3250 ca        1 MM0      0.416600
     32 N           1.1970   -0.0000    0.1860 nb        1 MM0     -0.670000
     33 H          -5.6520    2.2990   -1.1010 h1        1 MM0      0.038700
     34 HA         -6.6470    1.1060   -2.0460 h1        1 MM0      0.038700
     35 H2         -6.8490   -1.2690   -0.5820 ha        1 MM0      0.153000
     36 H14        -1.2440    0.6740   -0.2400 ha        1 MM0      0.162000
     37 H20         6.9560    1.4360    1.6960 h1        1 MM0      0.038700
     38 H9          3.4880   -3.0750    1.0330 ha        1 MM0      0.140000
     39 H17        -7.4920    3.5590   -0.3800 h1        1 MM0      0.028700
     40 H20A        7.3280   -0.1980    0.9910 h1        1 MM0      0.038700
     41 HN3         7.1170    1.1010   -1.2090 hn        1 MM0      0.361800
     42 H21         9.1400    2.1820    0.6150 h1        1 MM0      0.028700
     43 H22         9.2660    1.4380   -2.4040 hc        1 MM0      0.046700
     44 H3         -3.5220    1.4930   -0.6670 ha        1 MM0      0.137000
     45 H4         -5.3120   -3.1540   -0.0410 ha        1 MM0      0.152000
     46 H7         -0.9450   -4.8310    0.8070 ha        1 MM0      0.155000
     47 H8          1.5070   -4.5180    1.0530 ha        1 MM0      0.137000
     48 H10         5.4640   -1.5760    0.9970 ha        1 MM0      0.135000
     49 H12         4.9340    2.6360    0.1710 ha        1 MM0      0.153000
     50 H13         2.4780    2.3110   -0.0780 ha        1 MM0      0.151000
     51 HN2        -7.0460    1.3710    0.8430 hn        1 MM0      0.361800
     52 H17A       -8.6430    2.5230   -1.3270 h1        1 MM0      0.028700
     53 H18        -9.8740    1.9540    0.8060 hc        1 MM0      0.046700
     54 H18A       -8.7150    2.9680    1.7510 hc        1 MM0      0.046700
     55 H19       -10.5300    3.9690   -0.5540 hc        1 MM0      0.035033
     56 H19A      -10.7930    4.2370    1.2180 hc        1 MM0      0.035033
     57 H19B       -9.3670    4.9860    0.3900 hc        1 MM0      0.035033
     58 H21A        9.3070    0.5030   -0.0570 h1        1 MM0      0.028700
     59 H22A        9.1200    3.1110   -1.7360 hc        1 MM0      0.046700
     60 H23        11.2900    2.8060   -0.4960 hc        1 MM0      0.035033
     61 H23A       11.4360    1.1290   -1.1620 hc        1 MM0      0.035033
     62 H23B       11.4910    2.5540   -2.2790 hc        1 MM0      0.035033
@<TRIPOS>BOND
     1    1    2 ar  
     2    1    3 ar  
     3    1   27 1   
     4    2   11 ar  
     5    2   35 1   
     6    3   16 ar  
     7    3   44 1   
     8    4    5 ar  
     9    4   15 ar  
    10    4   29 ar  
    11    5   12 ar  
    12    5   14 ar  
    13    6   12 ar  
    14    6   28 ar  
    15    6   47 1   
    16    7   28 ar  
    17    7   30 ar  
    18    7   38 1   
    19    8   13 ar  
    20    8   30 ar  
    21    8   48 1   
    22    9   10 ar  
    23    9   13 ar  
    24    9   49 1   
    25   10   31 ar  
    26   10   50 1   
    27   11   18 ar  
    28   11   45 1   
    29   12   46 1   
    30   13   23 1   
    31   14   18 ar  
    32   15   16 ar  
    33   15   36 1   
    34   16   18 ar  
    35   17   19 1   
    36   17   27 1   
    37   17   51 1   
    38   19   20 1   
    39   19   39 1   
    40   19   52 1   
    41   20   22 1   
    42   20   53 1   
    43   20   54 1   
    44   21   23 1   
    45   21   24 1   
    46   21   41 1   
    47   22   55 1   
    48   22   56 1   
    49   22   57 1   
    50   23   37 1   
    51   23   40 1   
    52   24   25 1   
    53   24   42 1   
    54   24   58 1   
    55   25   26 1   
    56   25   43 1   
    57   25   59 1   
    58   26   60 1   
    59   26   61 1   
    60   26   62 1   
    61   27   33 1   
    62   27   34 1   
    63   28   29 ar  
    64   29   32 ar  
    65   30   31 ar  
    66   31   32 ar  
@<TRIPOS>SUBSTRUCTURE
     1 MM0         1 TEMP              0 ****  ****    0 ROOT
