@<TRIPOS>MOLECULE
MM0
   64    68     1     0     0
SMALL
bcc


@<TRIPOS>ATOM
      1 C1         -0.2800   -0.2580   -0.0240 ca        1 MM0     -0.190300
      2 C2          1.1440   -0.2870   -0.0760 ca        1 MM0     -0.132000
      3 C3         -0.9290   -0.2140    1.1870 ca        1 MM0     -0.035000
      4 C5         -0.0450   -0.1230    4.8210 ca        1 MM0     -0.219600
      5 C6          1.3920   -0.1940    4.6820 ca        1 MM0      0.468600
      6 C8          1.6660   -0.1440    7.1110 ca        1 MM0     -0.095000
      7 C9         -0.3140    0.0080    8.5710 ca        1 MM0     -0.046000
      8 C10        -2.3360    0.1610    9.9980 ca        1 MM0     -0.038000
      9 C12        -4.5130    0.2570    8.9320 ca        1 MM0     -0.128000
     10 C13        -3.9510    0.1970    7.6880 ca        1 MM0     -0.138300
     11 C4          1.8890   -0.2880    1.0680 ca        1 MM0     -0.133300
     12 C7          2.2210   -0.2040    5.8850 ca        1 MM0     -0.161300
     13 C11        -3.7050    0.2390   10.1040 ca        1 MM0     -0.188300
     14 N1          2.0050   -0.2520    3.4900 nb        1 MM0     -0.646000
     15 C14        -0.8150   -0.1330    3.6660 ca        1 MM0     -0.015000
     16 C15        -0.1860   -0.2000    2.3990 ca        1 MM0     -0.182300
     17 N2         -0.9330   -1.5160   -2.0460 n4        1 MM0     -0.767000
     18 C16         1.2440   -0.2490    2.3560 ca        1 MM0      0.443600
     19 C17        -1.6060   -1.4610   -3.3790 c3        1 MM0      0.098800
     20 C18        -1.5120   -2.7810   -4.1370 c3        1 MM0     -0.105400
     21 N3         -4.8800    1.6070   11.7930 n4        1 MM0     -0.767000
     22 C19        -2.2100   -2.6430   -5.4680 c3        1 MM0     -0.103100
     23 C20        -4.3690    0.2410   11.4380 c3        1 MM0      0.172100
     24 C21        -5.5940    1.6150   13.1050 c3        1 MM0      0.098800
     25 C22        -6.1110    2.9990   13.4810 c3        1 MM0     -0.105400
     26 C23        -6.8170    2.9230   14.8130 c3        1 MM0     -0.103100
     27 C          -1.0400   -0.2150   -1.3050 c3        1 MM0      0.174100
     28 C4A         0.2400   -0.0600    7.3020 ca        1 MM0     -0.142300
     29 C9A        -0.6430   -0.0440    6.1580 ca        1 MM0      0.476600
     30 C10A       -1.7170    0.0960    8.7210 ca        1 MM0     -0.166300
     31 C8A        -2.5210    0.1120    7.5350 ca        1 MM0      0.437600
     32 N          -1.9770    0.0420    6.2830 nb        1 MM0     -0.668000
     33 H          -0.6250    0.5940   -1.9770 hx        1 MM0      0.109700
     34 HA         -2.1350   -0.0100   -1.1280 hx        1 MM0      0.109700
     35 H2          1.6450   -0.2840   -1.0570 ha        1 MM0      0.138000
     36 H14        -1.9160   -0.0850    3.7110 ha        1 MM0      0.168000
     37 H20        -5.2520   -0.4640   11.4370 hx        1 MM0      0.111200
     38 H9          0.3320   -0.0070    9.4650 ha        1 MM0      0.158000
     39 H17        -1.1210   -0.6380   -3.9780 hx        1 MM0      0.106700
     40 H20A       -3.6550   -0.0790   12.2510 hx        1 MM0      0.111200
     41 HN3        -4.0930    2.2650   11.8290 hn        1 MM0      0.449800
     42 H21        -4.8750    1.2460   13.8920 hx        1 MM0      0.107700
     43 H22        -6.8250    3.3750   12.7000 hc        1 MM0      0.066700
     44 H3         -2.0300   -0.1760    1.2480 ha        1 MM0      0.145000
     45 H4          2.9930   -0.3080    1.0280 ha        1 MM0      0.180000
     46 H7          3.3160   -0.2650    5.7530 ha        1 MM0      0.178000
     47 H8          2.2970   -0.1550    8.0170 ha        1 MM0      0.158000
     48 H10        -1.6910    0.1320   10.8930 ha        1 MM0      0.148000
     49 H12        -5.6090    0.2960    9.0390 ha        1 MM0      0.139000
     50 H13        -4.5820    0.2050    6.7830 ha        1 MM0      0.170000
     51 HN2        -1.3510   -2.2640   -1.4820 hn        1 MM0      0.450300
     52 H17A       -2.6880   -1.1910   -3.2090 hx        1 MM0      0.106700
     53 H18        -0.4370   -3.0580   -4.3050 hc        1 MM0      0.067200
     54 H18A       -1.9910   -3.6060   -3.5460 hc        1 MM0      0.067200
     55 H19        -3.2900   -2.3920   -5.3300 hc        1 MM0      0.064033
     56 H19A       -2.1420   -3.6100   -6.0260 hc        1 MM0      0.064033
     57 H19B       -1.7340   -1.8450   -6.0890 hc        1 MM0      0.064033
     58 H21A       -6.4540    0.8880   13.0370 hx        1 MM0      0.107700
     59 H22A       -5.2610    3.7290   13.5490 hc        1 MM0      0.066700
     60 H23        -6.1210    2.5780   15.6160 hc        1 MM0      0.064367
     61 H23A       -7.1970    3.9380   15.0910 hc        1 MM0      0.064367
     62 H23B       -7.6860    2.2230   14.7670 hc        1 MM0      0.064367
     63 H221        0.0610   -1.7470   -2.1740 hn        1 MM0      0.450300
     64 H32        -5.5170    1.9280   11.0540 hn        1 MM0      0.449800
@<TRIPOS>BOND
     1    1    2 ar  
     2    1    3 ar  
     3    1   27 1   
     4    2   11 ar  
     5    2   35 1   
     6    3   16 ar  
     7    3   44 1   
     8    4    5 ar  
     9    4   15 ar  
    10    4   29 ar  
    11    5   12 ar  
    12    5   14 ar  
    13    6   12 ar  
    14    6   28 ar  
    15    6   47 1   
    16    7   28 ar  
    17    7   30 ar  
    18    7   38 1   
    19    8   13 ar  
    20    8   30 ar  
    21    8   48 1   
    22    9   10 ar  
    23    9   13 ar  
    24    9   49 1   
    25   10   31 ar  
    26   10   50 1   
    27   11   18 ar  
    28   11   45 1   
    29   12   46 1   
    30   13   23 1   
    31   14   18 ar  
    32   15   16 ar  
    33   15   36 1   
    34   16   18 ar  
    35   17   19 1   
    36   17   27 1   
    37   17   51 1   
    38   17   63 1   
    39   19   20 1   
    40   19   39 1   
    41   19   52 1   
    42   20   22 1   
    43   20   53 1   
    44   20   54 1   
    45   21   23 1   
    46   21   24 1   
    47   21   41 1   
    48   21   64 1   
    49   22   55 1   
    50   22   56 1   
    51   22   57 1   
    52   23   37 1   
    53   23   40 1   
    54   24   25 1   
    55   24   42 1   
    56   24   58 1   
    57   25   26 1   
    58   25   43 1   
    59   25   59 1   
    60   26   60 1   
    61   26   61 1   
    62   26   62 1   
    63   27   33 1   
    64   27   34 1   
    65   28   29 ar  
    66   29   32 ar  
    67   30   31 ar  
    68   31   32 ar  
@<TRIPOS>SUBSTRUCTURE
     1 MM0         1 TEMP              0 ****  ****    0 ROOT
