@<TRIPOS>MOLECULE
MM3
   46    47     1     0     0
SMALL
bcc


@<TRIPOS>ATOM
      1 C1         -1.0750    0.0460    1.4440 ca        1 MM3     -0.428500
      2 C2         -0.7940    1.3990    1.7000 ca        1 MM3      0.025500
      3 C3         -0.3210    1.8210    2.9310 ca        1 MM3     -0.209500
      4 C4         -0.1180    0.8670    3.9500 ca        1 MM3      0.197100
      5 C5         -0.3990   -0.4890    3.7230 ca        1 MM3     -0.209500
      6 C6         -0.8720   -0.8800    2.4760 ca        1 MM3      0.025500
      7 O7          0.3560    1.3750    5.1340 os        1 MM3     -0.317900
      8 C8          0.5710    0.4420    6.1900 c3        1 MM3      0.109700
      9 S9         -1.6820   -0.4400   -0.0330 sy        1 MM3      1.507200
     10 O10        -2.4350   -1.6210    0.1470 o         1 MM3     -0.659300
     11 O11        -2.3500    0.6610   -0.6360 o         1 MM3     -0.659300
     12 N12        -0.3600   -0.7620   -0.9630 n3        1 MM3     -0.787500
     13 C13         0.2320    0.3170   -1.7120 c3        1 MM3      0.191500
     14 C14         1.7750    0.4130   -1.7680 c3        1 MM3      0.043100
     15 S15         2.5410   -0.1550   -0.2420 ss        1 MM3     -0.305200
     16 C16         2.5210   -1.9170   -0.3240 c3        1 MM3     -0.010300
     17 C17         1.1760   -2.5540   -0.1080 c3        1 MM3     -0.095400
     18 C18         0.1220   -2.1070   -1.1240 c3        1 MM3      0.202800
     19 C19         2.1590    1.8870   -1.7840 c3        1 MM3     -0.094100
     20 C20         2.4030   -0.2720   -2.9610 c3        1 MM3     -0.094100
     21 C          -0.3860    0.3340   -3.1370 c         1 MM3      0.574100
     22 NA         -1.2740    1.4170   -3.4080 n         1 MM3     -0.355400
     23 OA         -2.0300    1.2550   -4.4970 oh        1 MM3     -0.430100
     24 OB         -0.0850   -0.4860   -4.0160 o         1 MM3     -0.560100
     25 H21        -0.9710    2.1430    0.9020 ha        1 MM3      0.151500
     26 H31        -0.1030    2.8800    3.1300 ha        1 MM3      0.153500
     27 H51        -0.2530   -1.2380    4.5130 ha        1 MM3      0.153500
     28 H61        -1.1120   -1.9440    2.2970 ha        1 MM3      0.151500
     29 H81         0.9490    1.0830    7.0260 h1        1 MM3      0.051700
     30 H82        -0.3880   -0.0550    6.4750 h1        1 MM3      0.051700
     31 H83         1.3370   -0.3150    5.8940 h1        1 MM3      0.051700
     32 H131       -0.0980    1.2710   -1.1770 h1        1 MM3      0.074700
     33 H161        3.2240   -2.2320    0.4900 h1        1 MM3      0.074700
     34 H162        2.9500   -2.2560   -1.2990 h1        1 MM3      0.074700
     35 H171        0.8180   -2.3420    0.9350 hc        1 MM3      0.053200
     36 H172        1.2800   -3.6680   -0.2050 hc        1 MM3      0.053200
     37 H181       -0.7640   -2.8050   -1.0270 h1        1 MM3      0.076700
     38 H182        0.5290   -2.2330   -2.1690 h1        1 MM3      0.076700
     39 H191        3.2560    1.9940   -1.9680 hc        1 MM3      0.054700
     40 H192        1.6080    2.4190   -2.5980 hc        1 MM3      0.054700
     41 H193        1.9140    2.3720   -0.8070 hc        1 MM3      0.054700
     42 H201        2.0060   -1.3050   -3.1030 hc        1 MM3      0.054700
     43 H202        2.1870    0.3040   -3.8960 hc        1 MM3      0.054700
     44 H203        3.5120   -0.3240   -2.8280 hc        1 MM3      0.054700
     45 HNA        -1.9010    1.6110   -2.6260 hn        1 MM3      0.335500
     46 HOA        -1.4280    1.3600   -5.2600 ho        1 MM3      0.426000
@<TRIPOS>BOND
     1    1    2 ar  
     2    1    6 ar  
     3    1    9 1   
     4    2    3 ar  
     5    2   25 1   
     6    3    4 ar  
     7    3   26 1   
     8    4    5 ar  
     9    4    7 1   
    10    5    6 ar  
    11    5   27 1   
    12    6   28 1   
    13    7    8 1   
    14    8   29 1   
    15    8   30 1   
    16    8   31 1   
    17    9   10 2   
    18    9   11 2   
    19    9   12 1   
    20   12   13 1   
    21   12   18 1   
    22   13   14 1   
    23   13   21 1   
    24   13   32 1   
    25   14   15 1   
    26   14   19 1   
    27   14   20 1   
    28   15   16 1   
    29   16   17 1   
    30   16   33 1   
    31   16   34 1   
    32   17   18 1   
    33   17   35 1   
    34   17   36 1   
    35   18   37 1   
    36   18   38 1   
    37   19   39 1   
    38   19   40 1   
    39   19   41 1   
    40   20   42 1   
    41   20   43 1   
    42   20   44 1   
    43   21   22 1   
    44   21   24 2   
    45   22   23 1   
    46   22   45 1   
    47   23   46 1   
@<TRIPOS>SUBSTRUCTURE
     1 MM3         1 TEMP              0 ****  ****    0 ROOT
