@<TRIPOS>MOLECULE
MM3
   47    48     1     0     0
SMALL
bcc


@<TRIPOS>ATOM
      1 C1         -0.0120   -0.0800   -0.1800 ca        1 MM3     -0.502500
      2 C2          1.3910   -0.2060   -0.1070 ca        1 MM3      0.038000
      3 C3          2.0700   -0.1130    1.0900 ca        1 MM3     -0.209000
      4 C4          1.3390    0.1170    2.2820 ca        1 MM3      0.236100
      5 C5         -0.0610    0.2510    2.2380 ca        1 MM3     -0.209000
      6 C6         -0.7130    0.1510    1.0200 ca        1 MM3      0.038000
      7 O7          2.0920    0.1930    3.4140 os        1 MM3     -0.300900
      8 C8          1.4040    0.4580    4.6410 c3        1 MM3      0.103700
      9 S9         -0.8030   -0.1310   -1.6030 sy        1 MM3      1.534200
     10 O10        -2.0170    0.5660   -1.5600 o         1 MM3     -0.671800
     11 O11         0.0720    0.1980   -2.6920 o         1 MM3     -0.671800
     12 N12        -1.1280   -1.7570   -1.9000 n3        1 MM3     -0.775500
     13 C13        -0.1790   -2.5080   -2.6470 c3        1 MM3      0.241500
     14 C14         0.0410   -4.0170   -2.3700 c3        1 MM3      0.006100
     15 S15         0.0760   -4.3100   -0.6090 ss        1 MM3     -0.229200
     16 C16        -1.6090   -4.3570   -0.1010 c3        1 MM3     -0.029300
     17 C17        -2.2980   -3.0220   -0.0650 c3        1 MM3     -0.098400
     18 C18        -2.3620   -2.3350   -1.4290 c3        1 MM3      0.189800
     19 C19         1.4650   -4.3660   -2.7890 c3        1 MM3     -0.103600
     20 C20        -0.9220   -4.9330   -3.0900 c3        1 MM3     -0.103600
     21 C          -0.5050   -2.3380   -4.1630 c         1 MM3      0.508100
     22 NA          0.4590   -1.4230   -4.9320 n4        1 MM3     -0.474300
     23 OA          0.3090   -1.4450   -6.2740 oh        1 MM3     -0.365300
     24 OB         -1.4410   -2.7580   -4.8160 o         1 MM3     -0.408100
     25 H21         1.9610   -0.3620   -1.0400 ha        1 MM3      0.148500
     26 H31         3.1650   -0.2050    1.1430 ha        1 MM3      0.169000
     27 H51        -0.6370    0.4420    3.1560 ha        1 MM3      0.169000
     28 H61        -1.8120    0.2770    0.9830 ha        1 MM3      0.148500
     29 H81         2.2360    0.4830    5.3920 h1        1 MM3      0.064367
     30 H82         0.6860   -0.3650    4.8690 h1        1 MM3      0.064367
     31 H83         0.8830    1.4440    4.5900 h1        1 MM3      0.064367
     32 H131        0.8380   -2.0190   -2.4650 h1        1 MM3      0.085700
     33 H161       -2.1870   -5.0720   -0.7380 h1        1 MM3      0.093200
     34 H162       -1.5600   -4.7870    0.9350 h1        1 MM3      0.093200
     35 H171       -1.7960   -2.3510    0.6830 hc        1 MM3      0.069700
     36 H172       -3.3580   -3.1700    0.2810 hc        1 MM3      0.069700
     37 H181       -2.7640   -3.0580   -2.1940 h1        1 MM3      0.080200
     38 H182       -3.1180   -1.4920   -1.3570 h1        1 MM3      0.080200
     39 H191        2.2130   -3.8860   -2.1090 hc        1 MM3      0.062367
     40 H192        1.6110   -5.4740   -2.7450 hc        1 MM3      0.062367
     41 H193        1.6580   -4.0290   -3.8370 hc        1 MM3      0.062367
     42 H201       -0.6570   -5.0080   -4.1750 hc        1 MM3      0.062367
     43 H202       -1.9780   -4.5820   -3.0190 hc        1 MM3      0.062367
     44 H203       -0.8600   -5.9620   -2.6520 hc        1 MM3      0.062367
     45 HNA         0.3520   -0.4380   -4.5780 hn        1 MM3      0.500300
     46 HOA        -0.6500   -1.5490   -6.4860 ho        1 MM3      0.479000
     47 HA2         1.4350   -1.7240   -4.7540 hn        1 MM3      0.500300
@<TRIPOS>BOND
     1    1    2 ar  
     2    1    6 ar  
     3    1    9 1   
     4    2    3 ar  
     5    2   25 1   
     6    3    4 ar  
     7    3   26 1   
     8    4    5 ar  
     9    4    7 1   
    10    5    6 ar  
    11    5   27 1   
    12    6   28 1   
    13    7    8 1   
    14    8   29 1   
    15    8   30 1   
    16    8   31 1   
    17    9   10 2   
    18    9   11 2   
    19    9   12 1   
    20   12   13 1   
    21   12   18 1   
    22   13   14 1   
    23   13   21 1   
    24   13   32 1   
    25   14   15 1   
    26   14   19 1   
    27   14   20 1   
    28   15   16 1   
    29   16   17 1   
    30   16   33 1   
    31   16   34 1   
    32   17   18 1   
    33   17   35 1   
    34   17   36 1   
    35   18   37 1   
    36   18   38 1   
    37   19   39 1   
    38   19   40 1   
    39   19   41 1   
    40   20   42 1   
    41   20   43 1   
    42   20   44 1   
    43   21   22 1   
    44   21   24 2   
    45   22   23 1   
    46   22   45 1   
    47   22   47 1   
    48   23   46 1   
@<TRIPOS>SUBSTRUCTURE
     1 MM3         1 TEMP              0 ****  ****    0 ROOT
