@<TRIPOS>MOLECULE
MM3
   47    48     1     0     0
SMALL
bcc


@<TRIPOS>ATOM
      1 C1         -0.0160   -0.0810   -0.1770 ca        1 MM3     -0.502500
      2 C2          1.3880   -0.2040   -0.1050 ca        1 MM3      0.038000
      3 C3          2.0670   -0.1110    1.0920 ca        1 MM3     -0.209000
      4 C4          1.3360    0.1160    2.2840 ca        1 MM3      0.236100
      5 C5         -0.0650    0.2480    2.2400 ca        1 MM3     -0.209000
      6 C6         -0.7160    0.1480    1.0220 ca        1 MM3      0.038000
      7 O7          2.0890    0.1920    3.4160 os        1 MM3     -0.300900
      8 C8          1.4020    0.4550    4.6430 c3        1 MM3      0.103700
      9 S9         -0.8070   -0.1320   -1.6010 sy        1 MM3      1.534200
     10 O10        -2.0220    0.5630   -1.5560 o         1 MM3     -0.671800
     11 O11         0.0670    0.2010   -2.6890 o         1 MM3     -0.671800
     12 N12        -1.1290   -1.7580   -1.9000 n3        1 MM3     -0.775500
     13 C13        -0.1780   -2.5060   -2.6480 c3        1 MM3      0.241500
     14 C14         0.0450   -4.0150   -2.3720 c3        1 MM3      0.006100
     15 S15         0.0810   -4.3100   -0.6120 ss        1 MM3     -0.229200
     16 C16        -1.6040   -4.3610   -0.1040 c3        1 MM3     -0.029300
     17 C17        -2.2960   -3.0270   -0.0660 c3        1 MM3     -0.098400
     18 C18        -2.3620   -2.3390   -1.4290 c3        1 MM3      0.189800
     19 C19         1.4690   -4.3600   -2.7920 c3        1 MM3     -0.103600
     20 C20        -0.9160   -4.9320   -3.0930 c3        1 MM3     -0.103600
     21 C          -0.5050   -2.3350   -4.1640 c         1 MM3      0.508100
     22 NA          0.4570   -1.4170   -4.9310 ny        1 MM3     -0.474300
     23 OA          0.3060   -1.4370   -6.2740 oh        1 MM3     -0.365300
     24 OB         -1.4410   -2.7560   -4.8160 o         1 MM3     -0.408100
     25 H21         1.9580   -0.3580   -1.0380 ha        1 MM3      0.148500
     26 H31         3.1630   -0.2020    1.1440 ha        1 MM3      0.169000
     27 H51        -0.6410    0.4370    3.1590 ha        1 MM3      0.169000
     28 H61        -1.8150    0.2720    0.9860 ha        1 MM3      0.148500
     29 H81         2.2330    0.4810    5.3940 h1        1 MM3      0.064367
     30 H82         0.6850   -0.3700    4.8710 h1        1 MM3      0.064367
     31 H83         0.8790    1.4400    4.5930 h1        1 MM3      0.064367
     32 H131        0.8380   -2.0150   -2.4660 h1        1 MM3      0.085700
     33 H161       -2.1810   -5.0770   -0.7410 h1        1 MM3      0.093200
     34 H162       -1.5540   -4.7920    0.9320 h1        1 MM3      0.093200
     35 H171       -3.3560   -3.1780    0.2800 hc        1 MM3      0.069700
     36 H172       -1.7940   -2.3570    0.6830 hc        1 MM3      0.069700
     37 H181       -3.1190   -1.4970   -1.3550 h1        1 MM3      0.080200
     38 H182       -2.7620   -3.0620   -2.1950 h1        1 MM3      0.080200
     39 H191        1.6180   -5.4690   -2.7500 hc        1 MM3      0.062367
     40 H192        2.2160   -3.8800   -2.1120 hc        1 MM3      0.062367
     41 H193        1.6610   -4.0220   -3.8400 hc        1 MM3      0.062367
     42 H201       -1.9730   -4.5830   -3.0220 hc        1 MM3      0.062367
     43 H202       -0.6520   -5.0050   -4.1780 hc        1 MM3      0.062367
     44 H203       -0.8530   -5.9610   -2.6570 hc        1 MM3      0.062367
     45 HNA         1.4340   -1.7170   -4.7550 hn        1 MM3      0.500300
     46 HOA        -0.6530   -1.5430   -6.4850 ho        1 MM3      0.479000
     47 HA2         0.3480   -0.4320   -4.5760 hn        1 MM3      0.500300
@<TRIPOS>BOND
     1    1    2 ar  
     2    1    6 ar  
     3    1    9 1   
     4    2    3 ar  
     5    2   25 1   
     6    3    4 ar  
     7    3   26 1   
     8    4    5 ar  
     9    4    7 1   
    10    5    6 ar  
    11    5   27 1   
    12    6   28 1   
    13    7    8 1   
    14    8   29 1   
    15    8   30 1   
    16    8   31 1   
    17    9   10 2   
    18    9   11 2   
    19    9   12 1   
    20   12   13 1   
    21   12   18 1   
    22   13   14 1   
    23   13   21 1   
    24   13   32 1   
    25   14   15 1   
    26   14   19 1   
    27   14   20 1   
    28   15   16 1   
    29   16   17 1   
    30   16   33 1   
    31   16   34 1   
    32   17   18 1   
    33   17   35 1   
    34   17   36 1   
    35   18   37 1   
    36   18   38 1   
    37   19   39 1   
    38   19   40 1   
    39   19   41 1   
    40   20   42 1   
    41   20   43 1   
    42   20   44 1   
    43   21   22 1   
    44   21   24 2   
    45   22   23 1   
    46   22   45 1   
    47   22   47 1   
    48   23   46 1   
@<TRIPOS>SUBSTRUCTURE
     1 MM3         1 TEMP              0 ****  ****    0 ROOT
