@<TRIPOS>MOLECULE
MM3
   47    48     1     0     0
SMALL
bcc


@<TRIPOS>ATOM
      1 C1          0.0070   -0.0720   -0.2040 ca        1 MM3     -0.502500
      2 C2          1.4100   -0.2100   -0.1340 ca        1 MM3      0.038000
      3 C3          2.0930   -0.1100    1.0600 ca        1 MM3     -0.209000
      4 C4          1.3680    0.1410    2.2510 ca        1 MM3      0.236100
      5 C5         -0.0310    0.2870    2.2090 ca        1 MM3     -0.209000
      6 C6         -0.6870    0.1800    0.9940 ca        1 MM3      0.038000
      7 O7          2.1250    0.2210    3.3800 os        1 MM3     -0.300900
      8 C8          1.4440    0.5080    4.6060 c3        1 MM3      0.103700
      9 S9         -0.7880   -0.1320   -1.6250 sy        1 MM3      1.534200
     10 O10        -1.9950    0.5770   -1.5860 o         1 MM3     -0.671800
     11 O11         0.0870    0.1760   -2.7200 o         1 MM3     -0.671800
     12 N12        -1.1300   -1.7580   -1.9020 n3        1 MM3     -0.775500
     13 C13        -0.1890   -2.5270   -2.6430 c3        1 MM3      0.241500
     14 C14         0.0170   -4.0340   -2.3480 c3        1 MM3      0.006100
     15 S15         0.0530   -4.3070   -0.5840 ss        1 MM3     -0.229200
     16 C16        -1.6310   -4.3320   -0.0720 c3        1 MM3     -0.029300
     17 C17        -2.3070   -2.9900   -0.0500 c3        1 MM3     -0.098400
     18 C18        -2.3680   -2.3180   -1.4220 c3        1 MM3      0.189800
     19 C19         1.4360   -4.4020   -2.7670 c3        1 MM3     -0.103600
     20 C20        -0.9570   -4.9500   -3.0550 c3        1 MM3     -0.103600
     21 C          -0.5180   -2.3720   -4.1600 c         1 MM3      0.508100
     22 NA          0.4520   -1.4740   -4.9420 n4        1 MM3     -0.474300
     23 OA          0.2980   -1.5110   -6.2830 oh        1 MM3     -0.365300
     24 OB         -1.4600   -2.7900   -4.8050 o         1 MM3     -0.408100
     25 H21         1.9760   -0.3830   -1.0670 ha        1 MM3      0.148500
     26 H31         3.1880   -0.2130    1.1100 ha        1 MM3      0.169000
     27 H51        -0.6030    0.4940    3.1270 ha        1 MM3      0.169000
     28 H61        -1.7850    0.3150    0.9590 ha        1 MM3      0.148500
     29 H81         0.7180   -0.3060    4.8450 h1        1 MM3      0.064367
     30 H82         0.9320    1.4980    4.5440 h1        1 MM3      0.064367
     31 H83         2.2780    0.5340    5.3540 h1        1 MM3      0.064367
     32 H131        0.8320   -2.0450   -2.4690 h1        1 MM3      0.085700
     33 H161       -2.2180   -5.0490   -0.6990 h1        1 MM3      0.093200
     34 H162       -1.5840   -4.7500    0.9700 h1        1 MM3      0.093200
     35 H171       -3.3680   -3.1240    0.3000 hc        1 MM3      0.069700
     36 H172       -1.7960   -2.3150    0.6890 hc        1 MM3      0.069700
     37 H181       -3.1150   -1.4670   -1.3570 h1        1 MM3      0.080200
     38 H182       -2.7780   -3.0460   -2.1770 h1        1 MM3      0.080200
     39 H191        1.6290   -4.0790   -3.8190 hc        1 MM3      0.062367
     40 H192        2.1900   -3.9220   -2.0950 hc        1 MM3      0.062367
     41 H193        1.5720   -5.5110   -2.7100 hc        1 MM3      0.062367
     42 H201       -0.6960   -5.0400   -4.1400 hc        1 MM3      0.062367
     43 H202       -0.9040   -5.9740   -2.6050 hc        1 MM3      0.062367
     44 H203       -2.0100   -4.5880   -2.9860 hc        1 MM3      0.062367
     45 HNA         1.4260   -1.7830   -4.7630 hn        1 MM3      0.500300
     46 HOA        -0.6630   -1.6080   -6.4920 ho        1 MM3      0.479000
     47 HA2         0.3550   -0.4840   -4.5990 hn        1 MM3      0.500300
@<TRIPOS>BOND
     1    1    2 ar  
     2    1    6 ar  
     3    1    9 1   
     4    2    3 ar  
     5    2   25 1   
     6    3    4 ar  
     7    3   26 1   
     8    4    5 ar  
     9    4    7 1   
    10    5    6 ar  
    11    5   27 1   
    12    6   28 1   
    13    7    8 1   
    14    8   29 1   
    15    8   30 1   
    16    8   31 1   
    17    9   10 2   
    18    9   11 2   
    19    9   12 1   
    20   12   13 1   
    21   12   18 1   
    22   13   14 1   
    23   13   21 1   
    24   13   32 1   
    25   14   15 1   
    26   14   19 1   
    27   14   20 1   
    28   15   16 1   
    29   16   17 1   
    30   16   33 1   
    31   16   34 1   
    32   17   18 1   
    33   17   35 1   
    34   17   36 1   
    35   18   37 1   
    36   18   38 1   
    37   19   39 1   
    38   19   40 1   
    39   19   41 1   
    40   20   42 1   
    41   20   43 1   
    42   20   44 1   
    43   21   22 1   
    44   21   24 2   
    45   22   23 1   
    46   22   45 1   
    47   22   47 1   
    48   23   46 1   
@<TRIPOS>SUBSTRUCTURE
     1 MM3         1 TEMP              0 ****  ****    0 ROOT
