@<TRIPOS>MOLECULE
MM7
   38    39     1     0     0
SMALL
bcc


@<TRIPOS>ATOM
      1 P           3.8900    0.1580   -1.1300 p5        1 MM7      1.330900
      2 C1         -2.2530   -0.1930    0.2650 ca        1 MM7     -0.086300
      3 C2         -1.7480    1.0020   -0.2560 ca        1 MM7     -0.068000
      4 C3         -2.6020    2.0020   -0.7190 ca        1 MM7     -0.154000
      5 C4         -3.9870    1.8300   -0.6690 ca        1 MM7     -0.083300
      6 C5         -4.5170    0.6450   -0.1460 ca        1 MM7     -0.217000
      7 C6         -3.6540   -0.3530    0.3170 ca        1 MM7      0.101100
      8 C7         -4.8950    2.8830   -1.1800 c3        1 MM7     -0.038800
      9 C8         -5.4800   -1.6090    1.1830 c3        1 MM7      0.121700
     10 C1'        -1.3200   -1.2650    0.7550 c3        1 MM7      0.192400
     11 OP2         5.3490    0.1160   -0.7930 o         1 MM7     -0.932833
     12 C2'        -0.8150   -2.1520   -0.3870 c3        1 MM7     -0.111400
     13 OP3         3.2670   -1.1260   -1.6410 o         1 MM7     -0.932833
     14 C3'         0.6640   -1.7780   -0.5690 c3        1 MM7      0.156100
     15 O3'         1.4260   -2.9620   -0.6540 oh        1 MM7     -0.674800
     16 C4'         1.0310   -0.9580    0.6840 c3        1 MM7      0.059100
     17 O4'        -0.1950   -0.6710    1.4010 os        1 MM7     -0.444600
     18 C5'         1.7560    0.3710    0.3660 c3        1 MM7      0.226400
     19 O5'         3.1140    0.2160    0.4290 os        1 MM7     -0.560200
     20 H2         -0.6470    1.1370   -0.2850 ha        1 MM7      0.198000
     21 H3         -2.1750    2.9300   -1.1270 ha        1 MM7      0.132000
     22 H5         -5.6060    0.5140   -0.1070 ha        1 MM7      0.111000
     23 H17        -5.1480    2.6830   -2.2520 hc        1 MM7      0.028367
     24 H27        -5.8480    2.9100   -0.5960 hc        1 MM7      0.028367
     25 H37        -4.4130    3.8900   -1.1180 hc        1 MM7      0.028367
     26 H18        -5.7560   -0.7600    1.8550 h1        1 MM7      0.027700
     27 H28        -6.1230   -1.5990    0.2680 h1        1 MM7      0.027700
     28 H38        -5.5860   -2.5850    1.7190 h1        1 MM7      0.027700
     29 H1'        -1.8490   -1.8720    1.5430 h1        1 MM7      0.042700
     30 H12'       -0.9100   -3.2310   -0.1110 hc        1 MM7      0.039700
     31 H22'       -1.3890   -1.9790   -1.3270 hc        1 MM7      0.039700
     32 H3'         0.8180   -1.1670   -1.5010 h1        1 MM7      0.090700
     33 H4'         1.6600   -1.5710    1.3820 h1        1 MM7      0.065700
     34 H15'        1.4400    0.7460   -0.6500 h1        1 MM7     -0.004800
     35 H25'        1.4220    1.1190    1.1470 h1        1 MM7     -0.004800
     36 HO3'        2.3100   -2.6730   -0.9820 ho        1 MM7      0.498000
     37 OP1         3.3560    1.4030   -1.7810 o         1 MM7     -0.932833
     38 O1         -4.1080   -1.5630    0.8300 os        1 MM7     -0.323900
@<TRIPOS>BOND
     1    1   11 1   
     2    1   13 1   
     3    1   19 1   
     4    1   37 1   
     5    2    3 ar  
     6    2    7 ar  
     7    2   10 1   
     8    3    4 ar  
     9    3   20 1   
    10    4    5 ar  
    11    4   21 1   
    12    5    6 ar  
    13    5    8 1   
    14    6    7 ar  
    15    6   22 1   
    16    7   38 1   
    17    8   23 1   
    18    8   24 1   
    19    8   25 1   
    20    9   26 1   
    21    9   27 1   
    22    9   28 1   
    23    9   38 1   
    24   10   12 1   
    25   10   17 1   
    26   10   29 1   
    27   12   14 1   
    28   12   30 1   
    29   12   31 1   
    30   14   15 1   
    31   14   16 1   
    32   14   32 1   
    33   15   36 1   
    34   16   17 1   
    35   16   18 1   
    36   16   33 1   
    37   18   19 1   
    38   18   34 1   
    39   18   35 1   
@<TRIPOS>SUBSTRUCTURE
     1 MM7         1 TEMP              0 ****  ****    0 ROOT
