@<TRIPOS>MOLECULE
MM7
   38    35     1     0     0
SMALL
bcc


@<TRIPOS>ATOM
      1 P           2.5180   -3.2380    4.2270 p3        1 MM7      2.523000
      2 C1         -0.3400    0.5300   -0.9150 c1        1 MM7     -0.079000
      3 O1          0.1040    2.9380   -1.0880 os        1 MM7     -0.207000
      4 C2         -0.4770   -0.7090   -1.5040 c1        1 MM7     -0.068000
      5 C3         -0.3750   -0.8390   -2.8960 c1        1 MM7     -0.154000
      6 C4         -0.1380    0.2650   -3.6750 c2        1 MM7     -0.076000
      7 C5          0.0020    1.5180   -3.0840 c1        1 MM7     -0.217000
      8 C6         -0.1000    1.6500   -1.7030 c1        1 MM7      0.056000
      9 C7         -0.0910    0.1220   -5.2740 c3        1 MM7     -0.165000
     10 C8         -0.3260    4.0210   -1.8870 c3        1 MM7     -0.068000
     11 C1'        -0.3150    0.6490    0.6290 c3        1 MM7      0.074000
     12 OP2         4.0170   -3.2670    4.3840 os        1 MM7     -1.233000
     13 C2'        -1.4250    0.3150    1.1030 c3        1 MM7     -0.190000
     14 OP3         1.8920   -3.0390    5.5420 o         1 MM7     -1.262000
     15 C3'        -1.1140   -0.3290    2.4120 c3        1 MM7      0.045000
     16 O3'        -1.4740    0.5150    3.4540 oh        1 MM7     -0.402000
     17 C4'         0.4310   -0.5610    2.4120 c3        1 MM7     -0.052000
     18 O4'         0.7650   -0.3610    1.2400 os        1 MM7     -0.301000
     19 C5'         0.7740   -2.0570    2.8450 c3        1 MM7      0.076000
     20 O5'         2.1280   -2.1160    3.3160 os        1 MM7     -0.722000
     21 H2         -0.6170   -1.5290   -0.9300 ha        1 MM7      0.198000
     22 H3         -0.5480   -1.6580   -3.2970 DU        1 MM7      0.132000
     23 H5          0.2460    2.2590   -3.6100 ha        1 MM7      0.111000
     24 H17        -0.8830    0.5510   -5.6650 hc        1 MM7      0.067667
     25 H27        -0.0800   -0.8690   -5.5300 hc        1 MM7      0.067667
     26 H37         0.7160    0.5540   -5.6160 hc        1 MM7      0.067667
     27 H18        -0.3840    4.8290   -1.3400 h1        1 MM7      0.067000
     28 H28         0.2680    4.1540   -2.5580 h1        1 MM7      0.067000
     29 H38        -1.2440    3.8080   -2.2810 h1        1 MM7      0.067000
     30 H1'        -0.1150    1.5080    0.8740 h1        1 MM7      0.082000
     31 H12'       -1.9890    1.1080    1.2420 hc        1 MM7      0.079000
     32 H22'       -1.8710   -0.3180    0.5090 hc        1 MM7      0.079000
     33 H3'        -1.5900   -1.1970    2.4930 h1        1 MM7      0.130000
     34 H4'         0.8510    0.0480    2.9770 h1        1 MM7      0.105000
     35 H15'        0.6780   -2.6070    2.1340 h1        1 MM7      0.034500
     36 H25'        0.1890   -2.3280    3.5330 h1        1 MM7      0.034500
     37 HO3'       -2.1470    0.1850    3.8710 ho        1 MM7      0.297000
     38 OP1         2.0630   -4.5060    3.6560 o         1 MM7     -1.262000
@<TRIPOS>BOND
     1    1   14 1   
     2    1   20 1   
     3    1   38 1   
     4    2    8 1   
     5    2   11 1   
     6    3    8 1   
     7    3   10 1   
     8    4    5 1   
     9    4   21 1   
    10    5    6 1   
    11    6    7 1   
    12    6    9 1   
    13    7   23 1   
    14    9   24 1   
    15    9   25 1   
    16    9   26 1   
    17   10   27 1   
    18   10   28 1   
    19   10   29 1   
    20   11   13 1   
    21   11   18 1   
    22   11   30 1   
    23   13   15 1   
    24   13   31 1   
    25   13   32 1   
    26   15   16 1   
    27   15   17 1   
    28   15   33 1   
    29   16   37 1   
    30   17   18 1   
    31   17   19 1   
    32   17   34 1   
    33   19   20 1   
    34   19   35 1   
    35   19   36 1   
@<TRIPOS>SUBSTRUCTURE
     1 MM7         1 TEMP              0 ****  ****    0 ROOT
