@<TRIPOS>MOLECULE
MM9
   73    75     1     0     0
SMALL
bcc


@<TRIPOS>ATOM
      1 C1          0.1500   -0.4110   -0.1510 c3        1 MM9     -0.088700
      2 C2          1.6750   -0.3660   -0.1700 c3        1 MM9     -0.080400
      3 C3          2.2330   -0.6190    1.2190 c3        1 MM9     -0.081900
      4 C4          1.6800    0.3670    2.2240 c3        1 MM9     -0.089400
      5 C5          0.1670    0.3500    2.2340 c3        1 MM9     -0.081900
      6 C6         -0.4050    0.5940    0.8480 c3        1 MM9     -0.080400
      7 N7         -1.9110   -0.3220   -1.6360 ny        1 MM9     -0.764000
      8 C8         -0.3940   -0.2150   -1.5840 c3        1 MM9      0.071500
      9 C9         -0.0240    1.1930   -2.1340 c         1 MM9      0.644100
     10 O0         -0.6900    2.1750   -1.7580 o         1 MM9     -0.553100
     11 N11         0.9460    1.3200   -3.1010 n         1 MM9     -0.444800
     12 C12         1.6470    2.5750   -3.4280 cy        1 MM9      0.016700
     13 C13         0.9930    3.4080   -4.5180 c         1 MM9      0.536100
     14 O14        -0.1270    3.2940   -4.9800 o         1 MM9     -0.367100
     15 N15         1.8660    4.5150   -5.0850 ny        1 MM9     -0.680800
     16 C16         1.0830    5.7470   -5.4530 c3        1 MM9      0.163100
     17 C17         1.9040    6.7580   -6.1880 ca        1 MM9     -0.149300
     18 C18         2.0060    6.6970   -7.5840 ca        1 MM9     -0.089000
     19 C19         2.6800    7.6990   -8.2840 ca        1 MM9     -0.080000
     20 C20         3.2540    8.7690   -7.5880 ca        1 MM9     -0.199900
     21 C21         3.1590    8.8340   -6.1930 ca        1 MM9     -0.080000
     22 C22         2.4850    7.8280   -5.4960 ca        1 MM9     -0.089000
     23 C23         4.0290    9.8030   -8.3260 ce        1 MM9      0.558800
     24 N24         5.2620    9.8430   -8.6440 n2        1 MM9     -0.658100
     25 N25         3.1920   10.9760   -8.7520 nz        1 MM9     -0.818600
     26 C26         2.8740    1.7280   -3.8890 cy        1 MM9     -0.103400
     27 C27         2.0880    0.4600   -3.4660 cy        1 MM9      0.080000
     28 C28        -2.4390   -1.5700   -1.0160 c3        1 MM9      0.026800
     29 C10        -5.0940   -3.9510   -1.6840 c3        1 MM9      0.078600
     30 C29        -3.9030   -1.8230   -1.3820 c         1 MM9      0.504100
     31 O30        -4.5150   -1.1620   -2.2100 o         1 MM9     -0.372100
     32 C30        -5.7360   -2.4290    0.1360 c3        1 MM9      0.078600
     33 N2         -4.5960   -2.9530   -0.6840 nx        1 MM9     -0.566200
     34 H22         1.8130    3.2360   -2.5310 h1        1 MM9      0.133700
     35 H1         -0.1370   -1.4510    0.1820 hc        1 MM9      0.068700
     36 H21C        2.0170    0.6410   -0.5250 hc        1 MM9      0.044200
     37 H22C        2.0670   -1.1500   -0.8710 hc        1 MM9      0.044200
     38 H61C       -1.5220    0.5160    0.9050 hc        1 MM9      0.044200
     39 H62C       -0.1540    1.6380    0.5200 hc        1 MM9      0.044200
     40 H8          0.0170   -1.0310   -2.2510 hx        1 MM9      0.123700
     41 H31C        1.9890   -1.6670    1.5380 hc        1 MM9      0.073950
     42 H32C        3.3520   -0.5350    1.1820 hc        1 MM9      0.073950
     43 H41C        2.0620    0.1080    3.2490 hc        1 MM9      0.077200
     44 H42C        2.0460    1.4010    1.9860 hc        1 MM9      0.077200
     45 H51C       -0.2140    1.1450    2.9290 hc        1 MM9      0.073950
     46 H52C       -0.1950   -0.6380    2.6230 hc        1 MM9      0.073950
     47 H7         -2.2930    0.5060   -1.1390 hn        1 MM9      0.485300
     48 H281       -1.8170   -2.4490   -1.3710 hx        1 MM9      0.160200
     49 H282       -2.3300   -1.4800    0.1110 hx        1 MM9      0.160200
     50 H271        2.5450   -0.1020   -2.6130 h1        1 MM9      0.103700
     51 H272        1.8310   -0.2390   -4.3020 h1        1 MM9      0.103700
     52 H261        3.1050    1.7770   -4.9750 hc        1 MM9      0.107200
     53 H262        3.7960    1.9140   -3.2910 hc        1 MM9      0.107200
     54 H15         2.3300    4.1560   -5.9310 hn        1 MM9      0.464800
     55 H161        0.6760    6.1860   -4.4950 hx        1 MM9      0.130700
     56 H162        0.2090    5.4150   -6.0930 hx        1 MM9      0.130700
     57 H18         1.5370    5.8730   -8.1480 ha        1 MM9      0.166000
     58 HA          2.4000    7.9030   -4.3990 ha        1 MM9      0.166000
     59 H19         2.7550    7.6350   -9.3840 ha        1 MM9      0.180000
     60 H21         3.6150    9.6680   -5.6330 ha        1 MM9      0.180000
     61 H24         5.8790    9.0970   -8.3930 hn        1 MM9      0.500400
     62 H251        2.7840   11.4150   -7.9200 hn        1 MM9      0.482467
     63 H252        2.4410   10.6440   -9.3680 hn        1 MM9      0.482467
     64 H101       -5.6330   -4.7740   -1.1320 hx        1 MM9      0.132200
     65 H102       -4.2260   -4.3830   -2.2490 hx        1 MM9      0.132200
     66 H103       -5.8100   -3.4490   -2.3920 hx        1 MM9      0.132200
     67 H301       -6.4680   -1.8990   -0.5350 hx        1 MM9      0.132200
     68 H302       -5.3460   -1.7270    0.9200 hx        1 MM9      0.132200
     69 H303       -6.2520   -3.3000    0.6320 hx        1 MM9      0.132200
     70 H72        -2.2170   -0.2640   -2.6190 hn        1 MM9      0.485300
     71 H152        2.5940    4.7640   -4.4070 hn        1 MM9      0.464800
     72 H253        3.7560   11.6790   -9.2600 hn        1 MM9      0.482467
     73 H211       -3.9320   -3.4270   -0.0540 hn        1 MM9      0.467800
@<TRIPOS>BOND
     1    1    2 1   
     2    1    6 1   
     3    1    8 1   
     4    1   35 1   
     5    2    3 1   
     6    2   36 1   
     7    2   37 1   
     8    3    4 1   
     9    3   41 1   
    10    3   42 1   
    11    4    5 1   
    12    4   43 1   
    13    4   44 1   
    14    5    6 1   
    15    5   45 1   
    16    5   46 1   
    17    6   38 1   
    18    6   39 1   
    19    7    8 1   
    20    7   28 1   
    21    7   47 1   
    22    7   70 1   
    23    8    9 1   
    24    8   40 1   
    25    9   10 2   
    26    9   11 1   
    27   11   12 1   
    28   11   27 1   
    29   12   13 1   
    30   12   26 1   
    31   12   34 1   
    32   13   14 2   
    33   13   15 1   
    34   15   16 1   
    35   15   54 1   
    36   15   71 1   
    37   16   17 1   
    38   16   55 1   
    39   16   56 1   
    40   17   18 ar  
    41   17   22 ar  
    42   18   19 ar  
    43   18   57 1   
    44   19   20 ar  
    45   19   59 1   
    46   20   21 ar  
    47   20   23 1   
    48   21   22 ar  
    49   21   60 1   
    50   22   58 1   
    51   23   24 2   
    52   23   25 1   
    53   24   61 1   
    54   25   62 1   
    55   25   63 1   
    56   25   72 1   
    57   26   27 1   
    58   26   52 1   
    59   26   53 1   
    60   27   50 1   
    61   27   51 1   
    62   28   30 1   
    63   28   48 1   
    64   28   49 1   
    65   29   33 1   
    66   29   64 1   
    67   29   65 1   
    68   29   66 1   
    69   30   31 2   
    70   30   33 1   
    71   32   33 1   
    72   32   67 1   
    73   32   68 1   
    74   32   69 1   
    75   33   73 1   
@<TRIPOS>SUBSTRUCTURE
     1 MM9         1 TEMP              0 ****  ****    0 ROOT
