@<TRIPOS>MOLECULE
MM9
   73    75     1     0     0
SMALL
bcc


@<TRIPOS>ATOM
      1 C1          0.1580   -0.4130   -0.1690 c3        1 MM9     -0.088700
      2 C2          1.6830   -0.3670   -0.1900 c3        1 MM9     -0.080400
      3 C3          2.2430   -0.6180    1.1990 c3        1 MM9     -0.081900
      4 C4          1.6910    0.3700    2.2030 c3        1 MM9     -0.089400
      5 C5          0.1780    0.3520    2.2150 c3        1 MM9     -0.081900
      6 C6         -0.3960    0.5930    0.8300 c3        1 MM9     -0.080400
      7 N7         -1.9050   -0.3270   -1.6510 n4        1 MM9     -0.764000
      8 C8         -0.3890   -0.2200   -1.6010 c3        1 MM9      0.071500
      9 C9         -0.0190    1.1880   -2.1550 c         1 MM9      0.644100
     10 O0         -0.6830    2.1700   -1.7770 o         1 MM9     -0.552100
     11 N11         0.9470    1.3110   -3.1260 n         1 MM9     -0.444800
     12 C12         1.6460    2.5660   -3.4580 cy        1 MM9      0.016700
     13 C13         0.9890    3.3950   -4.5490 c         1 MM9      0.537100
     14 O14        -0.1430    3.3010   -4.9850 o         1 MM9     -0.368100
     15 N15         1.8720    4.4710   -5.1570 n4        1 MM9     -0.680800
     16 C16         1.1620    5.7930   -5.2940 c3        1 MM9      0.164100
     17 C17         1.9380    6.7860   -6.0990 ca        1 MM9     -0.149300
     18 C18         1.8140    6.8060   -7.4950 ca        1 MM9     -0.089000
     19 C19         2.4530    7.7960   -8.2430 ca        1 MM9     -0.080000
     20 C20         3.2180    8.7740   -7.5960 ca        1 MM9     -0.199900
     21 C21         3.3470    8.7570   -6.2020 ca        1 MM9     -0.080000
     22 C22         2.7080    7.7630   -5.4570 ca        1 MM9     -0.089000
     23 C23         3.9530    9.7890   -8.3960 ce        1 MM9      0.558800
     24 N24         5.1130    9.7460   -8.9230 n2        1 MM9     -0.658100
     25 N25         3.1740   11.0580   -8.6000 n4        1 MM9     -0.818600
     26 C26         2.8750    1.7200   -3.9160 cy        1 MM9     -0.104400
     27 C27         2.0910    0.4520   -3.4880 cy        1 MM9      0.079000
     28 C28        -2.4320   -1.5740   -1.0280 c3        1 MM9      0.026800
     29 C10        -5.0880   -3.9570   -1.6900 c3        1 MM9      0.078600
     30 C29        -3.8970   -1.8280   -1.3920 c         1 MM9      0.504100
     31 O30        -4.5100   -1.1680   -2.2200 o         1 MM9     -0.372100
     32 C30        -5.7280   -2.4330    0.1290 c3        1 MM9      0.078600
     33 N2         -4.5880   -2.9570   -0.6920 n4        1 MM9     -0.566200
     34 H22         1.8130    3.2320   -2.5650 h1        1 MM9      0.135700
     35 H1         -0.1290   -1.4530    0.1670 hc        1 MM9      0.068700
     36 H21C        2.0750   -1.1520   -0.8900 hc        1 MM9      0.044200
     37 H22C        2.0230    0.6400   -0.5470 hc        1 MM9      0.044200
     38 H61C       -1.5140    0.5150    0.8890 hc        1 MM9      0.044200
     39 H62C       -0.1470    1.6370    0.4990 hc        1 MM9      0.044200
     40 H8          0.0210   -1.0370   -2.2670 hx        1 MM9      0.123700
     41 H31C        3.3620   -0.5330    1.1600 hc        1 MM9      0.073700
     42 H32C        2.0000   -1.6650    1.5200 hc        1 MM9      0.073700
     43 H41C        2.0740    0.1130    3.2280 hc        1 MM9      0.077200
     44 H42C        2.0560    1.4030    1.9630 hc        1 MM9      0.077200
     45 H51C       -0.1830   -0.6360    2.6060 hc        1 MM9      0.073700
     46 H52C       -0.2030    1.1480    2.9100 hc        1 MM9      0.073700
     47 H7         -2.2130   -0.2700   -2.6330 hn        1 MM9      0.485300
     48 H281       -2.3220   -1.4830    0.0980 hx        1 MM9      0.160200
     49 H282       -1.8100   -2.4530   -1.3830 hx        1 MM9      0.160200
     50 H271        1.8350   -0.2500   -4.3210 h1        1 MM9      0.103700
     51 H272        2.5500   -0.1050   -2.6330 h1        1 MM9      0.103700
     52 H261        3.7960    1.9100   -3.3200 hc        1 MM9      0.107200
     53 H262        3.1050    1.7640   -5.0020 hc        1 MM9      0.107200
     54 H15         2.1600    4.1590   -6.0950 hn        1 MM9      0.464800
     55 H161        0.9760    6.1860   -4.2510 hx        1 MM9      0.130200
     56 H162        0.1630    5.5890   -5.7860 hx        1 MM9      0.130200
     57 H18         1.1940    6.0570   -8.0160 ha        1 MM9      0.166500
     58 HA          2.8040    7.7750   -4.3580 ha        1 MM9      0.166500
     59 H19         2.3490    7.7960   -9.3430 ha        1 MM9      0.180000
     60 H21         3.9550    9.5180   -5.6810 ha        1 MM9      0.180000
     61 H24         5.6870    8.9340   -8.8280 hn        1 MM9      0.500400
     62 H251        2.9530   11.4650   -7.6840 hn        1 MM9      0.482467
     63 H252        3.7130   11.7480   -9.1520 hn        1 MM9      0.482467
     64 H101       -5.6260   -4.7790   -1.1370 hx        1 MM9      0.132200
     65 H102       -5.8050   -3.4550   -2.3980 hx        1 MM9      0.132200
     66 H103       -4.2210   -4.3890   -2.2560 hx        1 MM9      0.132200
     67 H301       -5.3370   -1.7300    0.9110 hx        1 MM9      0.132200
     68 H302       -6.4610   -1.9030   -0.5420 hx        1 MM9      0.132200
     69 H303       -6.2430   -3.3030    0.6270 hx        1 MM9      0.132200
     70 H72        -2.2870    0.5020   -1.1540 hn        1 MM9      0.485300
     71 H152        2.7180    4.5930   -4.5900 hn        1 MM9      0.464800
     72 H253        2.3040   10.8400   -9.0980 hn        1 MM9      0.482467
     73 H211       -3.9240   -3.4300   -0.0630 hn        1 MM9      0.467800
@<TRIPOS>BOND
     1    1    2 1   
     2    1    6 1   
     3    1    8 1   
     4    1   35 1   
     5    2    3 1   
     6    2   36 1   
     7    2   37 1   
     8    3    4 1   
     9    3   41 1   
    10    3   42 1   
    11    4    5 1   
    12    4   43 1   
    13    4   44 1   
    14    5    6 1   
    15    5   45 1   
    16    5   46 1   
    17    6   38 1   
    18    6   39 1   
    19    7    8 1   
    20    7   28 1   
    21    7   47 1   
    22    7   70 1   
    23    8    9 1   
    24    8   40 1   
    25    9   10 2   
    26    9   11 1   
    27   11   12 1   
    28   11   27 1   
    29   12   13 1   
    30   12   26 1   
    31   12   34 1   
    32   13   14 2   
    33   13   15 1   
    34   15   16 1   
    35   15   54 1   
    36   15   71 1   
    37   16   17 1   
    38   16   55 1   
    39   16   56 1   
    40   17   18 ar  
    41   17   22 ar  
    42   18   19 ar  
    43   18   57 1   
    44   19   20 ar  
    45   19   59 1   
    46   20   21 ar  
    47   20   23 1   
    48   21   22 ar  
    49   21   60 1   
    50   22   58 1   
    51   23   24 2   
    52   23   25 1   
    53   24   61 1   
    54   25   62 1   
    55   25   63 1   
    56   25   72 1   
    57   26   27 1   
    58   26   52 1   
    59   26   53 1   
    60   27   50 1   
    61   27   51 1   
    62   28   30 1   
    63   28   48 1   
    64   28   49 1   
    65   29   33 1   
    66   29   64 1   
    67   29   65 1   
    68   29   66 1   
    69   30   31 2   
    70   30   33 1   
    71   32   33 1   
    72   32   67 1   
    73   32   68 1   
    74   32   69 1   
    75   33   73 1   
@<TRIPOS>SUBSTRUCTURE
     1 MM9         1 TEMP              0 ****  ****    0 ROOT
