@<TRIPOS>MOLECULE
MM9
   73    75     1     0     0
SMALL
bcc


@<TRIPOS>ATOM
      1 C1          0.1430   -0.4010   -0.1500 c3        1 MM9     -0.088700
      2 C2          1.6670   -0.3480   -0.1560 c3        1 MM9     -0.080400
      3 C3          2.2140   -0.5900    1.2390 c3        1 MM9     -0.081900
      4 C4          1.6480    0.4000    2.2330 c3        1 MM9     -0.089400
      5 C5          0.1350    0.3750    2.2300 c3        1 MM9     -0.081900
      6 C6         -0.4260    0.6070    0.8390 c3        1 MM9     -0.080400
      7 N7         -1.9060   -0.3320   -1.6530 n4        1 MM9     -0.764000
      8 C8         -0.3910   -0.2170   -1.5880 c3        1 MM9      0.071500
      9 C9         -0.0220    1.1890   -2.1450 c         1 MM9      0.644100
     10 O0         -0.6950    2.1700   -1.7790 o         1 MM9     -0.552100
     11 N11         0.9530    1.3140   -3.1060 n         1 MM9     -0.444800
     12 C12         1.6500    2.5700   -3.4370 cy        1 MM9      0.016700
     13 C13         1.0010    3.3920   -4.5380 c         1 MM9      0.537100
     14 O14        -0.1220    3.2820   -4.9940 o         1 MM9     -0.368100
     15 N15         1.8820    4.4780   -5.1300 n4        1 MM9     -0.680800
     16 C16         1.1400    5.7710   -5.3490 c3        1 MM9      0.164100
     17 C17         1.9330    6.7690   -6.1310 ca        1 MM9     -0.149300
     18 C18         1.8950    6.7520   -7.5310 ca        1 MM9     -0.089000
     19 C19         2.5470    7.7450   -8.2650 ca        1 MM9     -0.079500
     20 C20         3.2400    8.7620   -7.5970 ca        1 MM9     -0.199900
     21 C21         3.2830    8.7820   -6.1990 ca        1 MM9     -0.079500
     22 C22         2.6310    7.7860   -5.4680 ca        1 MM9     -0.089000
     23 C23         3.9900    9.7810   -8.3770 ce        1 MM9      0.558800
     24 N24         5.1850    9.7700   -8.8210 n2        1 MM9     -0.658100
     25 N25         3.1810   11.0130   -8.6730 n4        1 MM9     -0.818600
     26 C26         2.8870    1.7280   -3.8790 cy        1 MM9     -0.104400
     27 C27         2.1040    0.4580   -3.4530 cy        1 MM9      0.079000
     28 C28        -2.4330   -1.5780   -1.0300 c3        1 MM9      0.026800
     29 C10        -5.0720   -3.9760   -1.7060 c3        1 MM9      0.078600
     30 C29        -3.8930   -1.8410   -1.4060 c         1 MM9      0.504100
     31 O30        -4.5020   -1.1870   -2.2430 o         1 MM9     -0.372100
     32 C30        -5.7360   -2.4470    0.1000 c3        1 MM9      0.078600
     33 N2         -4.5860   -2.9700   -0.7080 n4        1 MM9     -0.566200
     34 H22         1.8050    3.2400   -2.5440 h1        1 MM9      0.134700
     35 H1         -0.1420   -1.4410    0.1880 hc        1 MM9      0.068700
     36 H21C        2.0070    0.6580   -0.5150 hc        1 MM9      0.044200
     37 H22C        2.0700   -1.1340   -0.8480 hc        1 MM9      0.044200
     38 H61C       -0.1780    1.6500    0.5050 hc        1 MM9      0.044200
     39 H62C       -1.5440    0.5240    0.8860 hc        1 MM9      0.044200
     40 H8          0.0300   -1.0350   -2.2460 hx        1 MM9      0.123700
     41 H31C        1.9740   -1.6360    1.5630 hc        1 MM9      0.073700
     42 H32C        3.3330   -0.5000    1.2110 hc        1 MM9      0.073700
     43 H41C        2.0110    1.4340    1.9920 hc        1 MM9      0.077200
     44 H42C        2.0220    0.1500    3.2630 hc        1 MM9      0.077200
     45 H51C       -0.2560    1.1730    2.9170 hc        1 MM9      0.073700
     46 H52C       -0.2250   -0.6120    2.6220 hc        1 MM9      0.073700
     47 H7         -2.2970    0.4980   -1.1640 hn        1 MM9      0.485300
     48 H281       -1.8040   -2.4560   -1.3740 hx        1 MM9      0.160200
     49 H282       -2.3350   -1.4810    0.0970 hx        1 MM9      0.160200
     50 H271        1.8600   -0.2490   -4.2860 h1        1 MM9      0.103700
     51 H272        2.5570   -0.0940   -2.5920 h1        1 MM9      0.103700
     52 H261        3.1280    1.7680   -4.9620 hc        1 MM9      0.107200
     53 H262        3.8020    1.9240   -3.2740 hc        1 MM9      0.107200
     54 H15         2.2340    4.1470   -6.0400 hn        1 MM9      0.465300
     55 H161        0.1810    5.5210   -5.8970 hx        1 MM9      0.130200
     56 H162        0.8740    6.1840   -4.3310 hx        1 MM9      0.130200
     57 H18         1.3330    5.9710   -8.0700 ha        1 MM9      0.166500
     58 HA          2.6590    7.8270   -4.3660 ha        1 MM9      0.166500
     59 H19         2.5120    7.7150   -9.3680 ha        1 MM9      0.180000
     60 H21         3.8330    9.5750   -5.6610 ha        1 MM9      0.180000
     61 H24         5.7810    8.9840   -8.6620 hn        1 MM9      0.500400
     62 H251        3.7290   11.7060   -9.2110 hn        1 MM9      0.482467
     63 H252        2.8840   11.4380   -7.7880 hn        1 MM9      0.482467
     64 H101       -5.7850   -3.4810   -2.4230 hx        1 MM9      0.132200
     65 H102       -4.1970   -4.4070   -2.2620 hx        1 MM9      0.132200
     66 H103       -5.6110   -4.7990   -1.1550 hx        1 MM9      0.132200
     67 H301       -6.2510   -3.3180    0.5970 hx        1 MM9      0.132200
     68 H302       -5.3550   -1.7390    0.8830 hx        1 MM9      0.132200
     69 H303       -6.4650   -1.9240   -0.5800 hx        1 MM9      0.132200
     70 H72        -2.2050   -0.2810   -2.6390 hn        1 MM9      0.485300
     71 H152        2.6890    4.6460   -4.5200 hn        1 MM9      0.465300
     72 H253        2.3540   10.7460   -9.2200 hn        1 MM9      0.482467
     73 H211       -3.9260   -3.4370   -0.0700 hn        1 MM9      0.467800
@<TRIPOS>BOND
     1    1    2 1   
     2    1    6 1   
     3    1    8 1   
     4    1   35 1   
     5    2    3 1   
     6    2   36 1   
     7    2   37 1   
     8    3    4 1   
     9    3   41 1   
    10    3   42 1   
    11    4    5 1   
    12    4   43 1   
    13    4   44 1   
    14    5    6 1   
    15    5   45 1   
    16    5   46 1   
    17    6   38 1   
    18    6   39 1   
    19    7    8 1   
    20    7   28 1   
    21    7   47 1   
    22    7   70 1   
    23    8    9 1   
    24    8   40 1   
    25    9   10 2   
    26    9   11 1   
    27   11   12 1   
    28   11   27 1   
    29   12   13 1   
    30   12   26 1   
    31   12   34 1   
    32   13   14 2   
    33   13   15 1   
    34   15   16 1   
    35   15   54 1   
    36   15   71 1   
    37   16   17 1   
    38   16   55 1   
    39   16   56 1   
    40   17   18 ar  
    41   17   22 ar  
    42   18   19 ar  
    43   18   57 1   
    44   19   20 ar  
    45   19   59 1   
    46   20   21 ar  
    47   20   23 1   
    48   21   22 ar  
    49   21   60 1   
    50   22   58 1   
    51   23   24 2   
    52   23   25 1   
    53   24   61 1   
    54   25   62 1   
    55   25   63 1   
    56   25   72 1   
    57   26   27 1   
    58   26   52 1   
    59   26   53 1   
    60   27   50 1   
    61   27   51 1   
    62   28   30 1   
    63   28   48 1   
    64   28   49 1   
    65   29   33 1   
    66   29   64 1   
    67   29   65 1   
    68   29   66 1   
    69   30   31 2   
    70   30   33 1   
    71   32   33 1   
    72   32   67 1   
    73   32   68 1   
    74   32   69 1   
    75   33   73 1   
@<TRIPOS>SUBSTRUCTURE
     1 MM9         1 TEMP              0 ****  ****    0 ROOT
