@<TRIPOS>MOLECULE
MM9
   69    71     1     0     0
SMALL
bcc


@<TRIPOS>ATOM
      1 C1         -3.3090    1.3560    0.0560 c3        1 MM9     -0.086700
      2 C2         -3.1270    2.5490    0.9830 c3        1 MM9     -0.081900
      3 C3         -3.8100    3.7830    0.4310 c3        1 MM9     -0.073400
      4 C4         -3.3170    4.1040   -0.9650 c3        1 MM9     -0.079400
      5 C5         -3.4950    2.9190   -1.8900 c3        1 MM9     -0.073400
      6 C6         -2.8170    1.6780   -1.3460 c3        1 MM9     -0.081900
      7 N7         -2.8930   -1.1630   -0.0070 n3        1 MM9     -0.807200
      8 C8         -2.6440    0.1020    0.6660 c3        1 MM9      0.127500
      9 C9         -1.1110    0.2970    0.7460 c         1 MM9      0.681100
     10 O0         -0.3890    0.2840   -0.2720 o         1 MM9     -0.619100
     11 N11        -0.5360    0.4080    1.9870 n         1 MM9     -0.475800
     12 C12         0.8160    0.8700    2.3230 cy        1 MM9      0.025700
     13 C13         1.9330   -0.1710    2.2510 c         1 MM9      0.661100
     14 O14         2.7020   -0.3320    3.2210 o         1 MM9     -0.624100
     15 N15         2.0400   -0.8930    1.0870 n         1 MM9     -0.548900
     16 C16         3.1160   -1.8180    0.8600 c3        1 MM9      0.133300
     17 C17         4.3350   -1.2200    0.2110 ca        1 MM9     -0.107300
     18 C18         5.1710   -0.3790    0.9540 ca        1 MM9     -0.123500
     19 C19         6.3180    0.1600    0.3740 ca        1 MM9     -0.104000
     20 C20         6.6360   -0.1460   -0.9540 ca        1 MM9     -0.139900
     21 C21         5.7970   -0.9770   -1.7020 ca        1 MM9     -0.104000
     22 C22         4.6480   -1.5100   -1.1190 ca        1 MM9     -0.123500
     23 C23         7.8730    0.4290   -1.5730 ce        1 MM9      0.650800
     24 N24         8.0730    1.7100   -1.4870 n2        1 MM9     -0.825100
     25 N25         8.6690   -0.5160   -2.2590 nh        1 MM9     -0.958800
     26 C26         0.3060    1.1800    3.7620 cy        1 MM9     -0.094400
     27 C27        -1.1030    0.7240    3.2970 cy        1 MM9      0.084000
     28 C28        -4.2400   -1.6630    0.0680 c3        1 MM9      0.108800
     29 C10        -7.4080   -1.3350   -2.0920 c3        1 MM9      0.079800
     30 C29        -5.1510   -1.3370   -1.1260 c         1 MM9      0.620100
     31 O30        -4.6850   -0.8640   -2.1830 o         1 MM9     -0.611100
     32 C30        -7.0530   -2.1680    0.1900 c3        1 MM9      0.079800
     33 N2         -6.5030   -1.6190   -1.0140 n         1 MM9     -0.480800
     34 H22         1.1390    1.7690    1.7350 h1        1 MM9      0.087700
     35 H1         -4.4140    1.1330   -0.0140 hc        1 MM9      0.052700
     36 H21C       -3.5520    2.3110    1.9940 hc        1 MM9      0.051700
     37 H22C       -2.0320    2.7560    1.1130 hc        1 MM9      0.051700
     38 H61C       -1.7060    1.8290   -1.3340 hc        1 MM9      0.051700
     39 H62C       -3.0370    0.8130   -2.0280 hc        1 MM9      0.051700
     40 H8         -3.0560   -0.0010    1.7170 h1        1 MM9      0.058700
     41 H31C       -4.9190    3.6170    0.4070 hc        1 MM9      0.040700
     42 H32C       -3.6130    4.6520    1.1110 hc        1 MM9      0.040700
     43 H41C       -3.8800    4.9860   -1.3670 hc        1 MM9      0.040200
     44 H42C       -2.2330    4.3870   -0.9220 hc        1 MM9      0.040200
     45 H51C       -4.5890    2.7160   -2.0320 hc        1 MM9      0.040700
     46 H52C       -3.0650    3.1610   -2.8970 hc        1 MM9      0.040700
     47 H7         -2.5600   -1.1330   -0.9570 hn        1 MM9      0.406800
     48 H281       -4.1570   -2.7910    0.1030 h1        1 MM9      0.072200
     49 H282       -4.7330   -1.3160    1.0190 h1        1 MM9      0.072200
     50 H271       -1.8750    1.5330    3.2780 h1        1 MM9      0.057700
     51 H272       -1.5070   -0.1790    3.8170 h1        1 MM9      0.057700
     52 H261        0.7700    0.5420    4.5450 hc        1 MM9      0.080700
     53 H262        0.3760    2.2510    4.0420 hc        1 MM9      0.080700
     54 H15         1.4810   -0.6340    0.3030 hn        1 MM9      0.344500
     55 H161        3.4250   -2.2600    1.8530 h1        1 MM9      0.066700
     56 H162        2.7170   -2.6500    0.2090 h1        1 MM9      0.066700
     57 H18         4.9110   -0.1450    2.0000 ha        1 MM9      0.146000
     58 HA          3.9860   -2.1590   -1.7130 ha        1 MM9      0.146000
     59 H19         6.9650    0.8340    0.9560 ha        1 MM9      0.145500
     60 H21         6.0300   -1.2000   -2.7540 ha        1 MM9      0.145500
     61 H24         8.9070    2.0590   -1.9090 hn        1 MM9      0.380400
     62 H251        8.5180   -1.4640   -2.0050 hn        1 MM9      0.397300
     63 H252        9.6240   -0.2780   -2.3980 hn        1 MM9      0.397300
     64 H101       -7.9110   -2.2820   -2.4290 h1        1 MM9      0.043033
     65 H102       -8.1960   -0.6110   -1.7510 h1        1 MM9      0.043033
     66 H103       -6.8510   -0.8890   -2.9590 h1        1 MM9      0.043033
     67 H301       -8.1060   -2.5120    0.0060 h1        1 MM9      0.043033
     68 H302       -6.4460   -3.0470    0.5370 h1        1 MM9      0.043033
     69 H303       -7.0690   -1.3970    1.0090 h1        1 MM9      0.043033
@<TRIPOS>BOND
     1    1    2 1   
     2    1    6 1   
     3    1    8 1   
     4    1   35 1   
     5    2    3 1   
     6    2   36 1   
     7    2   37 1   
     8    3    4 1   
     9    3   41 1   
    10    3   42 1   
    11    4    5 1   
    12    4   43 1   
    13    4   44 1   
    14    5    6 1   
    15    5   45 1   
    16    5   46 1   
    17    6   38 1   
    18    6   39 1   
    19    7    8 1   
    20    7   28 1   
    21    7   47 1   
    22    8    9 1   
    23    8   40 1   
    24    9   10 2   
    25    9   11 1   
    26   11   12 1   
    27   11   27 1   
    28   12   13 1   
    29   12   26 1   
    30   12   34 1   
    31   13   14 2   
    32   13   15 1   
    33   15   16 1   
    34   15   54 1   
    35   16   17 1   
    36   16   55 1   
    37   16   56 1   
    38   17   18 ar  
    39   17   22 ar  
    40   18   19 ar  
    41   18   57 1   
    42   19   20 ar  
    43   19   59 1   
    44   20   21 ar  
    45   20   23 1   
    46   21   22 ar  
    47   21   60 1   
    48   22   58 1   
    49   23   24 2   
    50   23   25 1   
    51   24   61 1   
    52   25   62 1   
    53   25   63 1   
    54   26   27 1   
    55   26   52 1   
    56   26   53 1   
    57   27   50 1   
    58   27   51 1   
    59   28   30 1   
    60   28   48 1   
    61   28   49 1   
    62   29   33 1   
    63   29   64 1   
    64   29   65 1   
    65   29   66 1   
    66   30   31 2   
    67   30   33 1   
    68   32   33 1   
    69   32   67 1   
    70   32   68 1   
    71   32   69 1   
@<TRIPOS>SUBSTRUCTURE
     1 MM9         1 TEMP              0 ****  ****    0 ROOT
