@<TRIPOS>MOLECULE
MMA
   27    27     1     0     0
SMALL
bcc


@<TRIPOS>ATOM
      1 C1          1.4520   -0.2990    0.1030 c3        1 MMA      0.304900
      2 C2          1.0750   -0.1450   -1.3840 c3        1 MMA      0.096100
      3 C3         -0.2370    0.6310   -1.5520 c3        1 MMA      0.116100
      4 C4         -1.3150    0.0720   -0.6070 c3        1 MMA      0.091100
      5 C5         -0.7950    0.1230    0.8340 c3        1 MMA      0.106100
      6 C6         -1.8000   -0.4870    1.8140 c3        1 MMA      0.140400
      7 O1          1.9120    0.9650    0.5450 os        1 MMA     -0.446600
      8 O2          0.8730   -1.4190   -1.9740 oh        1 MMA     -0.599800
      9 O3         -0.6980    0.6030   -2.8870 oh        1 MMA     -0.595800
     10 O4         -2.4950    0.8540   -0.6650 oh        1 MMA     -0.594800
     11 O5          0.3900   -0.6730    0.9510 os        1 MMA     -0.445600
     12 O6         -1.3590   -0.3510    3.1470 oh        1 MMA     -0.596800
     13 H1          2.2250   -1.1070    0.2520 h2        1 MMA      0.072700
     14 H2          1.9050    0.4000   -1.9150 h1        1 MMA      0.072700
     15 H3         -0.0540    1.7210   -1.3290 h1        1 MMA      0.104700
     16 H4         -1.5540   -0.9890   -0.8980 h1        1 MMA      0.060700
     17 H5         -0.5550    1.1830    1.1250 h1        1 MMA      0.077700
     18 H61        -2.7640    0.0860    1.7530 h1        1 MMA      0.064200
     19 H62        -1.9710   -1.5670    1.5660 h1        1 MMA      0.064200
     20 H71         2.7460    2.0160    2.0430 h1        1 MMA      0.042033
     21 H72         1.7330    0.5800    2.5930 h1        1 MMA      0.042033
     22 H73         3.3930    0.3020    1.8630 h1        1 MMA      0.042033
     23 HO2         1.7210   -1.8790   -1.9580 ho        1 MMA      0.414000
     24 HO3        -0.7230   -0.3230   -3.1680 ho        1 MMA      0.421000
     25 HO4        -2.6480    1.0540   -1.5990 ho        1 MMA      0.421000
     26 HO6        -0.5040   -0.7970    3.2080 ho        1 MMA      0.406000
     27 C7          2.4800    0.9480    1.8470 c3        1 MMA      0.120700
@<TRIPOS>BOND
     1    1    2 1   
     2    1    7 1   
     3    1   11 1   
     4    1   13 1   
     5    2    3 1   
     6    2    8 1   
     7    2   14 1   
     8    3    4 1   
     9    3    9 1   
    10    3   15 1   
    11    4    5 1   
    12    4   10 1   
    13    4   16 1   
    14    5    6 1   
    15    5   11 1   
    16    5   17 1   
    17    6   12 1   
    18    6   18 1   
    19    6   19 1   
    20    7   27 1   
    21    8   23 1   
    22    9   24 1   
    23   10   25 1   
    24   12   26 1   
    25   20   27 1   
    26   21   27 1   
    27   22   27 1   
@<TRIPOS>SUBSTRUCTURE
     1 MMA         1 TEMP              0 ****  ****    0 ROOT
