@<TRIPOS>MOLECULE
MMB
   59    61     1     0     0
SMALL
bcc


@<TRIPOS>ATOM
      1 C1          0.4130   -0.5510   -0.5530 c3        1 MMB     -0.028100
      2 C2          1.6770   -1.3370   -0.2340 c3        1 MMB     -0.237000
      3 C4          1.9460   -1.3600    1.2500 c2        1 MMB      0.431300
      4 C6          2.8770   -0.6880   -1.0000 c         1 MMB      0.922600
      5 O2          3.6300   -1.4690   -1.6370 o         1 MMB     -0.824800
      6 O3          2.9960    0.5690   -0.9690 o         1 MMB     -0.824800
      7 C7         -0.8280   -1.2320   -0.0940 ca        1 MMB     -0.054300
      8 C8         -1.2730   -2.3950   -0.7380 ca        1 MMB     -0.121000
      9 C9         -2.4110   -3.0650   -0.2990 ca        1 MMB     -0.152000
     10 C10        -3.1200   -2.5570    0.7980 ca        1 MMB      0.058100
     11 C11        -2.7060   -1.3820    1.4380 ca        1 MMB     -0.152000
     12 C12        -1.5630   -0.7280    0.9870 ca        1 MMB     -0.121000
     13 O4         -4.2970   -3.1980    1.1760 os        1 MMB     -0.336900
     14 C13        -4.2740   -3.7450    2.4970 c3        1 MMB      0.115100
     15 C14        -3.7050   -5.1190    2.5270 cc        1 MMB      0.188300
     16 C15        -2.3600   -5.4940    2.5680 cd        1 MMB      0.214700
     17 O5         -2.3120   -6.8900    2.5990 os        1 MMB     -0.383800
     18 C3         -3.6610   -7.3110    2.5750 cd        1 MMB      0.519900
     19 N1         -4.5040   -6.2750    2.5320 nc        1 MMB     -0.646000
     20 C16        -3.0700  -11.0130    2.6510 ca        1 MMB     -0.140500
     21 C17        -2.8280   -9.6410    2.6300 ca        1 MMB     -0.096500
     22 C18        -3.9040   -8.7420    2.5980 ca        1 MMB     -0.117500
     23 C19        -5.2200   -9.2280    2.5850 ca        1 MMB     -0.096500
     24 C20        -5.4490  -10.6030    2.6070 ca        1 MMB     -0.140500
     25 C21        -4.3790  -11.4950    2.6400 ca        1 MMB     -0.122000
     26 C26         2.4450   -3.7600    3.7660 c3        1 MMB      0.150400
     27 C28         3.0340   -4.7780    5.9590 c3        1 MMB     -0.090100
     28 C29         2.7770   -3.4890    5.2230 c3        1 MMB     -0.092400
     29 C32         2.1490   -0.0250    1.8950 c3        1 MMB     -0.181400
     30 N4          1.9720   -2.5170    1.8670 n2        1 MMB     -0.501200
     31 O1          2.2100   -2.4580    3.1800 os        1 MMB     -0.212300
     32 C5         -1.0810   -4.7850    2.5790 c3        1 MMB     -0.147400
     33 H11A        0.4980    0.4740   -0.1040 hc        1 MMB      0.063200
     34 H12A        0.3700   -0.4170   -1.6690 hc        1 MMB      0.063200
     35 H2          1.5660   -2.3830   -0.6340 hc        1 MMB      0.064700
     36 H8         -0.6980   -2.7890   -1.5920 ha        1 MMB      0.139500
     37 H9         -2.7620   -3.9780   -0.8000 ha        1 MMB      0.132500
     38 H11        -3.2800   -0.9860    2.2870 ha        1 MMB      0.132500
     39 H12        -1.2230    0.1890    1.4920 ha        1 MMB      0.139500
     40 H131       -5.3600   -3.7530    2.7920 h1        1 MMB      0.062700
     41 H132       -3.6890   -3.0850    3.1920 h1        1 MMB      0.062700
     42 H16        -2.2240  -11.7150    2.6740 ha        1 MMB      0.131000
     43 H17        -1.7960   -9.2560    2.6350 ha        1 MMB      0.153500
     44 H19        -6.0670   -8.5260    2.5560 ha        1 MMB      0.153500
     45 H20        -6.4820  -10.9820    2.5950 ha        1 MMB      0.131000
     46 H21        -4.5650  -12.5790    2.6550 ha        1 MMB      0.127000
     47 H261        3.2950   -4.2740    3.2480 h1        1 MMB      0.033700
     48 H262        1.5180   -4.3870    3.6740 h1        1 MMB      0.033700
     49 H281        2.1330   -5.4390    5.9260 hc        1 MMB      0.029033
     50 H282        3.8900   -5.3300    5.5010 hc        1 MMB      0.029033
     51 H283        3.2790   -4.5700    7.0280 hc        1 MMB      0.029033
     52 H291        1.9290   -2.9320    5.7000 hc        1 MMB      0.049200
     53 H292        3.6790   -2.8250    5.2770 hc        1 MMB      0.049200
     54 H321        1.1580    0.3800    2.2200 hc        1 MMB      0.058033
     55 H322        2.8110   -0.1020    2.7920 hc        1 MMB      0.058033
     56 H323        2.6090    0.6840    1.1560 hc        1 MMB      0.058033
     57 H51        -1.0620   -4.0290    1.7480 hc        1 MMB      0.077700
     58 H52        -0.2260   -5.4930    2.4400 hc        1 MMB      0.077700
     59 H53        -0.9480   -4.2470    3.5510 hc        1 MMB      0.077700
@<TRIPOS>BOND
     1    1    2 1   
     2    1    7 1   
     3    1   33 1   
     4    1   34 1   
     5    2    3 1   
     6    2    4 1   
     7    2   35 1   
     8    3   29 1   
     9    3   30 2   
    10    4    5 1   
    11    4    6 1   
    12    7    8 ar  
    13    7   12 ar  
    14    8    9 ar  
    15    8   36 1   
    16    9   10 ar  
    17    9   37 1   
    18   10   11 ar  
    19   10   13 1   
    20   11   12 ar  
    21   11   38 1   
    22   12   39 1   
    23   13   14 1   
    24   14   15 1   
    25   14   40 1   
    26   14   41 1   
    27   15   16 2   
    28   15   19 1   
    29   16   17 1   
    30   16   32 1   
    31   17   18 1   
    32   18   19 2   
    33   18   22 1   
    34   20   21 ar  
    35   20   25 ar  
    36   20   42 1   
    37   21   22 ar  
    38   21   43 1   
    39   22   23 ar  
    40   23   24 ar  
    41   23   44 1   
    42   24   25 ar  
    43   24   45 1   
    44   25   46 1   
    45   26   28 1   
    46   26   31 1   
    47   26   47 1   
    48   26   48 1   
    49   27   28 1   
    50   27   49 1   
    51   27   50 1   
    52   27   51 1   
    53   28   52 1   
    54   28   53 1   
    55   29   54 1   
    56   29   55 1   
    57   29   56 1   
    58   30   31 1   
    59   32   57 1   
    60   32   58 1   
    61   32   59 1   
@<TRIPOS>SUBSTRUCTURE
     1 MMB         1 TEMP              0 ****  ****    0 ROOT
