@<TRIPOS>MOLECULE
MMB
   59    61     1     0     0
SMALL
bcc


@<TRIPOS>ATOM
      1 C1          0.3600   -0.4940   -0.5000 c3        1 MMB     -0.028100
      2 C2          1.6300   -1.2870   -0.2250 c3        1 MMB     -0.237000
      3 C4          1.9300   -1.3430    1.2520 c2        1 MMB      0.431300
      4 C6          2.8130   -0.6210   -1.0020 c         1 MMB      0.922600
      5 O2          3.5530   -1.3870   -1.6720 o         1 MMB     -0.824800
      6 O3          2.9340    0.6350   -0.9440 o         1 MMB     -0.824800
      7 C7         -0.8720   -1.1850   -0.0290 ca        1 MMB     -0.054300
      8 C8         -1.3300   -2.3340   -0.6890 ca        1 MMB     -0.121000
      9 C9         -2.4600   -3.0130   -0.2410 ca        1 MMB     -0.152000
     10 C10        -3.1450   -2.5290    0.8820 ca        1 MMB      0.058100
     11 C11        -2.7170   -1.3680    1.5380 ca        1 MMB     -0.152000
     12 C12        -1.5830   -0.7040    1.0770 ca        1 MMB     -0.121000
     13 O4         -4.3140   -3.1780    1.2700 os        1 MMB     -0.336900
     14 C13        -4.2650   -3.7510    2.5790 c3        1 MMB      0.115100
     15 C14        -3.6960   -5.1260    2.5700 cc        1 MMB      0.188300
     16 C15        -2.3510   -5.5030    2.5740 cd        1 MMB      0.214700
     17 O5         -2.3040   -6.8990    2.5770 os        1 MMB     -0.383800
     18 C3         -3.6540   -7.3190    2.5730 cd        1 MMB      0.519900
     19 N1         -4.4970   -6.2820    2.5690 nc        1 MMB     -0.646000
     20 C16        -3.0650  -11.0220    2.5630 ca        1 MMB     -0.140500
     21 C17        -2.8220   -9.6500    2.5640 ca        1 MMB     -0.096500
     22 C18        -3.8980   -8.7500    2.5730 ca        1 MMB     -0.117500
     23 C19        -5.2140   -9.2350    2.5790 ca        1 MMB     -0.096500
     24 C20        -5.4450  -10.6090    2.5780 ca        1 MMB     -0.140500
     25 C21        -4.3750  -11.5030    2.5710 ca        1 MMB     -0.122000
     26 C26         2.4820   -3.7990    3.7020 c3        1 MMB      0.150400
     27 C28         3.1170   -4.8660    5.8580 c3        1 MMB     -0.090100
     28 C29         2.8460   -3.5610    5.1580 c3        1 MMB     -0.092400
     29 C32         2.1470   -0.0230    1.9230 c3        1 MMB     -0.181400
     30 N4          1.9690   -2.5140    1.8420 n2        1 MMB     -0.501200
     31 O1          2.2350   -2.4840    3.1510 os        1 MMB     -0.212300
     32 C5         -1.0720   -4.7960    2.5710 c3        1 MMB     -0.147400
     33 H11A        0.4550    0.5210   -0.0300 hc        1 MMB      0.063200
     34 H12A        0.2930   -0.3350   -1.6110 hc        1 MMB      0.063200
     35 H2          1.5100   -2.3240   -0.6460 hc        1 MMB      0.064700
     36 H8         -0.7740   -2.7090   -1.5630 ha        1 MMB      0.139500
     37 H9         -2.8210   -3.9150   -0.7530 ha        1 MMB      0.132500
     38 H11        -3.2730   -0.9900    2.4070 ha        1 MMB      0.132500
     39 H12        -1.2330    0.2020    1.5940 ha        1 MMB      0.139500
     40 H131       -5.3450   -3.7650    2.8960 h1        1 MMB      0.062700
     41 H132       -3.6650   -3.1070    3.2760 h1        1 MMB      0.062700
     42 H16        -2.2200  -11.7250    2.5550 ha        1 MMB      0.131000
     43 H17        -1.7900   -9.2660    2.5550 ha        1 MMB      0.153500
     44 H19        -6.0620   -8.5320    2.5810 ha        1 MMB      0.153500
     45 H20        -6.4780  -10.9870    2.5810 ha        1 MMB      0.131000
     46 H21        -4.5620  -12.5870    2.5690 ha        1 MMB      0.127000
     47 H261        1.5530   -4.4240    3.6160 h1        1 MMB      0.033700
     48 H262        3.3200   -4.3010    3.1540 h1        1 MMB      0.033700
     49 H281        3.3860   -4.6830    6.9260 hc        1 MMB      0.029033
     50 H282        3.9630   -5.4080    5.3690 hc        1 MMB      0.029033
     51 H283        2.2160   -5.5260    5.8290 hc        1 MMB      0.029033
     52 H291        2.0080   -3.0150    5.6650 hc        1 MMB      0.049200
     53 H292        3.7490   -2.8990    5.2070 hc        1 MMB      0.049200
     54 H321        2.8260   -0.1190    2.8040 hc        1 MMB      0.058033
     55 H322        2.5910    0.7030    1.1910 hc        1 MMB      0.058033
     56 H323        1.1620    0.3740    2.2760 hc        1 MMB      0.058033
     57 H51        -1.0700   -4.0220    1.7570 hc        1 MMB      0.078033
     58 H52        -0.9160   -4.2780    3.5520 hc        1 MMB      0.078033
     59 H53        -0.2210   -5.5000    2.3990 hc        1 MMB      0.078033
@<TRIPOS>BOND
     1    1    2 1   
     2    1    7 1   
     3    1   33 1   
     4    1   34 1   
     5    2    3 1   
     6    2    4 1   
     7    2   35 1   
     8    3   29 1   
     9    3   30 2   
    10    4    5 1   
    11    4    6 1   
    12    7    8 ar  
    13    7   12 ar  
    14    8    9 ar  
    15    8   36 1   
    16    9   10 ar  
    17    9   37 1   
    18   10   11 ar  
    19   10   13 1   
    20   11   12 ar  
    21   11   38 1   
    22   12   39 1   
    23   13   14 1   
    24   14   15 1   
    25   14   40 1   
    26   14   41 1   
    27   15   16 2   
    28   15   19 1   
    29   16   17 1   
    30   16   32 1   
    31   17   18 1   
    32   18   19 2   
    33   18   22 1   
    34   20   21 ar  
    35   20   25 ar  
    36   20   42 1   
    37   21   22 ar  
    38   21   43 1   
    39   22   23 ar  
    40   23   24 ar  
    41   23   44 1   
    42   24   25 ar  
    43   24   45 1   
    44   25   46 1   
    45   26   28 1   
    46   26   31 1   
    47   26   47 1   
    48   26   48 1   
    49   27   28 1   
    50   27   49 1   
    51   27   50 1   
    52   27   51 1   
    53   28   52 1   
    54   28   53 1   
    55   29   54 1   
    56   29   55 1   
    57   29   56 1   
    58   30   31 1   
    59   32   57 1   
    60   32   58 1   
    61   32   59 1   
@<TRIPOS>SUBSTRUCTURE
     1 MMB         1 TEMP              0 ****  ****    0 ROOT
