@<TRIPOS>MOLECULE
MMB
   59    61     1     0     0
SMALL
bcc


@<TRIPOS>ATOM
      1 C1          1.1370   -0.3840   -2.9750 c3        1 MMB     -0.030100
      2 C2          0.2940   -1.3510   -3.7940 c3        1 MMB     -0.237000
      3 C4         -0.7460   -0.6200   -4.6060 c2        1 MMB      0.434300
      4 C6         -0.3850   -2.3670   -2.8170 c         1 MMB      0.922600
      5 O2         -0.2650   -3.5880   -3.0970 o         1 MMB     -0.825300
      6 O3         -0.9760   -1.9130   -1.7980 o         1 MMB     -0.825300
      7 C7          1.8960    0.5930   -3.8030 ca        1 MMB     -0.057300
      8 C8          2.8950    0.1530   -4.6830 ca        1 MMB     -0.118000
      9 C9          3.5850    1.0550   -5.4880 ca        1 MMB     -0.154000
     10 C10         3.2800    2.4200   -5.4020 ca        1 MMB      0.066100
     11 C11         2.3060    2.8810   -4.5070 ca        1 MMB     -0.154000
     12 C12         1.6210    1.9630   -3.7150 ca        1 MMB     -0.118000
     13 O4          4.0400    3.3020   -6.1650 os        1 MMB     -0.335900
     14 C13         3.2870    4.1310   -7.0510 c3        1 MMB      0.118100
     15 C14         2.7950    3.4040   -8.2500 cc        1 MMB      0.182300
     16 C15         1.5640    2.7650   -8.4160 cd        1 MMB      0.218700
     17 O5          1.5350    2.2300   -9.7050 os        1 MMB     -0.380800
     18 C3          2.7810    2.5740  -10.2780 cd        1 MMB      0.520900
     19 N1          3.5450    3.2710   -9.4320 nc        1 MMB     -0.643000
     20 C16         2.3080    0.9220  -13.6110 ca        1 MMB     -0.140500
     21 C17         2.0690    1.3460  -12.3060 ca        1 MMB     -0.095500
     22 C18         3.0220    2.1290  -11.6390 ca        1 MMB     -0.117500
     23 C19         4.2150    2.4800  -12.2880 ca        1 MMB     -0.095500
     24 C20         4.4440    2.0500  -13.5950 ca        1 MMB     -0.140500
     25 C21         3.4940    1.2730  -14.2570 ca        1 MMB     -0.122000
     26 C26        -1.8930   -0.5390   -7.9100 c3        1 MMB      0.146400
     27 C28        -3.1030    0.1140   -9.9850 c3        1 MMB     -0.089100
     28 C29        -2.7390    0.5280   -8.5840 c3        1 MMB     -0.092400
     29 C32        -1.6990    0.2260   -3.8230 c3        1 MMB     -0.182400
     30 N4         -0.7330   -0.7560   -5.9110 n2        1 MMB     -0.498200
     31 O1         -1.6530   -0.0460   -6.5710 os        1 MMB     -0.219300
     32 C5          0.3850    2.5580   -7.5760 c3        1 MMB     -0.150400
     33 H11A        0.4650    0.1470   -2.2470 hc        1 MMB      0.063200
     34 H12A        1.8620   -0.9940   -2.3700 hc        1 MMB      0.063200
     35 H2          0.9720   -1.9480   -4.4650 hc        1 MMB      0.064700
     36 H8          3.1150   -0.9240   -4.7500 ha        1 MMB      0.139000
     37 H9          4.3600    0.7130   -6.1880 ha        1 MMB      0.131500
     38 H11         2.0880    3.9550   -4.4310 ha        1 MMB      0.131500
     39 H12         0.8460    2.3170   -3.0180 ha        1 MMB      0.139000
     40 H131        4.0270    4.9290   -7.3380 h1        1 MMB      0.059200
     41 H132        2.4130    4.5880   -6.5140 h1        1 MMB      0.059200
     42 H16         1.5600    0.3060  -14.1310 ha        1 MMB      0.131000
     43 H17         1.1360    1.0670  -11.7910 ha        1 MMB      0.154000
     44 H19         4.9690    3.0890  -11.7670 ha        1 MMB      0.154000
     45 H20         5.3810    2.3250  -14.1010 ha        1 MMB      0.131000
     46 H21         3.6800    0.9350  -15.2870 ha        1 MMB      0.127000
     47 H261       -2.4420   -1.5150   -7.8520 h1        1 MMB      0.038700
     48 H262       -0.9260   -0.6880   -8.4570 h1        1 MMB      0.038700
     49 H281       -3.6870   -0.8380   -9.9750 hc        1 MMB      0.029700
     50 H282       -3.7220    0.9040  -10.4730 hc        1 MMB      0.029700
     51 H283       -2.1850   -0.0460  -10.6000 hc        1 MMB      0.029700
     52 H291       -3.6660    0.7020   -7.9770 hc        1 MMB      0.047200
     53 H292       -2.1670    1.4930   -8.5990 hc        1 MMB      0.047200
     54 H321       -1.2240    1.2170   -3.6170 hc        1 MMB      0.058367
     55 H322       -1.9240   -0.2780   -2.8450 hc        1 MMB      0.058367
     56 H323       -2.6530    0.3960   -4.3790 hc        1 MMB      0.058367
     57 H51         0.0350    1.4920   -7.6240 hc        1 MMB      0.077033
     58 H52         0.6390    2.8010   -6.5120 hc        1 MMB      0.077033
     59 H53        -0.4540    3.2160   -7.9180 hc        1 MMB      0.077033
@<TRIPOS>BOND
     1    1    2 1   
     2    1    7 1   
     3    1   33 1   
     4    1   34 1   
     5    2    3 1   
     6    2    4 1   
     7    2   35 1   
     8    3   29 1   
     9    3   30 2   
    10    4    5 1   
    11    4    6 1   
    12    7    8 ar  
    13    7   12 ar  
    14    8    9 ar  
    15    8   36 1   
    16    9   10 ar  
    17    9   37 1   
    18   10   11 ar  
    19   10   13 1   
    20   11   12 ar  
    21   11   38 1   
    22   12   39 1   
    23   13   14 1   
    24   14   15 1   
    25   14   40 1   
    26   14   41 1   
    27   15   16 2   
    28   15   19 1   
    29   16   17 1   
    30   16   32 1   
    31   17   18 1   
    32   18   19 2   
    33   18   22 1   
    34   20   21 ar  
    35   20   25 ar  
    36   20   42 1   
    37   21   22 ar  
    38   21   43 1   
    39   22   23 ar  
    40   23   24 ar  
    41   23   44 1   
    42   24   25 ar  
    43   24   45 1   
    44   25   46 1   
    45   26   28 1   
    46   26   31 1   
    47   26   47 1   
    48   26   48 1   
    49   27   28 1   
    50   27   49 1   
    51   27   50 1   
    52   27   51 1   
    53   28   52 1   
    54   28   53 1   
    55   29   54 1   
    56   29   55 1   
    57   29   56 1   
    58   30   31 1   
    59   32   57 1   
    60   32   58 1   
    61   32   59 1   
@<TRIPOS>SUBSTRUCTURE
     1 MMB         1 TEMP              0 ****  ****    0 ROOT
