@<TRIPOS>MOLECULE
MMD
   45    48     1     0     0
SMALL
bcc


@<TRIPOS>ATOM
      1 C1          0.0080    0.3530    0.5730 c3        1 MMD      0.164800
      2 C2          1.5340    0.2900    0.4280 c3        1 MMD      0.118400
      3 O3          2.1500   -0.3340    1.5460 os        1 MMD     -0.411600
      4 C4          1.6590   -1.6540    1.7410 c3        1 MMD      0.118400
      5 C5          0.1390   -1.6770    1.9460 c3        1 MMD      0.164800
      6 N6         -0.5810   -0.9310    0.9240 nh        1 MMD     -0.722300
      7 C7         -1.9960   -1.0150    0.9250 ca        1 MMD      0.908900
      8 N8         -2.6970   -0.1050    0.1590 nb        1 MMD     -0.773000
      9 N9         -2.5740   -2.0650    1.6520 nb        1 MMD     -0.791000
     10 C10        -3.9050   -2.1890    1.4930 ca        1 MMD      0.720200
     11 N11        -4.6980   -3.1680    2.1270 nh        1 MMD     -0.783200
     12 S12        -4.2020   -4.4320    3.0610 s6        1 MMD      1.476900
     13 C13        -3.4810   -3.6760    4.3950 c3        1 MMD     -0.367300
     14 O14        -5.3550   -5.1120    3.5030 o         1 MMD     -0.641800
     15 O15        -3.2410   -5.2120    2.4070 o         1 MMD     -0.641800
     16 C16        -6.0960   -2.9350    1.7520 c3        1 MMD      0.223800
     17 C17        -6.1330   -1.7350    0.7650 c3        1 MMD     -0.013100
     18 C18        -4.7100   -1.3130    0.6770 ca        1 MMD     -0.397900
     19 C19        -4.0450   -0.2660    0.0330 cp        1 MMD      0.595800
     20 C20        -4.7690    0.7090   -0.7830 cp        1 MMD     -0.463100
     21 C21        -4.4520    2.0880   -0.7520 ca        1 MMD      0.503200
     22 N22        -5.0940    3.0080   -1.4780 nb        1 MMD     -0.759500
     23 C23        -6.1230    2.5420   -2.3010 ca        1 MMD      0.889900
     24 N24        -6.8640    3.4780   -3.0050 nh        1 MMD     -0.938500
     25 N27        -6.4800    1.1980   -2.4270 nb        1 MMD     -0.759500
     26 C28        -5.8000    0.3300   -1.6690 ca        1 MMD      0.503200
     27 H1         -0.2510    1.1260    1.3520 h1        1 MMD      0.063700
     28 H1A        -0.4090    0.6930   -0.4170 h1        1 MMD      0.063700
     29 H2          1.8210   -0.2520   -0.5120 h1        1 MMD      0.060200
     30 H2A         1.9540    1.3310    0.4180 h1        1 MMD      0.060200
     31 H4          1.9510   -2.2980    0.8690 h1        1 MMD      0.060200
     32 H4A         2.1700   -2.0110    2.6730 h1        1 MMD      0.060200
     33 H5         -0.0940   -1.2640    2.9690 h1        1 MMD      0.063700
     34 H5A        -0.1870   -2.7560    1.9140 h1        1 MMD      0.063700
     35 H13        -2.5060   -3.1830    4.1520 h1        1 MMD      0.122700
     36 H13A       -4.1180   -2.8990    4.8830 h1        1 MMD      0.122700
     37 H13B       -3.2560   -4.4330    5.1910 h1        1 MMD      0.122700
     38 H16        -6.6930   -2.7090    2.6760 h1        1 MMD      0.063700
     39 H16A       -6.5110   -3.8610    1.2710 h1        1 MMD      0.063700
     40 H17        -6.5370   -2.0660   -0.2240 hc        1 MMD      0.063700
     41 H17A       -6.7870   -0.9180    1.1590 hc        1 MMD      0.063700
     42 H21        -3.6360    2.4720   -0.1080 h4        1 MMD      0.036600
     43 HN24       -6.5190    4.4060   -3.0630 hn        1 MMD      0.442300
     44 HN2A       -7.4770    3.1580   -3.7150 hn        1 MMD      0.442300
     45 H28        -6.0880   -0.7320   -1.7900 h4        1 MMD      0.036600
@<TRIPOS>BOND
     1    1    2 1   
     2    1    6 1   
     3    1   27 1   
     4    1   28 1   
     5    2    3 1   
     6    2   29 1   
     7    2   30 1   
     8    3    4 1   
     9    4    5 1   
    10    4   31 1   
    11    4   32 1   
    12    5    6 1   
    13    5   33 1   
    14    5   34 1   
    15    6    7 1   
    16    7    8 ar  
    17    7    9 ar  
    18    8   19 ar  
    19    9   10 ar  
    20   10   11 1   
    21   10   18 ar  
    22   11   12 1   
    23   11   16 1   
    24   12   13 1   
    25   12   14 2   
    26   12   15 2   
    27   13   35 1   
    28   13   36 1   
    29   13   37 1   
    30   16   17 1   
    31   16   38 1   
    32   16   39 1   
    33   17   18 1   
    34   17   40 1   
    35   17   41 1   
    36   18   19 ar  
    37   19   20 1   
    38   20   21 ar  
    39   20   26 ar  
    40   21   22 ar  
    41   21   42 1   
    42   22   23 ar  
    43   23   24 1   
    44   23   25 ar  
    45   24   43 1   
    46   24   44 1   
    47   25   26 ar  
    48   26   45 1   
@<TRIPOS>SUBSTRUCTURE
     1 MMD         1 TEMP              0 ****  ****    0 ROOT
