@<TRIPOS>MOLECULE
MMD
   45    41     1     0     0
SMALL
bcc


@<TRIPOS>ATOM
      1 C1          3.2870    1.1800   -0.0520 c3        1 MMD     -0.074000
      2 C2          4.8110    1.2790   -0.1490 c3        1 MMD     -0.032000
      3 O3          5.3790    0.1910   -0.8560 os        1 MMD     -0.268000
      4 C4          4.9500   -1.0740   -0.3570 c3        1 MMD     -0.032000
      5 C5          3.4260   -1.1770   -0.2590 c3        1 MMD     -0.074000
      6 N6          2.8570   -0.0870    0.4480 n3        1 MMD     -0.210000
      7 C7          1.4430   -0.1660    0.3810 c2        1 MMD      0.192000
      8 N8          0.7990   -0.0780   -0.8480 n1        1 MMD     -0.247000
      9 N9          0.7150   -0.2380    1.5260 n2        1 MMD     -0.248000
     10 C10        -0.6420   -0.2250    1.4750 c1        1 MMD      0.192000
     11 N11        -1.6870   -0.2890    2.5620 n2        1 MMD     -0.769000
     12 S12        -1.3880   -0.3100    4.2270 s4        1 MMD      2.060800
     13 C13        -2.7250    0.4900    5.1030 c2        1 MMD     -0.945000
     14 O14        -1.1780   -1.6540    4.7030 o         1 MMD     -0.522400
     15 O15        -0.1570    0.2810    4.5300 o         1 MMD     -0.522400
     16 C16        -2.9560   -0.3720    1.9470 c3        1 MMD     -0.005000
     17 C17        -2.7600   -0.2540    0.4920 c3        1 MMD     -0.095000
     18 C18        -1.2960   -0.1370    0.2410 c2        1 MMD     -0.262000
     19 C19        -0.5690   -0.0650   -0.9050 c1        1 MMD      0.159000
     20 C20        -1.2130    0.0330   -2.1390 c1        1 MMD     -0.223000
     21 C21        -1.4300   -1.0920   -2.8870 c1        1 MMD      0.047000
     22 N22        -2.0240   -0.9980   -4.0830 n1        1 MMD     -0.233000
     23 C23        -2.4150    0.2160   -4.5600 c1        1 MMD      0.169000
     24 N24        -3.0890    0.3000   -5.8270 n3        1 MMD     -0.335000
     25 N27        -2.2020    1.3410   -3.8200 n1        1 MMD     -0.234000
     26 C28        -1.6020    1.2490   -2.6110 c1        1 MMD      0.027000
     27 H1          2.8840    1.3250   -0.9790 h1        1 MMD      0.106250
     28 H1A         2.9430    1.9270    0.5850 h1        1 MMD      0.106250
     29 H2          5.0570    2.1440   -0.6230 h1        1 MMD      0.098000
     30 H2A         5.1840    1.2970    0.7590 h1        1 MMD      0.098000
     31 H4          5.3060   -1.2000    0.4740 h1        1 MMD      0.098000
     32 H4A         5.2930   -1.8030   -0.9740 h1        1 MMD      0.098000
     33 H5          3.0700   -1.1990   -1.1080 h1        1 MMD      0.106250
     34 H5A         3.1930   -2.0200    0.2090 h1        1 MMD      0.106250
     35 H13        -3.5810   -0.0380    4.9690 ha        1 MMD      0.155333
     36 H13A       -2.5040    0.5340    6.0950 ha        1 MMD      0.155333
     37 H13B       -2.8410    1.3660    4.7680 ha        1 MMD      0.155333
     38 H16        -3.5350    0.4030    2.2740 h1        1 MMD      0.088500
     39 H16A       -3.3640   -1.2640    2.1520 h1        1 MMD      0.088500
     40 H17        -3.1070   -1.0850    0.0410 hc        1 MMD      0.102500
     41 H17A       -3.1800    0.5020    0.1940 hc        1 MMD      0.102500
     42 H21        -1.1540   -1.9510   -2.5540 ha        1 MMD      0.181000
     43 HN24       -3.2260    1.1190   -6.2210 hn        1 MMD      0.236500
     44 HN2A       -3.3310   -0.4790   -6.2770 hn        1 MMD      0.236500
     45 H28        -1.4420    2.0760   -2.0630 ha        1 MMD      0.166000
@<TRIPOS>BOND
     1    1    2 1   
     2    1    6 1   
     3    1   27 1   
     4    1   28 1   
     5    2    3 1   
     6    2   29 1   
     7    2   30 1   
     8    3    4 1   
     9    4    5 1   
    10    4   31 1   
    11    4   32 1   
    12    5    6 1   
    13    5   33 1   
    14    5   34 1   
    15    6    7 1   
    16    7    8 1   
    17    7    9 1   
    18    9   10 1   
    19   10   18 1   
    20   11   12 1   
    21   11   16 1   
    22   12   14 1   
    23   12   15 1   
    24   13   35 1   
    25   13   36 1   
    26   13   37 1   
    27   16   17 1   
    28   16   38 1   
    29   16   39 1   
    30   17   18 1   
    31   17   40 1   
    32   17   41 1   
    33   18   19 1   
    34   20   26 1   
    35   21   22 1   
    36   21   42 1   
    37   23   24 1   
    38   23   25 1   
    39   24   43 1   
    40   24   44 1   
    41   26   45 1   
@<TRIPOS>SUBSTRUCTURE
     1 MMD         1 TEMP              0 ****  ****    0 ROOT
