@<TRIPOS>MOLECULE
MMD
   46    49     1     0     0
SMALL
bcc


@<TRIPOS>ATOM
      1 C1          0.0130    0.3870    0.5690 c3        1 MMD      0.168800
      2 C2          1.5330    0.2840    0.3850 c3        1 MMD      0.115900
      3 O3          2.1590   -0.3360    1.4970 os        1 MMD     -0.398600
      4 C4          1.6600   -1.6500    1.7040 c3        1 MMD      0.115900
      5 C5          0.1470   -1.6520    1.9600 c3        1 MMD      0.168800
      6 N6         -0.6010   -0.8630    0.9910 nh        1 MMD     -0.720300
      7 C7         -1.9990   -0.9570    0.9840 ca        1 MMD      0.934900
      8 N8         -2.7150   -0.0450    0.2230 nb        1 MMD     -0.792000
      9 N9         -2.5780   -2.0170    1.7060 nb        1 MMD     -0.770000
     10 C10        -3.9030   -2.1590    1.5500 ca        1 MMD      0.741200
     11 N11        -4.6820   -3.1510    2.1610 nh        1 MMD     -0.765200
     12 S12        -4.1600   -4.4890    3.0140 s6        1 MMD      1.473900
     13 C13        -3.5300   -3.8150    4.4250 c3        1 MMD     -0.378300
     14 O14        -5.3080   -5.2350    3.3270 o         1 MMD     -0.627300
     15 O15        -3.1460   -5.1420    2.3100 o         1 MMD     -0.627300
     16 C16        -6.0850   -2.9250    1.8010 c3        1 MMD      0.220800
     17 C17        -6.1410   -1.7200    0.8210 c3        1 MMD     -0.022100
     18 C18        -4.7250   -1.2770    0.7320 ca        1 MMD     -0.387900
     19 C19        -4.0590   -0.2340    0.1020 cp        1 MMD      0.524800
     20 C20        -4.7770    0.7380   -0.7350 cp        1 MMD     -0.275100
     21 C21        -4.4690    2.1220   -0.6810 ca        1 MMD      0.471700
     22 N22        -5.0950    3.0330   -1.4490 nb        1 MMD     -0.658000
     23 C23        -6.0510    2.5270   -2.2970 ca        1 MMD      0.669900
     24 N24        -6.7490    3.5180   -3.1670 n4        1 MMD     -0.811300
     25 N27        -6.4300    1.2180   -2.4390 nb        1 MMD     -0.658000
     26 C28        -5.7780    0.3410   -1.6500 ca        1 MMD      0.471700
     27 H1         -0.4220    0.7030   -0.4210 h1        1 MMD      0.066450
     28 H1A        -0.2070    1.1910    1.3300 h1        1 MMD      0.066450
     29 H2          1.7790   -0.2790   -0.5550 h1        1 MMD      0.068200
     30 H2A         1.9760    1.3140    0.3460 h1        1 MMD      0.068200
     31 H4          2.1950   -2.0170    2.6200 h1        1 MMD      0.068200
     32 H4A         1.9130   -2.2980    0.8240 h1        1 MMD      0.068200
     33 H5         -0.1980   -2.7250    1.9140 h1        1 MMD      0.066450
     34 H5A        -0.0470   -1.2570    2.9990 h1        1 MMD      0.066450
     35 H13        -4.2600   -3.1990    5.0050 h1        1 MMD      0.130367
     36 H13A       -3.1950   -4.6250    5.1260 h1        1 MMD      0.130367
     37 H13B       -2.6310   -3.1710    4.2580 h1        1 MMD      0.130367
     38 H16        -6.5010   -3.8530    1.3220 h1        1 MMD      0.076200
     39 H16A       -6.6750   -2.7050    2.7320 h1        1 MMD      0.076200
     40 H17        -6.5420   -2.0520   -0.1690 hc        1 MMD      0.060700
     41 H17A       -6.8080   -0.9180    1.2250 hc        1 MMD      0.060700
     42 H21        -3.6850    2.5210   -0.0020 h4        1 MMD      0.084100
     43 HN24       -7.4710    3.0470   -3.7280 hn        1 MMD      0.480800
     44 HN2A       -6.0600    3.9590   -3.7890 hn        1 MMD      0.480800
     45 H28        -6.0710   -0.7230   -1.7720 h4        1 MMD      0.084100
     46 H243       -7.1850    4.2370   -2.5760 hn        1 MMD      0.480800
@<TRIPOS>BOND
     1    1    2 1   
     2    1    6 1   
     3    1   27 1   
     4    1   28 1   
     5    2    3 1   
     6    2   29 1   
     7    2   30 1   
     8    3    4 1   
     9    4    5 1   
    10    4   31 1   
    11    4   32 1   
    12    5    6 1   
    13    5   33 1   
    14    5   34 1   
    15    6    7 1   
    16    7    8 ar  
    17    7    9 ar  
    18    8   19 ar  
    19    9   10 ar  
    20   10   11 1   
    21   10   18 ar  
    22   11   12 1   
    23   11   16 1   
    24   12   13 1   
    25   12   14 2   
    26   12   15 2   
    27   13   35 1   
    28   13   36 1   
    29   13   37 1   
    30   16   17 1   
    31   16   38 1   
    32   16   39 1   
    33   17   18 1   
    34   17   40 1   
    35   17   41 1   
    36   18   19 ar  
    37   19   20 1   
    38   20   21 ar  
    39   20   26 ar  
    40   21   22 ar  
    41   21   42 1   
    42   22   23 ar  
    43   23   24 1   
    44   23   25 ar  
    45   24   43 1   
    46   24   44 1   
    47   24   46 1   
    48   25   26 ar  
    49   26   45 1   
@<TRIPOS>SUBSTRUCTURE
     1 MMD         1 TEMP              0 ****  ****    0 ROOT
