@<TRIPOS>MOLECULE
MMD
   45    48     1     0     0
SMALL
bcc


@<TRIPOS>ATOM
      1 C1          0.0090    0.3490    0.5670 c3        1 MMD      0.164800
      2 C2          1.5340    0.2850    0.4200 c3        1 MMD      0.118400
      3 O3          2.1520   -0.3410    1.5360 os        1 MMD     -0.411600
      4 C4          1.6600   -1.6600    1.7310 c3        1 MMD      0.118400
      5 C5          0.1400   -1.6820    1.9390 c3        1 MMD      0.164800
      6 N6         -0.5810   -0.9350    0.9190 nh        1 MMD     -0.722300
      7 C7         -1.9960   -1.0170    0.9230 ca        1 MMD      0.908900
      8 N8         -2.6980   -0.1040    0.1600 nb        1 MMD     -0.774000
      9 N9         -2.5740   -2.0670    1.6490 nb        1 MMD     -0.791000
     10 C10        -3.9060   -2.1890    1.4930 ca        1 MMD      0.720200
     11 N11        -4.6980   -3.1680    2.1270 nh        1 MMD     -0.783200
     12 S12        -4.2020   -4.4340    3.0580 s6        1 MMD      1.476900
     13 C13        -3.4770   -3.6820    4.3920 c3        1 MMD     -0.367300
     14 O14        -5.3540   -5.1140    3.5010 o         1 MMD     -0.641800
     15 O15        -3.2430   -5.2140    2.4000 o         1 MMD     -0.641800
     16 C16        -6.0960   -2.9320    1.7560 c3        1 MMD      0.223800
     17 C17        -6.1350   -1.7310    0.7710 c3        1 MMD     -0.013100
     18 C18        -4.7120   -1.3100    0.6800 ca        1 MMD     -0.397900
     19 C19        -4.0460   -0.2630    0.0370 cp        1 MMD      0.595800
     20 C20        -4.7710    0.7140   -0.7760 cp        1 MMD     -0.463100
     21 C21        -4.4510    2.0930   -0.7440 ca        1 MMD      0.503200
     22 N22        -5.0940    3.0150   -1.4670 nb        1 MMD     -0.759500
     23 C23        -6.1250    2.5520   -2.2880 ca        1 MMD      0.889900
     24 N24        -6.8670    3.4900   -2.9880 nv        1 MMD     -0.938500
     25 N27        -6.4850    1.2080   -2.4150 nb        1 MMD     -0.759500
     26 C28        -5.8050    0.3380   -1.6610 ca        1 MMD      0.503200
     27 H1         -0.4100    0.6900   -0.4220 h1        1 MMD      0.063700
     28 H1A        -0.2470    1.1220    1.3470 h1        1 MMD      0.063700
     29 H2          1.8190   -0.2570   -0.5210 h1        1 MMD      0.060200
     30 H2A         1.9550    1.3240    0.4090 h1        1 MMD      0.060200
     31 H4          1.9490   -2.3040    0.8580 h1        1 MMD      0.060200
     32 H4A         2.1720   -2.0190    2.6620 h1        1 MMD      0.060200
     33 H5         -0.1870   -2.7600    1.9060 h1        1 MMD      0.063700
     34 H5A        -0.0910   -1.2700    2.9630 h1        1 MMD      0.063700
     35 H13        -2.5030   -3.1890    4.1470 h1        1 MMD      0.122700
     36 H13A       -4.1130   -2.9050    4.8820 h1        1 MMD      0.122700
     37 H13B       -3.2510   -4.4410    5.1850 h1        1 MMD      0.122700
     38 H16        -6.5140   -3.8570    1.2740 h1        1 MMD      0.063700
     39 H16A       -6.6910   -2.7070    2.6820 h1        1 MMD      0.063700
     40 H17        -6.7870   -0.9130    1.1670 hc        1 MMD      0.063700
     41 H17A       -6.5410   -2.0600   -0.2180 hc        1 MMD      0.063700
     42 H21        -3.6340    2.4750   -0.1010 h4        1 MMD      0.036600
     43 HN24       -7.4820    3.1720   -3.6980 hn        1 MMD      0.442300
     44 HN2A       -6.5210    4.4170   -3.0460 hn        1 MMD      0.442300
     45 H28        -6.0940   -0.7230   -1.7820 h4        1 MMD      0.036600
@<TRIPOS>BOND
     1    1    2 1   
     2    1    6 1   
     3    1   27 1   
     4    1   28 1   
     5    2    3 1   
     6    2   29 1   
     7    2   30 1   
     8    3    4 1   
     9    4    5 1   
    10    4   31 1   
    11    4   32 1   
    12    5    6 1   
    13    5   33 1   
    14    5   34 1   
    15    6    7 1   
    16    7    8 ar  
    17    7    9 ar  
    18    8   19 ar  
    19    9   10 ar  
    20   10   11 1   
    21   10   18 ar  
    22   11   12 1   
    23   11   16 1   
    24   12   13 1   
    25   12   14 2   
    26   12   15 2   
    27   13   35 1   
    28   13   36 1   
    29   13   37 1   
    30   16   17 1   
    31   16   38 1   
    32   16   39 1   
    33   17   18 1   
    34   17   40 1   
    35   17   41 1   
    36   18   19 ar  
    37   19   20 1   
    38   20   21 ar  
    39   20   26 ar  
    40   21   22 ar  
    41   21   42 1   
    42   22   23 ar  
    43   23   24 1   
    44   23   25 ar  
    45   24   43 1   
    46   24   44 1   
    47   25   26 ar  
    48   26   45 1   
@<TRIPOS>SUBSTRUCTURE
     1 MMD         1 TEMP              0 ****  ****    0 ROOT
