@<TRIPOS>MOLECULE
MMD
   45    48     1     0     0
SMALL
bcc


@<TRIPOS>ATOM
      1 C1         -0.0050   -3.6460   -0.1870 c3        1 MMD      0.164800
      2 C2          0.5320   -5.0360    0.1800 c3        1 MMD      0.118400
      3 O3          1.8490   -5.2450   -0.3100 os        1 MMD     -0.411600
      4 C4          2.7510   -4.2650    0.1870 c3        1 MMD      0.118400
      5 C5          2.3130   -2.8410   -0.1810 c3        1 MMD      0.164800
      6 N6          0.9210   -2.5750    0.1490 nh        1 MMD     -0.722300
      7 C7          0.4540   -1.2450   -0.0040 ca        1 MMD      0.908900
      8 N8         -0.9110   -1.0320    0.0260 nb        1 MMD     -0.774000
      9 N9          1.4200   -0.2350   -0.1040 nb        1 MMD     -0.791000
     10 C10         0.9250    1.0170   -0.0920 ca        1 MMD      0.720200
     11 N11         1.7070    2.1870   -0.1840 nh        1 MMD     -0.783200
     12 S12         3.3500    2.3160   -0.1870 s6        1 MMD      1.476900
     13 C13         3.8060    1.5020   -1.6010 c3        1 MMD     -0.367300
     14 O14         3.6680    3.6810   -0.3360 o         1 MMD     -0.641800
     15 O15         3.9200    1.6690    0.9150 o         1 MMD     -0.641800
     16 C16         0.8010    3.3400   -0.2000 c3        1 MMD      0.223800
     17 C17        -0.6520    2.8090   -0.0550 c3        1 MMD     -0.013100
     18 C18        -0.4810    1.3330   -0.0160 ca        1 MMD     -0.397900
     19 C19        -1.3660    0.2520    0.0300 cp        1 MMD      0.595800
     20 C20        -2.8150    0.4550    0.0620 cp        1 MMD     -0.463100
     21 C21        -3.6990   -0.3650   -0.6780 ca        1 MMD      0.503200
     22 N22        -5.0260   -0.2060   -0.6780 nb        1 MMD     -0.759500
     23 C23        -5.5270    0.8320    0.1120 ca        1 MMD      0.889900
     24 N24        -6.8900    1.0780    0.0700 nh        1 MMD     -0.938500
     25 N27        -4.7370    1.6660    0.9060 nb        1 MMD     -0.759500
     26 C28        -3.4170    1.4560    0.8560 ca        1 MMD      0.503200
     27 H1         -0.2390   -3.6280   -1.2900 h1        1 MMD      0.063700
     28 H1A        -0.9660   -3.4970    0.3820 h1        1 MMD      0.063700
     29 H2          0.5150   -5.1860    1.2920 h1        1 MMD      0.060200
     30 H2A        -0.0870   -5.8240   -0.3260 h1        1 MMD      0.060200
     31 H4          2.8490   -4.3730    1.3000 h1        1 MMD      0.060200
     32 H4A         3.7280   -4.4990   -0.3110 h1        1 MMD      0.060200
     33 H5          2.9710   -2.1300    0.3940 h1        1 MMD      0.063700
     34 H5A         2.4920   -2.6820   -1.2830 h1        1 MMD      0.063700
     35 H13         3.2660    1.8370   -2.5190 h1        1 MMD      0.122700
     36 H13A        4.8960    1.6690   -1.8050 h1        1 MMD      0.122700
     37 H13B        3.6700    0.3930   -1.5370 h1        1 MMD      0.122700
     38 H16         1.0620    4.0290    0.6480 h1        1 MMD      0.063700
     39 H16A        0.9270    3.8950   -1.1690 h1        1 MMD      0.063700
     40 H17        -1.1110    3.2050    0.8850 hc        1 MMD      0.063700
     41 H17A       -1.2820    3.1330   -0.9200 hc        1 MMD      0.063700
     42 H21        -3.3180   -1.1950   -1.3050 h4        1 MMD      0.036600
     43 HN24       -7.4800    0.3970   -0.3440 hn        1 MMD      0.442300
     44 HN2A       -7.2800    1.6900    0.7460 hn        1 MMD      0.442300
     45 H28        -2.8060    2.1180    1.5000 h4        1 MMD      0.036600
@<TRIPOS>BOND
     1    1    2 1   
     2    1    6 1   
     3    1   27 1   
     4    1   28 1   
     5    2    3 1   
     6    2   29 1   
     7    2   30 1   
     8    3    4 1   
     9    4    5 1   
    10    4   31 1   
    11    4   32 1   
    12    5    6 1   
    13    5   33 1   
    14    5   34 1   
    15    6    7 1   
    16    7    8 ar  
    17    7    9 ar  
    18    8   19 ar  
    19    9   10 ar  
    20   10   11 1   
    21   10   18 ar  
    22   11   12 1   
    23   11   16 1   
    24   12   13 1   
    25   12   14 2   
    26   12   15 2   
    27   13   35 1   
    28   13   36 1   
    29   13   37 1   
    30   16   17 1   
    31   16   38 1   
    32   16   39 1   
    33   17   18 1   
    34   17   40 1   
    35   17   41 1   
    36   18   19 ar  
    37   19   20 1   
    38   20   21 ar  
    39   20   26 ar  
    40   21   22 ar  
    41   21   42 1   
    42   22   23 ar  
    43   23   24 1   
    44   23   25 ar  
    45   24   43 1   
    46   24   44 1   
    47   25   26 ar  
    48   26   45 1   
@<TRIPOS>SUBSTRUCTURE
     1 MMD         1 TEMP              0 ****  ****    0 ROOT
