@<TRIPOS>MOLECULE
MME
   22    21     1     0     0
SMALL
bcc


@<TRIPOS>ATOM
      1 N           1.6130   -0.2060    1.1520 n3        1 MME     -0.795200
      2 CA          0.2820    0.3590    0.9550 c3        1 MME      0.044500
      3 C          -0.6570    0.1450    2.1970 c         1 MME      0.929600
      4 O          -0.4440    0.8800    3.2020 o         1 MME     -0.835800
      5 CB         -0.4130   -0.2220   -0.2820 c3        1 MME     -0.061400
      6 CG          0.3430    0.0660   -1.5550 c3        1 MME      0.004700
      7 SD         -0.7820   -0.1220   -2.9170 ss        1 MME     -0.316200
      8 CE          0.2710    0.1400   -4.2910 c3        1 MME     -0.044000
      9 OXT        -1.5870   -0.6990    2.1070 o         1 MME     -0.835800
     10 CM          2.3440    0.3740    2.2460 c3        1 MME      0.146100
     11 H           2.1400   -0.0880    0.3020 hn        1 MME      0.308800
     12 HA          0.3520    1.4820    0.8130 h1        1 MME     -0.002300
     13 HB2        -0.5510   -1.3260   -0.1420 hc        1 MME      0.072700
     14 HB3        -1.4380    0.2330   -0.3260 hc        1 MME      0.072700
     15 HG2         0.7480    1.1060   -1.5500 h1        1 MME      0.045200
     16 HG3         1.2000   -0.6380   -1.6820 h1        1 MME      0.045200
     17 HE1        -0.3580    0.0350   -5.2040 h1        1 MME      0.048700
     18 HE2         0.7230    1.1570   -4.2780 h1        1 MME      0.048700
     19 HE3         1.0950   -0.6070   -4.3300 h1        1 MME      0.048700
     20 HM1         3.2620   -0.2460    2.4250 h1        1 MME      0.025367
     21 HM2         2.6740    1.4350    2.0590 h1        1 MME      0.025367
     22 HM3         1.6990    0.3700    3.1670 h1        1 MME      0.025367
@<TRIPOS>BOND
     1    1    2 1   
     2    1   10 1   
     3    1   11 1   
     4    2    3 1   
     5    2    5 1   
     6    2   12 1   
     7    3    4 1   
     8    3    9 1   
     9    5    6 1   
    10    5   13 1   
    11    5   14 1   
    12    6    7 1   
    13    6   15 1   
    14    6   16 1   
    15    7    8 1   
    16    8   17 1   
    17    8   18 1   
    18    8   19 1   
    19   10   20 1   
    20   10   21 1   
    21   10   22 1   
@<TRIPOS>SUBSTRUCTURE
     1 MME         1 TEMP              0 ****  ****    0 ROOT
