@<TRIPOS>MOLECULE
MMG
   37    40     1     0     0
SMALL
bcc


@<TRIPOS>ATOM
      1 C4          0.1690    0.7090    0.0470 ca        1 MMG     -0.125500
      2 C5          1.8630   -0.5820    1.1910 ca        1 MMG     -0.125500
      3 C6          6.7630    0.7870   -0.9300 ca        1 MMG     -0.145000
      4 C7          7.9320   -0.7550   -2.3800 ca        1 MMG     -0.145000
      5 C8          7.9080    0.9140   -0.1500 ca        1 MMG     -0.112000
      6 C10         3.5350   -0.0600   -1.2350 ca        1 MMG     -0.021000
      7 C13         1.3840    0.0070    0.0110 cp        1 MMG     -0.010000
      8 C15         9.0730    0.2110   -0.4720 ca        1 MMG     -0.111600
      9 C17         4.1990   -0.1770   -2.4540 ca        1 MMG     -0.187100
     10 C20        10.3240    0.3510    0.3850 c         1 MMG      0.906200
     11 C1         -0.0660    0.2270    2.4030 ca        1 MMG     -0.139000
     12 C2         -0.5490    0.8170    1.2360 ca        1 MMG     -0.131000
     13 C3          1.1420   -0.4700    2.3780 ca        1 MMG     -0.131000
     14 C9          9.0730   -0.6240   -1.5950 ca        1 MMG     -0.112000
     15 C11         5.5740   -0.3700   -4.2650 cc        1 MMG     -0.125100
     16 C12         1.4500   -0.2790   -2.4660 ca        1 MMG      0.420200
     17 C14         6.7600   -0.0520   -2.0550 ca        1 MMG     -0.073800
     18 C16         2.1390   -0.1080   -1.2300 cp        1 MMG     -0.206300
     19 C18         5.5840   -0.1890   -2.8790 cd        1 MMG     -0.017400
     20 C19         3.3900   -0.3570   -3.6580 ca        1 MMG      0.419800
     21 N21         4.2630   -0.4740   -4.7450 na        1 MMG     -0.293100
     22 N22         2.0230   -0.4060   -3.6650 nb        1 MMG     -0.689000
     23 O23        10.2630    1.1010    1.3990 o         1 MMG     -0.828800
     24 O24        11.3540   -0.2900    0.0330 o         1 MMG     -0.828800
     25 H4         -0.2110    1.1880   -0.8680 ha        1 MMG      0.137000
     26 H5          2.8140   -1.1360    1.1770 ha        1 MMG      0.137000
     27 H6          5.8570    1.3570   -0.6760 ha        1 MMG      0.107500
     28 H7          7.9390   -1.4170   -3.2570 ha        1 MMG      0.107500
     29 H8          7.9250    1.5710    0.7360 ha        1 MMG      0.153500
     30 H10         4.1050    0.0690   -0.3020 ha        1 MMG      0.157000
     31 H1         -0.6320    0.3150    3.3410 ha        1 MMG      0.124000
     32 H2         -1.4970    1.3720    1.2520 ha        1 MMG      0.126500
     33 H3          1.5290   -0.9330    3.2970 ha        1 MMG      0.126500
     34 H9          9.9980   -1.1710   -1.8370 ha        1 MMG      0.153500
     35 H11         6.4210   -0.4320   -4.9520 h4        1 MMG      0.171000
     36 H12         0.3450   -0.3260   -2.4710 h4        1 MMG      0.013100
     37 HN21        3.9940   -0.5890   -5.6840 hn        1 MMG      0.299700
@<TRIPOS>BOND
     1    1    7 ar  
     2    1   12 ar  
     3    1   25 1   
     4    2    7 ar  
     5    2   13 ar  
     6    2   26 1   
     7    3    5 ar  
     8    3   17 ar  
     9    3   27 1   
    10    4   14 ar  
    11    4   17 ar  
    12    4   28 1   
    13    5    8 ar  
    14    5   29 1   
    15    6    9 ar  
    16    6   18 ar  
    17    6   30 1   
    18    7   18 1   
    19    8   10 1   
    20    8   14 ar  
    21    9   19 1   
    22    9   20 ar  
    23   10   23 1   
    24   10   24 1   
    25   11   12 ar  
    26   11   13 ar  
    27   11   31 1   
    28   12   32 1   
    29   13   33 1   
    30   14   34 1   
    31   15   19 2   
    32   15   21 1   
    33   15   35 1   
    34   16   18 ar  
    35   16   22 ar  
    36   16   36 1   
    37   17   19 1   
    38   20   21 1   
    39   20   22 ar  
    40   21   37 1   
@<TRIPOS>SUBSTRUCTURE
     1 MMG         1 TEMP              0 ****  ****    0 ROOT
