@<TRIPOS>MOLECULE
MMG
   37    40     1     0     0
SMALL
bcc


@<TRIPOS>ATOM
      1 C4          4.7870   -0.9530   -0.5940 ca        1 MMG     -0.125500
      2 C5          3.1180   -2.0570    0.7620 ca        1 MMG     -0.125500
      3 C6         -1.8340   -0.2140   -0.8080 ca        1 MMG     -0.145000
      4 C7         -3.0700    1.3040    0.6110 ca        1 MMG     -0.145000
      5 C8         -2.9500   -1.0410   -0.8870 ca        1 MMG     -0.112000
      6 C10         1.3710    0.2650    0.0460 ca        1 MMG     -0.021000
      7 C13         3.5640   -0.9070    0.0920 cp        1 MMG     -0.010000
      8 C15        -4.1340   -0.7090   -0.2210 ca        1 MMG     -0.111600
      9 C17         0.6650    1.4650    0.0650 ca        1 MMG     -0.187100
     10 C20        -5.3530   -1.6160   -0.3090 c         1 MMG      0.906200
     11 C1          5.0960   -3.2580    0.0630 ca        1 MMG     -0.139000
     12 C2          5.5470   -2.1210   -0.6060 ca        1 MMG     -0.131000
     13 C3          3.8810   -3.2230    0.7460 ca        1 MMG     -0.131000
     14 C9         -4.1820    0.4720    0.5280 ca        1 MMG     -0.112000
     15 C11        -0.7730    3.2370    0.1100 cc        1 MMG     -0.125100
     16 C12         3.4110    1.5800    0.1920 ca        1 MMG      0.420200
     17 C14        -1.8790    0.9690   -0.0550 ca        1 MMG     -0.073800
     18 C16         2.7660    0.3120    0.1070 cp        1 MMG     -0.206300
     19 C18        -0.7330    1.8410    0.0320 cd        1 MMG     -0.017400
     20 C19         1.4300    2.7060    0.1630 ca        1 MMG      0.419800
     21 N21         0.5190    3.7680    0.1900 na        1 MMG     -0.293100
     22 N22         2.7960    2.7650    0.2240 nb        1 MMG     -0.689000
     23 O23        -5.2490   -2.6810   -0.9810 o         1 MMG     -0.828800
     24 O24        -6.4020   -1.2540    0.2950 o         1 MMG     -0.828800
     25 H4          5.1420   -0.0630   -1.1360 ha        1 MMG      0.137000
     26 H5          2.1600   -2.0340    1.3040 ha        1 MMG      0.137000
     27 H6         -0.9130   -0.4780   -1.3480 ha        1 MMG      0.107500
     28 H7         -3.1150    2.2270    1.2060 ha        1 MMG      0.107500
     29 H8         -2.9290   -1.9730   -1.4760 ha        1 MMG      0.153500
     30 H10         0.8350   -0.6950   -0.0200 ha        1 MMG      0.157000
     31 H1          5.6960   -4.1790    0.0510 ha        1 MMG      0.124000
     32 H2          6.5020   -2.1450   -1.1500 ha        1 MMG      0.126500
     33 H3          3.5190   -4.1180    1.2720 ha        1 MMG      0.126500
     34 H9         -5.1220    0.7210    1.0470 ha        1 MMG      0.153500
     35 H11        -1.6430    3.8960    0.1120 h4        1 MMG      0.171000
     36 H12         4.5140    1.6270    0.2490 h4        1 MMG      0.013100
     37 HN21        0.7550    4.7220    0.2380 hn        1 MMG      0.299700
@<TRIPOS>BOND
     1    1    7 ar  
     2    1   12 ar  
     3    1   25 1   
     4    2    7 ar  
     5    2   13 ar  
     6    2   26 1   
     7    3    5 ar  
     8    3   17 ar  
     9    3   27 1   
    10    4   14 ar  
    11    4   17 ar  
    12    4   28 1   
    13    5    8 ar  
    14    5   29 1   
    15    6    9 ar  
    16    6   18 ar  
    17    6   30 1   
    18    7   18 1   
    19    8   10 1   
    20    8   14 ar  
    21    9   19 1   
    22    9   20 ar  
    23   10   23 1   
    24   10   24 1   
    25   11   12 ar  
    26   11   13 ar  
    27   11   31 1   
    28   12   32 1   
    29   13   33 1   
    30   14   34 1   
    31   15   19 2   
    32   15   21 1   
    33   15   35 1   
    34   16   18 ar  
    35   16   22 ar  
    36   16   36 1   
    37   17   19 1   
    38   20   21 1   
    39   20   22 ar  
    40   21   37 1   
@<TRIPOS>SUBSTRUCTURE
     1 MMG         1 TEMP              0 ****  ****    0 ROOT
