@<TRIPOS>MOLECULE
MMG
   37    40     1     0     0
SMALL
bcc


@<TRIPOS>ATOM
      1 C4          0.1690    0.6920    0.0580 ca        1 MMG     -0.125500
      2 C5          1.8520   -0.6510    1.1580 ca        1 MMG     -0.125500
      3 C6          6.7660    0.7730   -0.8900 ca        1 MMG     -0.145000
      4 C7          7.9330   -0.7170   -2.3960 ca        1 MMG     -0.145000
      5 C8          7.9100    0.8630   -0.1020 ca        1 MMG     -0.112000
      6 C10         3.5360   -0.0440   -1.2400 ca        1 MMG     -0.021000
      7 C13         1.3800   -0.0150   -0.0010 cp        1 MMG     -0.010000
      8 C15         9.0720    0.1670   -0.4470 ca        1 MMG     -0.111600
      9 C17         4.2030   -0.1170   -2.4610 ca        1 MMG     -0.187100
     10 C20        10.3200    0.2660    0.4190 c         1 MMG      0.906200
     11 C1         -0.0770    0.1200    2.3930 ca        1 MMG     -0.139000
     12 C2         -0.5530    0.7570    1.2480 ca        1 MMG     -0.131000
     13 C3          1.1270   -0.5830    2.3450 ca        1 MMG     -0.131000
     14 C9          9.0720   -0.6230   -1.6020 ca        1 MMG     -0.112000
     15 C11         5.5850   -0.2460   -4.2730 cc        1 MMG     -0.125100
     16 C12         1.4540   -0.2030   -2.4870 ca        1 MMG      0.420200
     17 C14         6.7640   -0.0210   -2.0470 ca        1 MMG     -0.073800
     18 C16         2.1390   -0.0850   -1.2420 cp        1 MMG     -0.206300
     19 C18         5.5900   -0.1190   -2.8800 cd        1 MMG     -0.017400
     20 C19         3.3990   -0.2450   -3.6730 ca        1 MMG      0.419800
     21 N21         4.2760   -0.3240   -4.7610 na        1 MMG     -0.293100
     22 N22         2.0310   -0.2860   -3.6880 nb        1 MMG     -0.689000
     23 O23        10.2590    0.9760    1.4620 o         1 MMG     -0.828800
     24 O24        11.3480   -0.3660    0.0460 o         1 MMG     -0.828800
     25 H4         -0.2050    1.2080   -0.8380 ha        1 MMG      0.137000
     26 H5          2.8000   -1.2100    1.1250 ha        1 MMG      0.137000
     27 H6          5.8630    1.3370   -0.6170 ha        1 MMG      0.107500
     28 H7          7.9400   -1.3440   -3.2980 ha        1 MMG      0.107500
     29 H8          7.9270    1.4840    0.8090 ha        1 MMG      0.153500
     30 H10         4.1030    0.0450   -0.3010 ha        1 MMG      0.157000
     31 H1         -0.6470    0.1740    3.3320 ha        1 MMG      0.124000
     32 H2         -1.4990    1.3160    1.2830 ha        1 MMG      0.126500
     33 H3          1.5080   -1.0840    3.2470 ha        1 MMG      0.126500
     34 H9          9.9960   -1.1650   -1.8610 ha        1 MMG      0.153500
     35 H11         6.4340   -0.2850   -4.9580 h4        1 MMG      0.171000
     36 H12         0.3490   -0.2450   -2.4980 h4        1 MMG      0.013100
     37 HN21        4.0100   -0.4010   -5.7050 hn        1 MMG      0.299700
@<TRIPOS>BOND
     1    1    7 ar  
     2    1   12 ar  
     3    1   25 1   
     4    2    7 ar  
     5    2   13 ar  
     6    2   26 1   
     7    3    5 ar  
     8    3   17 ar  
     9    3   27 1   
    10    4   14 ar  
    11    4   17 ar  
    12    4   28 1   
    13    5    8 ar  
    14    5   29 1   
    15    6    9 ar  
    16    6   18 ar  
    17    6   30 1   
    18    7   18 1   
    19    8   10 1   
    20    8   14 ar  
    21    9   19 1   
    22    9   20 ar  
    23   10   23 1   
    24   10   24 1   
    25   11   12 ar  
    26   11   13 ar  
    27   11   31 1   
    28   12   32 1   
    29   13   33 1   
    30   14   34 1   
    31   15   19 2   
    32   15   21 1   
    33   15   35 1   
    34   16   18 ar  
    35   16   22 ar  
    36   16   36 1   
    37   17   19 1   
    38   20   21 1   
    39   20   22 ar  
    40   21   37 1   
@<TRIPOS>SUBSTRUCTURE
     1 MMG         1 TEMP              0 ****  ****    0 ROOT
