@<TRIPOS>MOLECULE
MMH
   52    54     1     0     0
SMALL
bcc


@<TRIPOS>ATOM
      1 CBC         9.3630   -0.1820   -1.3040 c3        1 MMH     -0.179100
      2 CBB         7.8910   -0.0900   -0.9640 c         1 MMH      0.667100
      3 OBD         7.2260    0.9140   -1.2760 o         1 MMH     -0.594100
      4 NBA         7.3550   -1.1840   -0.2980 n         1 MMH     -0.474100
      5 CAY         6.0360   -1.3640    0.1510 ca        1 MMH      0.094600
      6 CAZ         4.9980   -0.4690   -0.1560 ca        1 MMH     -0.215000
      7 CAX         5.7480   -2.5080    0.9370 ca        1 MMH     -0.213000
      8 CAW         4.4560   -2.7230    1.3920 ca        1 MMH     -0.081000
      9 CAV         3.4210   -1.8390    1.1020 ca        1 MMH     -0.180000
     10 CAS         3.6830   -0.6970    0.3200 ca        1 MMH      0.098600
     11 NAR         2.7050    0.2580   -0.0020 n         1 MMH     -0.462100
     12 CAG         1.3300    0.1360    0.1500 c         1 MMH      0.735700
     13 OAQ         0.8000   -0.9040    0.6070 o         1 MMH     -0.646100
     14 CAD         0.5120    1.2760   -0.2530 cc        1 MMH     -0.391900
     15 CAE         0.8250    2.6780   -0.4640 cc        1 MMH      0.369600
     16 CAF         2.1440    3.3290   -0.3290 c3        1 MMH     -0.138400
     17 NAA        -0.3090    3.3590   -0.7930 nd        1 MMH     -0.520800
     18 NAB        -1.3190    2.4820   -0.8140 na        1 MMH     -0.014600
     19 CAC        -0.8990    1.1880   -0.4850 cd        1 MMH      0.207300
     20 NAH        -1.6860    0.0260   -0.5060 nh        1 MMH     -0.401700
     21 NAI        -3.0150    0.1560   -0.3710 n2        1 MMH     -0.458400
     22 CAJ        -3.7510   -0.8690   -0.0300 ce        1 MMH      0.412800
     23 CAL        -5.2110   -0.7960    0.0280 ca        1 MMH     -0.170900
     24 CAK        -5.9010   -1.8710    0.6190 ca        1 MMH     -0.068000
     25 CAP        -7.2850   -1.8650    0.7040 ca        1 MMH     -0.187000
     26 CAO        -8.0020   -0.7680    0.1860 ca        1 MMH      0.139100
     27 OAT        -9.3720   -0.8590    0.3180 os        1 MMH     -0.324900
     28 CAU       -10.1280    0.2330   -0.1930 c3        1 MMH      0.112700
     29 CAN        -7.3300    0.3060   -0.4070 ca        1 MMH     -0.187000
     30 CAM        -5.9380    0.2850   -0.4820 ca        1 MMH     -0.068000
     31 HBC         9.6620    0.7540   -1.8360 hc        1 MMH      0.068700
     32 HBCA        9.9750   -0.2820   -0.3760 hc        1 MMH      0.068700
     33 HBCB        9.5590   -1.0560   -1.9700 hc        1 MMH      0.068700
     34 HNBA        7.9820   -1.9250   -0.0750 hn        1 MMH      0.315500
     35 HAZ         5.2090    0.4230   -0.7720 ha        1 MMH      0.170000
     36 HAX         6.5390   -3.2290    1.1900 ha        1 MMH      0.128000
     37 HAW         4.2410   -3.6140    2.0020 ha        1 MMH      0.133000
     38 HAV         2.4090   -2.0450    1.4830 ha        1 MMH      0.173000
     39 HNAR        3.0390    1.0660   -0.4800 hn        1 MMH      0.326500
     40 HAF         2.8000    3.0480   -1.1920 hc        1 MMH      0.059033
     41 HAFA        2.0530    4.4440   -0.3170 hc        1 MMH      0.059033
     42 HAFB        2.6320    3.0110    0.6260 hc        1 MMH      0.059033
     43 HNAB       -2.2460    2.7770   -1.0190 hn        1 MMH      0.340700
     44 HNAH       -1.2140   -0.7530   -0.0510 hn        1 MMH      0.453800
     45 HAJ        -3.3350   -1.8670    0.2400 h4        1 MMH     -0.002200
     46 HAK        -5.3380   -2.7270    1.0220 ha        1 MMH      0.141500
     47 HAP        -7.8320   -2.6990    1.1650 ha        1 MMH      0.147000
     48 HAU       -11.1870   -0.0600    0.0250 h1        1 MMH      0.046700
     49 HAUA       -9.8640    1.1790    0.3400 h1        1 MMH      0.046700
     50 HAUB       -9.9680    0.3440   -1.2930 h1        1 MMH      0.046700
     51 HAN        -7.8820    1.1640   -0.8150 ha        1 MMH      0.147000
     52 HAM        -5.4170    1.1340   -0.9530 ha        1 MMH      0.141500
@<TRIPOS>BOND
     1    1    2 1   
     2    1   31 1   
     3    1   32 1   
     4    1   33 1   
     5    2    3 2   
     6    2    4 1   
     7    4    5 1   
     8    4   34 1   
     9    5    6 ar  
    10    5    7 ar  
    11    6   10 ar  
    12    6   35 1   
    13    7    8 ar  
    14    7   36 1   
    15    8    9 ar  
    16    8   37 1   
    17    9   10 ar  
    18    9   38 1   
    19   10   11 1   
    20   11   12 1   
    21   11   39 1   
    22   12   13 2   
    23   12   14 1   
    24   14   15 1   
    25   14   19 2   
    26   15   16 1   
    27   15   17 2   
    28   16   40 1   
    29   16   41 1   
    30   16   42 1   
    31   17   18 1   
    32   18   19 1   
    33   18   43 1   
    34   19   20 1   
    35   20   21 1   
    36   20   44 1   
    37   21   22 2   
    38   22   23 1   
    39   22   45 1   
    40   23   24 ar  
    41   23   30 ar  
    42   24   25 ar  
    43   24   46 1   
    44   25   26 ar  
    45   25   47 1   
    46   26   27 1   
    47   26   29 ar  
    48   27   28 1   
    49   28   48 1   
    50   28   49 1   
    51   28   50 1   
    52   29   30 ar  
    53   29   51 1   
    54   30   52 1   
@<TRIPOS>SUBSTRUCTURE
     1 MMH         1 TEMP              0 ****  ****    0 ROOT
