@<TRIPOS>MOLECULE
MMH
   52    54     1     0     0
SMALL
bcc


@<TRIPOS>ATOM
      1 CBC        -0.2100    1.5030    0.2800 c3        1 MMH     -0.179100
      2 CBB         1.2240    1.0320    0.3880 c         1 MMH      0.667100
      3 OBD         1.7220    0.7550    1.4940 o         1 MMH     -0.594100
      4 NBA         1.9190    0.9330   -0.8100 ns        1 MMH     -0.474100
      5 CAY         3.2550    0.5410   -1.0060 ca        1 MMH      0.094600
      6 CAZ         4.0610    0.0390    0.0290 ca        1 MMH     -0.215000
      7 CAX         3.7970    0.6510   -2.3110 ca        1 MMH     -0.213000
      8 CAW         5.1090    0.2680   -2.5450 ca        1 MMH     -0.081000
      9 CAV         5.9210   -0.2230   -1.5270 ca        1 MMH     -0.180000
     10 CAS         5.4010   -0.3440   -0.2230 ca        1 MMH      0.098600
     11 NAR         6.1560   -0.8070    0.8670 ns        1 MMH     -0.462100
     12 CAG         7.3880   -1.4480    0.8240 c         1 MMH      0.735700
     13 OAQ         7.9720   -1.6950   -0.2570 o         1 MMH     -0.646100
     14 CAD         7.9820   -1.8340    2.1000 cc        1 MMH     -0.391900
     15 CAE         7.7460   -1.3910    3.4630 cc        1 MMH      0.369600
     16 CAF         6.7640   -0.3840    3.9170 c3        1 MMH     -0.138400
     17 NAA         8.6000   -2.0310    4.3100 nd        1 MMH     -0.520800
     18 NAB         9.3570   -2.8560    3.5790 na        1 MMH     -0.014600
     19 CAC         9.0450   -2.7870    2.2160 cd        1 MMH      0.207300
     20 NAH         9.5850   -3.5850    1.1960 nu        1 MMH     -0.401700
     21 NAI        10.7920   -4.1380    1.3930 n2        1 MMH     -0.458400
     22 CAJ        11.4920   -4.5800    0.3810 ce        1 MMH      0.412800
     23 CAL        12.7650   -5.2810    0.5600 ca        1 MMH     -0.170900
     24 CAK        13.5530   -5.5160   -0.5810 ca        1 MMH     -0.068000
     25 CAP        14.7680   -6.1760   -0.4810 ca        1 MMH     -0.187000
     26 CAO        15.2100   -6.6170    0.7820 ca        1 MMH      0.139100
     27 OAT        16.4290   -7.2630    0.7750 os        1 MMH     -0.324900
     28 CAU        16.9070   -7.7210    2.0350 c3        1 MMH      0.112700
     29 CAN        14.4360   -6.3930    1.9250 ca        1 MMH     -0.187000
     30 CAM        13.2170   -5.7260    1.8070 ca        1 MMH     -0.068000
     31 HBC        -0.2560    2.5260   -0.1650 hc        1 MMH      0.068700
     32 HBCA       -0.6510    1.5340    1.3060 hc        1 MMH      0.068700
     33 HBCB       -0.8080    0.8010   -0.3500 hc        1 MMH      0.068700
     34 HNBA        1.4320    1.2030   -1.6350 hn        1 MMH      0.315500
     35 HAZ         3.6480   -0.0550    1.0470 ha        1 MMH      0.170000
     36 HAX         3.1890    1.0370   -3.1420 ha        1 MMH      0.128000
     37 HAW         5.5230    0.3560   -3.5620 ha        1 MMH      0.133000
     38 HAV         6.9580   -0.5160   -1.7530 ha        1 MMH      0.173000
     39 HNAR        5.7020   -0.7540    1.7530 hn        1 MMH      0.326500
     40 HAF         6.9580   -0.0690    4.9730 hc        1 MMH      0.059033
     41 HAFA        6.8190    0.5250    3.2680 hc        1 MMH      0.059033
     42 HAFB        5.7300   -0.8110    3.8720 hc        1 MMH      0.059033
     43 HNAB       10.0630   -3.4120    4.0040 hn        1 MMH      0.340700
     44 HNAH        9.3470   -3.2250    0.2750 hn        1 MMH      0.453800
     45 HAJ        11.1840   -4.4640   -0.6830 h4        1 MMH     -0.002200
     46 HAK        13.2050   -5.1710   -1.5670 ha        1 MMH      0.141500
     47 HAP        15.3910   -6.3620   -1.3670 ha        1 MMH      0.147000
     48 HAU        17.8870   -8.1990    1.7820 h1        1 MMH      0.046700
     49 HAUA       16.2040   -8.4700    2.4750 h1        1 MMH      0.046700
     50 HAUB       17.0550   -6.8640    2.7350 h1        1 MMH      0.046700
     51 HAN        14.7720   -6.7350    2.9140 ha        1 MMH      0.147000
     52 HAM        12.6130   -5.5560    2.7120 ha        1 MMH      0.141500
@<TRIPOS>BOND
     1    1    2 1   
     2    1   31 1   
     3    1   32 1   
     4    1   33 1   
     5    2    3 2   
     6    2    4 1   
     7    4    5 1   
     8    4   34 1   
     9    5    6 ar  
    10    5    7 ar  
    11    6   10 ar  
    12    6   35 1   
    13    7    8 ar  
    14    7   36 1   
    15    8    9 ar  
    16    8   37 1   
    17    9   10 ar  
    18    9   38 1   
    19   10   11 1   
    20   11   12 1   
    21   11   39 1   
    22   12   13 2   
    23   12   14 1   
    24   14   15 1   
    25   14   19 2   
    26   15   16 1   
    27   15   17 2   
    28   16   40 1   
    29   16   41 1   
    30   16   42 1   
    31   17   18 1   
    32   18   19 1   
    33   18   43 1   
    34   19   20 1   
    35   20   21 1   
    36   20   44 1   
    37   21   22 2   
    38   22   23 1   
    39   22   45 1   
    40   23   24 ar  
    41   23   30 ar  
    42   24   25 ar  
    43   24   46 1   
    44   25   26 ar  
    45   25   47 1   
    46   26   27 1   
    47   26   29 ar  
    48   27   28 1   
    49   28   48 1   
    50   28   49 1   
    51   28   50 1   
    52   29   30 ar  
    53   29   51 1   
    54   30   52 1   
@<TRIPOS>SUBSTRUCTURE
     1 MMH         1 TEMP              0 ****  ****    0 ROOT
