@<TRIPOS>MOLECULE
MMH
   55    56     1     0     0
SMALL
bcc


@<TRIPOS>ATOM
      1 CBC      -197.6900  196.9610   13.0030 c3        1 MMH     -0.257000
      2 CBB      -197.6500  195.4940   12.7750 c2        1 MMH      0.286000
      3 OBD      -197.4770  194.5770   13.5550 o         1 MMH     -0.152000
      4 NBA      -197.9020  195.0480   11.3170 n4        1 MMH     -0.080000
      5 CAY      -196.6740  194.6200   10.6410 ca        1 MMH     -0.113000
      6 CAZ      -195.9450  193.5330   11.1560 ca        1 MMH     -0.060000
      7 CAX      -196.2460  195.2890    9.4800 ca        1 MMH     -0.063000
      8 CAW      -195.0810  194.8680    8.8410 ca        1 MMH     -0.080000
      9 CAV      -194.3360  193.7990    9.3370 ca        1 MMH     -0.056000
     10 CAS      -194.7710  193.1280   10.4960 ca        1 MMH     -0.086000
     11 NAR      -193.9880  192.0130   11.0250 n4        1 MMH     -0.069000
     12 CAG      -193.3810  192.2710   12.4310 c2        1 MMH      0.379000
     13 OAQ      -193.9080  193.1870   13.0470 o         1 MMH     -0.219000
     14 CAD      -192.3090  191.4120   12.7810 c2        1 MMH     -0.320000
     15 CAE      -191.4050  191.6320   13.9130 c2        1 MMH      0.021000
     16 CAF      -191.4670  192.7410   14.8820 c3        1 MMH     -0.183000
     17 NAA      -190.4840  190.6310   13.9400 n2        1 MMH     -0.024000
     18 NAB      -190.7550  189.7930   12.9350 na        1 MMH     -0.114000
     19 CAC      -191.8470  190.1930   12.1700 c2        1 MMH      0.077000
     20 NAH      -192.4050  189.5580   11.0480 nh        1 MMH     -0.339000
     21 NAI       428.7290 -404.8820  -20.3020 n1        1 MMH      0.095000
     22 CAJ       427.8930 -404.5700  -21.0450 c1        1 MMH     -0.186000
     23 CAL       426.8570 -404.1750  -21.9810 c3        1 MMH     -0.027000
     24 CAK       426.3500 -405.3460  -22.7520 c2        1 MMH      0.035000
     25 CAP       425.0300 -405.5820  -22.9310 c2        1 MMH     -0.243500
     26 CAO       424.0500 -404.7250  -22.3090 c2        1 MMH      0.323000
     27 OAT       422.7870 -405.0470  -22.5450 os        1 MMH     -0.113000
     28 CAU       421.7230 -404.2650  -21.9550 c3        1 MMH     -0.096000
     29 CAN       424.4740 -403.6260  -21.4890 c2        1 MMH     -0.243500
     30 CAM       425.7940 -403.3810  -21.3020 c2        1 MMH      0.035000
     31 HBC      -197.3860  197.1610   14.0680 hc        1 MMH      0.167000
     32 HBCA     -196.9880  197.5050   12.3210 hc        1 MMH      0.167000
     33 HBCB     -198.7310  197.3530   12.8560 hc        1 MMH      0.167000
     34 HNBA     -198.3260  195.8240   10.7940 hn        1 MMH      0.266500
     35 HAZ      -196.2710  193.0270   12.0850 ha        1 MMH      0.192000
     36 HAX      -196.8110  196.1400    9.0570 ha        1 MMH      0.183000
     37 HAW      -194.7420  195.3910    7.9260 ha        1 MMH      0.204000
     38 HAV      -193.4130  193.4980    8.8060 ha        1 MMH      0.186000
     39 HNAR     -194.5860  191.1800   11.0870 hn        1 MMH      0.269000
     40 HAF      -191.9560  192.3880   15.8280 hc        1 MMH      0.126000
     41 HAFA     -190.4400  193.1090   15.1400 hc        1 MMH      0.126000
     42 HAFB     -192.0630  193.5900   14.4640 hc        1 MMH      0.126000
     43 HNAB     -190.1610  188.9960   12.7920 hn        1 MMH      0.313000
     44 HNAH     -192.9890  188.7840   11.3200 hn        1 MMH      0.211000
     45 HAJ       427.3400 -403.4690  -22.7510 hc        1 MMH      0.215000
     46 HAK       427.1160 -406.0110  -23.1970 ha        1 MMH      0.198000
     47 HAP       424.6620 -406.4330  -23.5350 ha        1 MMH      0.201000
     48 HAU       420.8070 -404.7840  -22.3470 h1        1 MMH      0.136000
     49 HAUA      421.7820 -404.3290  -20.8430 h1        1 MMH      0.136000
     50 HAUB      421.7820 -403.2120  -22.3210 h1        1 MMH      0.136000
     51 HAN       423.7090 -402.9950  -21.0000 ha        1 MMH      0.201000
     52 HAM       426.1380 -402.5560  -20.6480 ha        1 MMH      0.198000
     53 HBA2     -198.5600  194.2560   11.3220 hn        1 MMH      0.266500
     54 HAR2     -193.2160  191.8040   10.3750 hn        1 MMH      0.269000
     55 HAH2     -191.7050  189.2460   10.3960 hn        1 MMH      0.211000
@<TRIPOS>BOND
     1    1    2 1   
     2    1   31 1   
     3    1   32 1   
     4    1   33 1   
     5    2    3 1   
     6    2    4 1   
     7    4    5 1   
     8    4   34 1   
     9    4   53 1   
    10    5    6 1   
    11    5    7 1   
    12    6   10 1   
    13    6   35 1   
    14    7    8 1   
    15    7   36 1   
    16    8    9 1   
    17    8   37 1   
    18    9   10 1   
    19    9   38 1   
    20   10   11 1   
    21   11   12 1   
    22   11   39 1   
    23   11   54 1   
    24   12   13 1   
    25   12   14 1   
    26   14   15 1   
    27   14   19 1   
    28   15   16 1   
    29   15   17 1   
    30   16   40 1   
    31   16   41 1   
    32   16   42 1   
    33   17   18 1   
    34   18   19 1   
    35   18   43 1   
    36   19   20 1   
    37   20   44 1   
    38   20   55 1   
    39   21   22 1   
    40   22   23 1   
    41   23   24 1   
    42   23   30 1   
    43   23   45 1   
    44   24   25 1   
    45   24   46 1   
    46   25   26 1   
    47   25   47 1   
    48   26   27 1   
    49   26   29 1   
    50   27   28 1   
    51   28   48 1   
    52   28   49 1   
    53   28   50 1   
    54   29   30 1   
    55   29   51 1   
    56   30   52 1   
@<TRIPOS>SUBSTRUCTURE
     1 MMH         1 TEMP              0 ****  ****    0 ROOT
