@<TRIPOS>MOLECULE
MMH
   52    54     1     0     0
SMALL
bcc


@<TRIPOS>ATOM
      1 CBC        -0.2100    1.5030    0.2640 c3        1 MMH     -0.179100
      2 CBB         1.2240    1.0320    0.3750 c         1 MMH      0.667100
      3 OBD         1.7200    0.7550    1.4820 o         1 MMH     -0.594100
      4 NBA         1.9210    0.9310   -0.8220 n         1 MMH     -0.474100
      5 CAY         3.2570    0.5400   -1.0150 ca        1 MMH      0.094600
      6 CAZ         4.0610    0.0380    0.0210 ca        1 MMH     -0.215000
      7 CAX         3.8010    0.6480   -2.3200 ca        1 MMH     -0.213000
      8 CAW         5.1140    0.2650   -2.5510 ca        1 MMH     -0.081000
      9 CAV         5.9240   -0.2260   -1.5320 ca        1 MMH     -0.180000
     10 CAS         5.4020   -0.3460   -0.2290 ca        1 MMH      0.098600
     11 NAR         6.1550   -0.8090    0.8630 n         1 MMH     -0.462100
     12 CAG         7.3870   -1.4490    0.8230 c         1 MMH      0.735700
     13 OAQ         7.9740   -1.6960   -0.2580 o         1 MMH     -0.646100
     14 CAD         7.9790   -1.8350    2.1000 cc        1 MMH     -0.391900
     15 CAE         7.7400   -1.3910    3.4620 cc        1 MMH      0.369600
     16 CAF         6.7570   -0.3850    3.9140 c3        1 MMH     -0.138400
     17 NAA         8.5930   -2.0320    4.3110 nd        1 MMH     -0.520800
     18 NAB         9.3510   -2.8560    3.5820 na        1 MMH     -0.014600
     19 CAC         9.0420   -2.7870    2.2180 cd        1 MMH      0.207300
     20 NAH         9.5850   -3.5860    1.1980 nh        1 MMH     -0.401700
     21 NAI        10.7910   -4.1370    1.3980 n2        1 MMH     -0.458400
     22 CAJ        11.4940   -4.5790    0.3870 ce        1 MMH      0.412800
     23 CAL        12.7670   -5.2790    0.5690 ca        1 MMH     -0.170900
     24 CAK        13.5580   -5.5120   -0.5710 ca        1 MMH     -0.068000
     25 CAP        14.7730   -6.1710   -0.4690 ca        1 MMH     -0.187000
     26 CAO        15.2130   -6.6130    0.7950 ca        1 MMH      0.139100
     27 OAT        16.4320   -7.2580    0.7900 os        1 MMH     -0.324900
     28 CAU        16.9070   -7.7160    2.0510 c3        1 MMH      0.112700
     29 CAN        14.4350   -6.3910    1.9370 ca        1 MMH     -0.187000
     30 CAM        13.2160   -5.7240    1.8170 ca        1 MMH     -0.068000
     31 HBC        -0.6520    1.5350    1.2900 hc        1 MMH      0.068700
     32 HBCA       -0.2540    2.5260   -0.1820 hc        1 MMH      0.068700
     33 HBCB       -0.8070    0.8010   -0.3660 hc        1 MMH      0.068700
     34 HNBA        1.4350    1.2010   -1.6480 hn        1 MMH      0.315500
     35 HAZ         3.6470   -0.0560    1.0390 ha        1 MMH      0.170000
     36 HAX         3.1950    1.0340   -3.1520 ha        1 MMH      0.128000
     37 HAW         5.5290    0.3520   -3.5680 ha        1 MMH      0.133000
     38 HAV         6.9610   -0.5190   -1.7560 ha        1 MMH      0.173000
     39 HNAR        5.7000   -0.7550    1.7480 hn        1 MMH      0.326500
     40 HAF         5.7230   -0.8120    3.8670 hc        1 MMH      0.059033
     41 HAFA        6.8140    0.5240    3.2650 hc        1 MMH      0.059033
     42 HAFB        6.9490   -0.0700    4.9710 hc        1 MMH      0.059033
     43 HNAB       10.0570   -3.4120    4.0080 hn        1 MMH      0.340700
     44 HNAH        9.3480   -3.2260    0.2770 hn        1 MMH      0.453800
     45 HAJ        11.1870   -4.4630   -0.6770 h4        1 MMH     -0.002200
     46 HAK        13.2110   -5.1660   -1.5580 ha        1 MMH      0.141500
     47 HAP        15.3980   -6.3560   -1.3530 ha        1 MMH      0.147000
     48 HAU        16.2050   -8.4660    2.4890 h1        1 MMH      0.046700
     49 HAUA       17.8890   -8.1930    1.8000 h1        1 MMH      0.046700
     50 HAUB       17.0530   -6.8590    2.7530 h1        1 MMH      0.046700
     51 HAN        14.7700   -6.7340    2.9260 ha        1 MMH      0.147000
     52 HAM        12.6100   -5.5560    2.7200 ha        1 MMH      0.141500
@<TRIPOS>BOND
     1    1    2 1   
     2    1   31 1   
     3    1   32 1   
     4    1   33 1   
     5    2    3 2   
     6    2    4 1   
     7    4    5 1   
     8    4   34 1   
     9    5    6 ar  
    10    5    7 ar  
    11    6   10 ar  
    12    6   35 1   
    13    7    8 ar  
    14    7   36 1   
    15    8    9 ar  
    16    8   37 1   
    17    9   10 ar  
    18    9   38 1   
    19   10   11 1   
    20   11   12 1   
    21   11   39 1   
    22   12   13 2   
    23   12   14 1   
    24   14   15 1   
    25   14   19 2   
    26   15   16 1   
    27   15   17 2   
    28   16   40 1   
    29   16   41 1   
    30   16   42 1   
    31   17   18 1   
    32   18   19 1   
    33   18   43 1   
    34   19   20 1   
    35   20   21 1   
    36   20   44 1   
    37   21   22 2   
    38   22   23 1   
    39   22   45 1   
    40   23   24 ar  
    41   23   30 ar  
    42   24   25 ar  
    43   24   46 1   
    44   25   26 ar  
    45   25   47 1   
    46   26   27 1   
    47   26   29 ar  
    48   27   28 1   
    49   28   48 1   
    50   28   49 1   
    51   28   50 1   
    52   29   30 ar  
    53   29   51 1   
    54   30   52 1   
@<TRIPOS>SUBSTRUCTURE
     1 MMH         1 TEMP              0 ****  ****    0 ROOT
