@<TRIPOS>MOLECULE
MMH
   52    46     1     0     0
SMALL
bcc


@<TRIPOS>ATOM
      1 CBC        -0.8560   -5.3320    6.6910 c3        1 MMH     -0.247000
      2 CBB        -1.2080   -4.0080    6.0790 c2        1 MMH      0.310000
      3 OBD        -2.3160   -3.5110    6.2810 o         1 MMH     -0.351000
      4 NBA        -0.2610   -3.3230    5.2790 n         1 MMH     -0.328000
      5 CAY        -0.5900   -2.0670    4.7130 c2        1 MMH      0.103000
      6 CAZ        -0.1510   -1.7460    3.4200 c1        1 MMH     -0.214000
      7 CAX        -1.2590   -1.1160    5.4770 c2        1 MMH     -0.183000
      8 CAW        -1.4950    0.1630    4.9560 c1        1 MMH     -0.081000
      9 CAV        -1.0590    0.4840    3.6720 c1        1 MMH     -0.212000
     10 CAS        -0.3840   -0.4740    2.9000 c1        1 MMH      0.102000
     11 NAR        -0.1280   -0.2210    1.5380 n         1 MMH     -0.327000
     12 CAG         1.1090   -0.6930    0.9290 c2        1 MMH      0.396000
     13 OAQ         1.9290   -1.3110    1.6060 o         1 MMH     -0.358000
     14 CAD         1.3020   -0.5790   -0.5910 c2        1 MMH     -0.272000
     15 CAE         1.3140   -1.6170   -1.4800 c1        1 MMH      0.005500
     16 CAF         1.3190   -3.0820   -1.1320 c2        1 MMH     -0.165000
     17 NAA         1.4300   -1.1000   -2.7200 n2        1 MMH     -0.125500
     18 NAB         1.4920    0.2680   -2.6090 n2        1 MMH     -0.125500
     19 CAC         1.4130    0.5860   -1.3030 c1        1 MMH      0.005500
     20 NAH         1.5530    1.9050   -0.7480 n2        1 MMH     -0.187000
     21 NAI         0.3960    2.6170   -0.2870 n2        1 MMH     -0.090000
     22 CAJ        -0.4690    3.1270   -1.1690 c1        1 MMH     -0.065000
     23 CAL        -0.2270    2.9530   -2.6660 c1        1 MMH     -0.166000
     24 CAK        -1.2820    2.6440   -3.5030 c2        1 MMH     -0.059000
     25 CAP        -1.0870    2.5810   -4.8690 c1        1 MMH     -0.208000
     26 CAO         0.1640    2.8280   -5.4000 c1        1 MMH      0.106000
     27 OAT         0.3720    2.7460   -6.8320 os        1 MMH     -0.203000
     28 CAU        -0.5610    3.5160   -7.5960 c3        1 MMH     -0.079000
     29 CAN         1.2220    3.1380   -4.5640 c1        1 MMH     -0.160000
     30 CAM         1.0250    3.2000   -3.1950 c1        1 MMH     -0.082000
     31 HBC        -0.4750   -5.1890    7.5720 hc        1 MMH      0.108000
     32 HBCA       -1.6530   -5.8720    6.7690 hc        1 MMH      0.108000
     33 HBCB       -0.1930   -5.7990    6.1130 hc        1 MMH      0.108000
     34 HNBA        0.5360   -3.7130    5.0850 hn        1 MMH      0.233000
     35 HAZ         0.3180   -2.4120    2.8850 ha        1 MMH      0.167000
     36 HAX        -1.5580   -1.3350    6.3560 ha        1 MMH      0.174000
     37 HAW        -1.9630    0.8270    5.4910 ha        1 MMH      0.134000
     38 HAV        -1.2240    1.3740    3.3100 ha        1 MMH      0.129000
     39 HNAR       -0.7050    0.3000    1.0550 hn        1 MMH      0.237000
     40 HAF         1.8370   -3.2200   -0.3250 ha        1 MMH      0.103667
     41 HAFA        0.4120   -3.3830   -0.9870 ha        1 MMH      0.103667
     42 HAFB        1.7130   -3.5860   -1.8600 ha        1 MMH      0.103667
     43 HNAB        1.5720    0.8600   -3.3020 DU        1 MMH      0.281000
     44 HNAH        2.3880    2.3080   -0.7150 hn        1 MMH      0.240000
     45 HAJ        -1.2700    3.6190   -0.8510 ha        1 MMH      0.168000
     46 HAK        -2.1650    2.4670   -3.1290 ha        1 MMH      0.148000
     47 HAP        -1.8460    2.3600   -5.4700 ha        1 MMH      0.147000
     48 HAU        -0.1290    3.8180   -8.4440 h1        1 MMH      0.089000
     49 HAUA       -1.3420    2.9680   -7.8050 h1        1 MMH      0.089000
     50 HAUB       -0.8420    4.2970   -7.0750 h1        1 MMH      0.089000
     51 HAN         2.1170    3.3140   -4.9450 ha        1 MMH      0.158000
     52 HAM         1.7680    3.4190   -2.6040 ha        1 MMH      0.141000
@<TRIPOS>BOND
     1    1    2 1   
     2    1   31 1   
     3    1   32 1   
     4    1   33 1   
     5    2    3 1   
     6    2    4 1   
     7    4    5 1   
     8    4   34 1   
     9    5    6 1   
    10    5    7 1   
    11    6   35 1   
    12    7    8 1   
    13    7   36 1   
    14    8   37 1   
    15    9   10 1   
    16    9   38 1   
    17   10   11 1   
    18   11   12 1   
    19   11   39 1   
    20   12   13 1   
    21   12   14 1   
    22   14   15 1   
    23   14   19 1   
    24   15   17 1   
    25   16   40 1   
    26   16   41 1   
    27   16   42 1   
    28   17   18 1   
    29   18   19 1   
    30   20   21 1   
    31   20   44 1   
    32   21   22 1   
    33   22   45 1   
    34   23   24 1   
    35   23   30 1   
    36   24   25 1   
    37   24   46 1   
    38   25   47 1   
    39   26   27 1   
    40   26   29 1   
    41   27   28 1   
    42   28   48 1   
    43   28   49 1   
    44   28   50 1   
    45   29   51 1   
    46   30   52 1   
@<TRIPOS>SUBSTRUCTURE
     1 MMH         1 TEMP              0 ****  ****    0 ROOT
