@<TRIPOS>MOLECULE
MMJ
   30    31     1     0     0
SMALL
bcc


@<TRIPOS>ATOM
      1 C15        -0.0230   -0.1070    0.0790 c3        1 MMJ     -0.156400
      2 C10         1.4560   -0.0820   -0.0160 cc        1 MMJ      0.432600
      3 C9          2.3300   -0.1070    1.0900 cd        1 MMJ     -0.393700
      4 C12         1.9180   -0.0930    2.4930 c3        1 MMJ      0.233100
      5 N13         1.3250   -1.4260    2.8910 n4        1 MMJ     -0.769000
      6 C14         0.8750   -1.4420    4.2970 c3        1 MMJ      0.076100
      7 S8          3.9240   -0.0550    0.5720 ss        1 MMJ     -0.020300
      8 N11         2.0880   -0.0420   -1.2410 nc        1 MMJ     -0.637000
      9 C7          3.4250   -0.0200   -1.0720 cd        1 MMJ      0.540900
     10 C2          4.4010    0.0320   -2.1440 ca        1 MMJ     -0.186500
     11 C3          5.7720    0.0580   -1.8250 ca        1 MMJ     -0.084000
     12 C4          6.7230    0.1100   -2.8360 ca        1 MMJ     -0.130000
     13 C5          6.3230    0.1370   -4.1760 ca        1 MMJ     -0.082000
     14 C6          4.9670    0.1130   -4.4970 ca        1 MMJ     -0.130000
     15 C1          4.0030    0.0610   -3.4890 ca        1 MMJ     -0.084000
     16 H1         -0.4840    0.5600   -0.6960 hc        1 MMJ      0.066700
     17 H2         -0.4020   -1.1460   -0.1010 hc        1 MMJ      0.066700
     18 H3         -0.3600    0.2420    1.0850 hc        1 MMJ      0.066700
     19 H4          2.7890    0.1070    3.1830 hx        1 MMJ      0.107700
     20 H5          1.1230    0.6880    2.6800 hx        1 MMJ      0.107700
     21 H6          2.0270   -2.1590    2.7400 hn        1 MMJ      0.453300
     22 H8          1.7470   -1.2380    4.9740 hx        1 MMJ      0.107700
     23 H9          0.4410   -2.4500    4.5390 hx        1 MMJ      0.107700
     24 H10         0.0920   -0.6510    4.4520 hx        1 MMJ      0.107700
     25 H11         6.0950    0.0390   -0.7720 ha        1 MMJ      0.145000
     26 H12         7.7950    0.1310   -2.5830 ha        1 MMJ      0.151500
     27 H13         7.0800    0.1790   -4.9740 ha        1 MMJ      0.152000
     28 H14         4.6490    0.1360   -5.5510 ha        1 MMJ      0.151500
     29 H15         2.9350    0.0440   -3.7570 ha        1 MMJ      0.145000
     30 H132        0.5330   -1.6210    2.2640 hn        1 MMJ      0.453300
@<TRIPOS>BOND
     1    1    2 1   
     2    1   16 1   
     3    1   17 1   
     4    1   18 1   
     5    2    3 2   
     6    2    8 1   
     7    3    4 1   
     8    3    7 1   
     9    4    5 1   
    10    4   19 1   
    11    4   20 1   
    12    5    6 1   
    13    5   21 1   
    14    5   30 1   
    15    6   22 1   
    16    6   23 1   
    17    6   24 1   
    18    7    9 1   
    19    8    9 2   
    20    9   10 1   
    21   10   11 ar  
    22   10   15 ar  
    23   11   12 ar  
    24   11   25 1   
    25   12   13 ar  
    26   12   26 1   
    27   13   14 ar  
    28   13   27 1   
    29   14   15 ar  
    30   14   28 1   
    31   15   29 1   
@<TRIPOS>SUBSTRUCTURE
     1 MMJ         1 TEMP              0 ****  ****    0 ROOT
