@<TRIPOS>MOLECULE
MMJ
   30    31     1     0     0
SMALL
bcc


@<TRIPOS>ATOM
      1 C15        -0.0220   -0.0850    0.0840 c3        1 MMJ     -0.156400
      2 C10         1.4570   -0.0690   -0.0130 cc        1 MMJ      0.432600
      3 C9          2.3340   -0.1000    1.0910 cd        1 MMJ     -0.393700
      4 C12         1.9250   -0.0830    2.4950 c3        1 MMJ      0.233100
      5 N13         1.3250   -1.4120    2.8940 n4        1 MMJ     -0.769000
      6 C14         0.8770   -1.4250    4.3010 c3        1 MMJ      0.076100
      7 S8          3.9270   -0.0580    0.5700 ss        1 MMJ     -0.020300
      8 N11         2.0870   -0.0340   -1.2400 nc        1 MMJ     -0.637000
      9 C7          3.4240   -0.0200   -1.0740 cd        1 MMJ      0.540900
     10 C2          4.3990    0.0260   -2.1470 ca        1 MMJ     -0.186500
     11 C3          5.7710    0.0250   -1.8320 ca        1 MMJ     -0.084000
     12 C4          6.7210    0.0710   -2.8450 ca        1 MMJ     -0.130000
     13 C5          6.3170    0.1190   -4.1830 ca        1 MMJ     -0.082000
     14 C6          4.9600    0.1210   -4.5010 ca        1 MMJ     -0.130000
     15 C1          3.9990    0.0750   -3.4910 ca        1 MMJ     -0.084000
     16 H1         -0.4800    0.5860   -0.6890 hc        1 MMJ      0.066700
     17 H2         -0.3540    0.2650    1.0920 hc        1 MMJ      0.066700
     18 H3         -0.4070   -1.1210   -0.0960 hc        1 MMJ      0.066700
     19 H4          1.1340    0.7030    2.6840 hx        1 MMJ      0.107700
     20 H5          2.7980    0.1120    3.1830 hx        1 MMJ      0.107700
     21 H6          2.0230   -2.1500    2.7430 hn        1 MMJ      0.453300
     22 H8          0.0990   -0.6300    4.4570 hx        1 MMJ      0.107700
     23 H9          0.4380   -2.4310    4.5440 hx        1 MMJ      0.107700
     24 H10         1.7520   -1.2250    4.9770 hx        1 MMJ      0.107700
     25 H11         6.0970   -0.0100   -0.7800 ha        1 MMJ      0.145000
     26 H12         7.7930    0.0710   -2.5940 ha        1 MMJ      0.151500
     27 H13         7.0730    0.1570   -4.9830 ha        1 MMJ      0.152000
     28 H14         4.6410    0.1600   -5.5540 ha        1 MMJ      0.151500
     29 H15         2.9290    0.0790   -3.7560 ha        1 MMJ      0.145000
     30 H132        0.5310   -1.6030    2.2680 hn        1 MMJ      0.453300
@<TRIPOS>BOND
     1    1    2 1   
     2    1   16 1   
     3    1   17 1   
     4    1   18 1   
     5    2    3 2   
     6    2    8 1   
     7    3    4 1   
     8    3    7 1   
     9    4    5 1   
    10    4   19 1   
    11    4   20 1   
    12    5    6 1   
    13    5   21 1   
    14    5   30 1   
    15    6   22 1   
    16    6   23 1   
    17    6   24 1   
    18    7    9 1   
    19    8    9 2   
    20    9   10 1   
    21   10   11 ar  
    22   10   15 ar  
    23   11   12 ar  
    24   11   25 1   
    25   12   13 ar  
    26   12   26 1   
    27   13   14 ar  
    28   13   27 1   
    29   14   15 ar  
    30   14   28 1   
    31   15   29 1   
@<TRIPOS>SUBSTRUCTURE
     1 MMJ         1 TEMP              0 ****  ****    0 ROOT
