@<TRIPOS>MOLECULE
MMJ
   29    30     1     0     0
SMALL
bcc


@<TRIPOS>ATOM
      1 C15        -2.1580    2.7790    0.7780 c3        1 MMJ     -0.125400
      2 C10        -1.3330    1.5940    0.4470 cc        1 MMJ      0.346600
      3 C9         -1.8670    0.3330    0.1500 cd        1 MMJ     -0.221700
      4 C12        -3.3140    0.0160    0.1620 c3        1 MMJ      0.240100
      5 N13        -3.6610   -1.0980   -0.7040 n3        1 MMJ     -0.831200
      6 C14        -5.0580   -1.4370   -0.6660 c3        1 MMJ      0.152100
      7 S8         -0.6420   -0.7600   -0.1710 ss        1 MMJ     -0.031300
      8 N11         0.0530    1.6560    0.4090 nc        1 MMJ     -0.628000
      9 C7          0.5500    0.4540    0.0860 cd        1 MMJ      0.430900
     10 C2          1.9660    0.1470   -0.0540 ca        1 MMJ     -0.128500
     11 C3          2.3860   -1.1930   -0.0520 ca        1 MMJ     -0.105500
     12 C4          3.7340   -1.5060   -0.1950 ca        1 MMJ     -0.133000
     13 C5          4.6780   -0.4880   -0.3380 ca        1 MMJ     -0.120000
     14 C6          4.2680    0.8440   -0.3370 ca        1 MMJ     -0.133000
     15 C1          2.9180    1.1660   -0.1960 ca        1 MMJ     -0.105500
     16 H1         -2.7560    3.0810   -0.1190 hc        1 MMJ      0.051367
     17 H2         -2.8650    2.5230    1.6060 hc        1 MMJ      0.051367
     18 H3         -1.5330    3.6480    1.0970 hc        1 MMJ      0.051367
     19 H4         -3.6150   -0.2630    1.2160 h1        1 MMJ      0.045200
     20 H5         -3.8880    0.9570   -0.1040 h1        1 MMJ      0.045200
     21 H6         -3.3650   -0.9130   -1.6450 hn        1 MMJ      0.362800
     22 H8         -5.3320   -1.7570    0.3740 h1        1 MMJ      0.032033
     23 H9         -5.7390   -0.5910   -0.9620 h1        1 MMJ      0.032033
     24 H10        -5.2340   -2.2970   -1.3650 h1        1 MMJ      0.032033
     25 H11         1.6450   -2.0010    0.0670 ha        1 MMJ      0.144000
     26 H12         4.0550   -2.5580   -0.1920 ha        1 MMJ      0.134500
     27 H13         5.7440   -0.7370   -0.4490 ha        1 MMJ      0.133000
     28 H14         5.0100    1.6490   -0.4480 ha        1 MMJ      0.134500
     29 H15         2.6030    2.2210   -0.1950 ha        1 MMJ      0.144000
@<TRIPOS>BOND
     1    1    2 1   
     2    1   16 1   
     3    1   17 1   
     4    1   18 1   
     5    2    3 2   
     6    2    8 1   
     7    3    4 1   
     8    3    7 1   
     9    4    5 1   
    10    4   19 1   
    11    4   20 1   
    12    5    6 1   
    13    5   21 1   
    14    6   22 1   
    15    6   23 1   
    16    6   24 1   
    17    7    9 1   
    18    8    9 2   
    19    9   10 1   
    20   10   11 ar  
    21   10   15 ar  
    22   11   12 ar  
    23   11   25 1   
    24   12   13 ar  
    25   12   26 1   
    26   13   14 ar  
    27   13   27 1   
    28   14   15 ar  
    29   14   28 1   
    30   15   29 1   
@<TRIPOS>SUBSTRUCTURE
     1 MMJ         1 TEMP              0 ****  ****    0 ROOT
