@<TRIPOS>MOLECULE
MMJ
   30    31     1     0     0
SMALL
bcc


@<TRIPOS>ATOM
      1 C15        -0.0250   -0.1220    0.0770 c3        1 MMJ     -0.156400
      2 C10         1.4540   -0.0870   -0.0180 cc        1 MMJ      0.432600
      3 C9          2.3280   -0.0980    1.0880 cd        1 MMJ     -0.393700
      4 C12         1.9170   -0.0770    2.4910 c3        1 MMJ      0.233100
      5 N13         1.3330   -1.4110    2.8990 ny        1 MMJ     -0.769000
      6 C14         0.8830   -1.4200    4.3050 c3        1 MMJ      0.076100
      7 S8          3.9220   -0.0390    0.5700 ss        1 MMJ     -0.020300
      8 N11         2.0860   -0.0520   -1.2430 nc        1 MMJ     -0.637000
      9 C7          3.4220   -0.0190   -1.0750 cd        1 MMJ      0.540900
     10 C2          4.3990    0.0320   -2.1470 ca        1 MMJ     -0.186500
     11 C3          5.7690    0.0620   -1.8280 ca        1 MMJ     -0.084000
     12 C4          6.7210    0.1140   -2.8400 ca        1 MMJ     -0.130000
     13 C5          6.3190    0.1360   -4.1790 ca        1 MMJ     -0.082000
     14 C6          4.9640    0.1070   -4.5000 ca        1 MMJ     -0.130000
     15 C1          4.0000    0.0550   -3.4920 ca        1 MMJ     -0.084000
     16 H1         -0.4900    0.5370   -0.7020 hc        1 MMJ      0.066700
     17 H2         -0.3640    0.2300    1.0810 hc        1 MMJ      0.066700
     18 H3         -0.3960   -1.1650   -0.0970 hc        1 MMJ      0.066700
     19 H4          1.1150    0.7000    2.6730 hx        1 MMJ      0.107700
     20 H5          2.7860    0.1340    3.1790 hx        1 MMJ      0.107700
     21 H6          2.0410   -2.1410    2.7540 hn        1 MMJ      0.453300
     22 H8          0.0950   -0.6340    4.4540 hx        1 MMJ      0.107700
     23 H9          0.4570   -2.4300    4.5540 hx        1 MMJ      0.107700
     24 H10         1.7540   -1.2040    4.9810 hx        1 MMJ      0.107700
     25 H11         6.0930    0.0480   -0.7750 ha        1 MMJ      0.145000
     26 H12         7.7920    0.1390   -2.5860 ha        1 MMJ      0.151500
     27 H13         7.0760    0.1780   -4.9780 ha        1 MMJ      0.152000
     28 H14         4.6460    0.1260   -5.5540 ha        1 MMJ      0.151500
     29 H15         2.9320    0.0350   -3.7600 ha        1 MMJ      0.145000
     30 H132        0.5430   -1.6170    2.2730 hn        1 MMJ      0.453300
@<TRIPOS>BOND
     1    1    2 1   
     2    1   16 1   
     3    1   17 1   
     4    1   18 1   
     5    2    3 2   
     6    2    8 1   
     7    3    4 1   
     8    3    7 1   
     9    4    5 1   
    10    4   19 1   
    11    4   20 1   
    12    5    6 1   
    13    5   21 1   
    14    5   30 1   
    15    6   22 1   
    16    6   23 1   
    17    6   24 1   
    18    7    9 1   
    19    8    9 2   
    20    9   10 1   
    21   10   11 ar  
    22   10   15 ar  
    23   11   12 ar  
    24   11   25 1   
    25   12   13 ar  
    26   12   26 1   
    27   13   14 ar  
    28   13   27 1   
    29   14   15 ar  
    30   14   28 1   
    31   15   29 1   
@<TRIPOS>SUBSTRUCTURE
     1 MMJ         1 TEMP              0 ****  ****    0 ROOT
