@<TRIPOS>MOLECULE
MMJ
   29    26     1     0     0
SMALL
bcc


@<TRIPOS>ATOM
      1 C15        -3.5480    0.0650   -0.2550 c3        1 MMJ     -0.149000
      2 C10        -2.0270    0.0570   -0.2110 c2        1 MMJ     -0.076000
      3 C9         -1.2150    0.0130    0.9900 c1        1 MMJ     -0.419000
      4 C12        -1.7210    0.0490    2.3900 c2        1 MMJ     -0.004000
      5 N13        -0.8840   -0.7290    3.2110 n3        1 MMJ     -0.310000
      6 C14        -1.0020   -0.2780    4.5760 c3        1 MMJ     -0.124000
      7 S8          0.2550    0.0620    0.5670 ss        1 MMJ      0.553000
      8 N11        -1.0620    0.1370   -1.4560 n2        1 MMJ     -0.102000
      9 C7          0.2960    0.1390   -0.9760 c1        1 MMJ     -0.254000
     10 C2          1.5560    0.1500   -1.8380 c1        1 MMJ     -0.021000
     11 C3          2.0690   -1.0490   -2.3400 c2        1 MMJ     -0.087000
     12 C4          3.1680   -1.0330   -3.1850 c1        1 MMJ     -0.136000
     13 C5          3.7560    0.1730   -3.5320 c1        1 MMJ     -0.125000
     14 C6          3.2430    1.3700   -3.0300 c1        1 MMJ     -0.125000
     15 C1          2.1440    1.3530   -2.1840 c1        1 MMJ     -0.124000
     16 H1         -3.8840   -0.7910    0.0400 hc        1 MMJ      0.090667
     17 H2         -3.8810    0.7580    0.3280 hc        1 MMJ      0.090667
     18 H3         -3.8490    0.2360   -1.1740 hc        1 MMJ      0.090667
     19 H4         -1.7250    0.9630    2.7080 h4        1 MMJ      0.084500
     20 H5         -2.6290   -0.3090    2.4180 h4        1 MMJ      0.084500
     21 H6         -1.1410   -1.6250    3.1570 hn        1 MMJ      0.158000
     22 H8         -0.8550    0.6750    4.6150 h1        1 MMJ      0.071333
     23 H9         -0.3320   -0.7360    5.1340 h1        1 MMJ      0.071333
     24 H10        -1.8720   -0.4770    4.9000 h1        1 MMJ      0.071333
     25 H11         1.6530   -1.9010   -2.0920 ha        1 MMJ      0.154000
     26 H12         3.5280   -1.8740   -3.5380 ha        1 MMJ      0.135000
     27 H13         4.5310    0.1850   -4.1280 ha        1 MMJ      0.133500
     28 H14         3.6520    2.2080   -3.2700 ha        1 MMJ      0.133500
     29 H15         1.7760    2.2100   -1.8260 ha        1 MMJ      0.134000
@<TRIPOS>BOND
     1    1    2 1   
     2    1   16 1   
     3    1   17 1   
     4    1   18 1   
     5    2    3 1   
     6    2    8 1   
     7    3    7 1   
     8    4    5 1   
     9    4   19 1   
    10    4   20 1   
    11    5    6 1   
    12    5   21 1   
    13    6   22 1   
    14    6   23 1   
    15    6   24 1   
    16    7    9 1   
    17    8    9 1   
    18   10   11 1   
    19   10   15 1   
    20   11   12 1   
    21   11   25 1   
    22   12   26 1   
    23   13   14 1   
    24   13   27 1   
    25   14   28 1   
    26   15   29 1   
@<TRIPOS>SUBSTRUCTURE
     1 MMJ         1 TEMP              0 ****  ****    0 ROOT
