@<TRIPOS>MOLECULE
MML
   24    22     1     0     0
SMALL
bcc


@<TRIPOS>ATOM
      1 C1         -3.7910   -0.0250    0.2370 c3        1 MML     -0.178000
      2 C2         -2.2790   -0.0250    0.2370 c2        1 MML     -0.073000
      3 C3         -1.5860   -0.0250    1.4380 c1        1 MML     -0.130000
      4 C4         -0.2000   -0.0250    1.4380 c1        1 MML     -0.124000
      5 C5          0.4940   -0.0250    0.2380 c1        1 MML     -0.071000
      6 C6          2.0060    0.0040    0.2380 c2        1 MML     -0.070000
      7 C7          2.5330   -1.1940   -0.5220 c3        1 MML     -0.206000
      8 C8          2.4870    1.2740   -0.4290 c3        1 MML     -0.206000
      9 C9         -0.1990   -0.0250   -0.9630 c2        1 MML     -0.122000
     10 C10        -1.5850   -0.0250   -0.9630 c2        1 MML     -0.129000
     11 H1         -4.1170    0.8910    0.1420 hc        1 MML      0.082333
     12 H1A        -4.1170   -0.5650   -0.5070 hc        1 MML      0.082333
     13 H1B        -4.1170   -0.3990    1.0780 hc        1 MML      0.082333
     14 H3         -2.0740   -0.0250    2.2830 ha        1 MML      0.130000
     15 H4          0.2880   -0.0250    2.2830 ha        1 MML      0.130000
     16 H6          2.3320   -0.0250    1.1570 ha        1 MML      0.089000
     17 H7          2.1050   -2.0050   -0.1870 hc        1 MML      0.075000
     18 H7A         3.4990   -1.2600   -0.3950 hc        1 MML      0.075000
     19 H7B         2.3350   -1.0900   -1.4720 hc        1 MML      0.075000
     20 H8          3.4460    1.3770   -0.2790 hc        1 MML      0.075000
     21 H8A         2.3100    1.2260   -1.3870 hc        1 MML      0.075000
     22 H8B         2.0140    2.0390   -0.0490 hc        1 MML      0.075000
     23 H9          0.2890   -0.0250   -1.8080 ha        1 MML      0.131000
     24 H10        -2.0740   -0.0250   -1.8080 ha        1 MML      0.130000
@<TRIPOS>BOND
     1    1    2 1   
     2    1   11 1   
     3    1   12 1   
     4    1   13 1   
     5    2    3 1   
     6    2   10 1   
     7    3   14 1   
     8    4    5 1   
     9    4   15 1   
    10    5    9 1   
    11    6    7 1   
    12    6    8 1   
    13    6   16 1   
    14    7   17 1   
    15    7   18 1   
    16    7   19 1   
    17    8   20 1   
    18    8   21 1   
    19    8   22 1   
    20    9   10 1   
    21    9   23 1   
    22   10   24 1   
@<TRIPOS>SUBSTRUCTURE
     1 MML         1 TEMP              0 ****  ****    0 ROOT
