@<TRIPOS>MOLECULE
MML
   24    24     1     0     0
SMALL
bcc


@<TRIPOS>ATOM
      1 C1          3.6200   -0.2380    0.0030 c3        1 MML     -0.052800
      2 C2          2.1470   -0.0830   -0.0090 ca        1 MML     -0.080300
      3 C3          1.5660    1.1900   -0.0120 ca        1 MML     -0.129500
      4 C4          0.1800    1.3340   -0.0080 ca        1 MML     -0.123000
      5 C5         -0.6520    0.2090   -0.0030 ca        1 MML     -0.078300
      6 C6         -2.1390    0.3740    0.0010 c3        1 MML     -0.023400
      7 C7         -2.7580   -0.2360   -1.2430 c3        1 MML     -0.088100
      8 C8         -2.7520   -0.2310    1.2500 c3        1 MML     -0.088100
      9 C9         -0.0690   -1.0650   -0.0010 ca        1 MML     -0.123000
     10 C10         1.3150   -1.2090   -0.0050 ca        1 MML     -0.129500
     11 H1          3.9880   -0.2980    1.0590 hc        1 MML      0.043033
     12 H1A         3.9280   -1.1720   -0.5280 hc        1 MML      0.043033
     13 H1B         4.1180    0.6320   -0.4910 hc        1 MML      0.043033
     14 H3          2.2080    2.0830   -0.0170 ha        1 MML      0.130000
     15 H4         -0.2610    2.3420   -0.0100 ha        1 MML      0.130500
     16 H6         -2.3770    1.4780   -0.0010 hc        1 MML      0.049700
     17 H7         -2.5620   -1.3350   -1.2820 hc        1 MML      0.035700
     18 H7A        -3.8620   -0.0720   -1.2400 hc        1 MML      0.035700
     19 H7B        -2.3290    0.2320   -2.1610 hc        1 MML      0.035700
     20 H8         -3.8560   -0.0670    1.2510 hc        1 MML      0.035700
     21 H8A        -2.5560   -1.3300    1.2920 hc        1 MML      0.035700
     22 H8B        -2.3180    0.2410    2.1640 hc        1 MML      0.035700
     23 H9         -0.7120   -1.9580    0.0020 ha        1 MML      0.130500
     24 H10         1.7610   -2.2150   -0.0050 ha        1 MML      0.130000
@<TRIPOS>BOND
     1    1    2 1   
     2    1   11 1   
     3    1   12 1   
     4    1   13 1   
     5    2    3 ar  
     6    2   10 ar  
     7    3    4 ar  
     8    3   14 1   
     9    4    5 ar  
    10    4   15 1   
    11    5    6 1   
    12    5    9 ar  
    13    6    7 1   
    14    6    8 1   
    15    6   16 1   
    16    7   17 1   
    17    7   18 1   
    18    7   19 1   
    19    8   20 1   
    20    8   21 1   
    21    8   22 1   
    22    9   10 ar  
    23    9   23 1   
    24   10   24 1   
@<TRIPOS>SUBSTRUCTURE
     1 MML         1 TEMP              0 ****  ****    0 ROOT
