@<TRIPOS>MOLECULE
MML
   24    24     1     0     0
SMALL
bcc


@<TRIPOS>ATOM
      1 C1         -0.0170   -0.0040   -0.0010 c3        1 MML     -0.052800
      2 C2          1.4640    0.0090   -0.0090 ca        1 MML     -0.080300
      3 C3          2.1810    0.0160    1.1920 ca        1 MML     -0.129500
      4 C4          3.5740    0.0140    1.1840 ca        1 MML     -0.123000
      5 C5          4.2780    0.0040   -0.0260 ca        1 MML     -0.078300
      6 C6          5.7740    0.0020   -0.0250 c3        1 MML     -0.023400
      7 C7          6.3170   -1.2490   -0.6890 c3        1 MML     -0.088100
      8 C8          6.3210    1.2440   -0.7040 c3        1 MML     -0.088100
      9 C9          3.5590   -0.0020   -1.2280 ca        1 MML     -0.123000
     10 C10         2.1670    0.0010   -1.2190 ca        1 MML     -0.129500
     11 H1         -0.4170    0.4930    0.9170 hc        1 MML      0.043033
     12 H1A        -0.4260    0.5240   -0.8970 hc        1 MML      0.043033
     13 H1B        -0.3890   -1.0600   -0.0170 hc        1 MML      0.043033
     14 H3          1.6410    0.0250    2.1510 ha        1 MML      0.130000
     15 H4          4.1230    0.0200    2.1370 ha        1 MML      0.130500
     16 H6          6.1320    0.0080    1.0460 hc        1 MML      0.049700
     17 H7          7.4330   -1.2500   -0.6470 hc        1 MML      0.035700
     18 H7A         5.9390   -2.1610   -0.1690 hc        1 MML      0.035700
     19 H7B         6.0030   -1.2960   -1.7600 hc        1 MML      0.035700
     20 H8          6.0060    1.2780   -1.7750 hc        1 MML      0.035700
     21 H8A         7.4370    1.2410   -0.6620 hc        1 MML      0.035700
     22 H8B         5.9460    2.1630   -0.1950 hc        1 MML      0.035700
     23 H9          4.1000   -0.0080   -2.1860 ha        1 MML      0.130500
     24 H10         1.6140   -0.0030   -2.1700 ha        1 MML      0.130000
@<TRIPOS>BOND
     1    1    2 1   
     2    1   11 1   
     3    1   12 1   
     4    1   13 1   
     5    2    3 ar  
     6    2   10 ar  
     7    3    4 ar  
     8    3   14 1   
     9    4    5 ar  
    10    4   15 1   
    11    5    6 1   
    12    5    9 ar  
    13    6    7 1   
    14    6    8 1   
    15    6   16 1   
    16    7   17 1   
    17    7   18 1   
    18    7   19 1   
    19    8   20 1   
    20    8   21 1   
    21    8   22 1   
    22    9   10 ar  
    23    9   23 1   
    24   10   24 1   
@<TRIPOS>SUBSTRUCTURE
     1 MML         1 TEMP              0 ****  ****    0 ROOT
