@<TRIPOS>MOLECULE
MMM
   37    37     1     0     0
SMALL
bcc


@<TRIPOS>ATOM
      1 N1         -0.3120   -0.0070    0.1030 nb        1 MMM     -0.673000
      2 C2          1.0460   -0.0520    0.0200 ca        1 MMM      0.290600
      3 C2A         1.7090   -0.1230   -1.3150 c3        1 MMM     -0.104400
      4 C3          1.8690   -0.0280    1.1720 ca        1 MMM      0.028800
      5 O3          3.2210   -0.0580    0.9210 oh        1 MMM     -0.542100
      6 C4          1.2810    0.0430    2.4600 ca        1 MMM     -0.214900
      7 C4A         2.0790    0.1370    3.6960 ce        1 MMM      0.481800
      8 C5         -0.1200    0.0570    2.5320 ca        1 MMM     -0.130600
      9 C6         -0.8640    0.0470    1.3150 ca        1 MMM      0.358200
     10 C5A        -0.9140    0.1030    3.8200 c3        1 MMM      0.242700
     11 OP4        -2.0990   -0.5800    3.7380 os        1 MMM     -0.563200
     12 P          -3.5500    0.3730    3.7130 p5        1 MMM      1.315900
     13 OP1        -4.5710   -0.5500    4.3150 o         1 MMM     -0.925500
     14 OP2        -3.1640    1.5700    4.5410 o         1 MMM     -0.925500
     15 OP3        -3.6750    0.6300    2.2300 o         1 MMM     -0.925500
     16 NA          3.2620   -0.3570    3.8270 n2        1 MMM     -0.615900
     17 CAA         4.0170   -0.2580    5.0610 c3        1 MMM     -0.017800
     18 CBA         4.3030   -1.6720    5.6360 c3        1 MMM      0.182400
     19 OGA         4.9110   -2.5810    4.7480 oh        1 MMM     -0.646800
     20 CAB         3.3550    0.5300    6.1990 c3        1 MMM     -0.100100
     21 CA          5.4100    0.4420    4.7810 c         1 MMM      0.931600
     22 OXT         6.3990   -0.2950    4.4950 o         1 MMM     -0.844300
     23 OA          5.4830    1.6940    4.8970 o         1 MMM     -0.844300
     24 H2A1        0.9740   -0.1890   -2.1520 hc        1 MMM      0.018700
     25 H2A2        2.3780   -1.0190   -1.3490 hc        1 MMM      0.018700
     26 H2A3        2.3440    0.7850   -1.4620 hc        1 MMM      0.018700
     27 H6         -1.9980    0.1140    1.4120 h4        1 MMM      0.148100
     28 H5A1       -1.0970    1.1920    4.0770 h1        1 MMM      0.021200
     29 H5A2       -0.2810   -0.3650    4.6330 h1        1 MMM      0.021200
     30 H4A         1.5380    0.6820    4.5030 h4        1 MMM     -0.013200
     31 HAB1        2.3830    0.0720    6.5020 hc        1 MMM      0.030033
     32 HAB2        3.1890    1.5870    5.8800 hc        1 MMM      0.030033
     33 HAB3        4.0390    0.5420    7.0810 hc        1 MMM      0.030033
     34 HBA1        3.3470   -2.1670    5.9570 h1        1 MMM      0.009200
     35 HBA2        4.9740   -1.5400    6.5300 h1        1 MMM      0.009200
     36 HGA         5.5310   -2.0750    4.1980 ho        1 MMM      0.447000
     37 HO3         3.6980   -0.1030    1.7660 ho        1 MMM      0.454000
@<TRIPOS>BOND
     1    1    2 ar  
     2    1    9 ar  
     3    2    3 1   
     4    2    4 ar  
     5    3   24 1   
     6    3   25 1   
     7    3   26 1   
     8    4    5 1   
     9    4    6 ar  
    10    5   37 1   
    11    6    7 1   
    12    6    8 ar  
    13    7   16 2   
    14    7   30 1   
    15    8    9 ar  
    16    8   10 1   
    17    9   27 1   
    18   10   11 1   
    19   10   28 1   
    20   10   29 1   
    21   11   12 1   
    22   12   13 1   
    23   12   14 1   
    24   12   15 1   
    25   16   17 1   
    26   17   18 1   
    27   17   20 1   
    28   17   21 1   
    29   18   19 1   
    30   18   34 1   
    31   18   35 1   
    32   19   36 1   
    33   20   31 1   
    34   20   32 1   
    35   20   33 1   
    36   21   22 1   
    37   21   23 1   
@<TRIPOS>SUBSTRUCTURE
     1 MMM         1 TEMP              0 ****  ****    0 ROOT
