@<TRIPOS>MOLECULE
MMM
   37    37     1     0     0
SMALL
bcc


@<TRIPOS>ATOM
      1 N1         -0.3040   -0.0010    0.0980 nb        1 MMM     -0.673000
      2 C2          1.0540   -0.0460    0.0180 ca        1 MMM      0.290600
      3 C2A         1.7200   -0.1150   -1.3150 c3        1 MMM     -0.104400
      4 C3          1.8740   -0.0240    1.1730 ca        1 MMM      0.028800
      5 O3          3.2280   -0.0540    0.9260 oh        1 MMM     -0.542100
      6 C4          1.2830    0.0440    2.4590 ca        1 MMM     -0.214900
      7 C4A         2.0790    0.1360    3.6970 ce        1 MMM      0.481800
      8 C5         -0.1180    0.0590    2.5280 ca        1 MMM     -0.130600
      9 C6         -0.8580    0.0510    1.3090 ca        1 MMM      0.358200
     10 C5A        -0.9150    0.1030    3.8140 c3        1 MMM      0.242700
     11 OP4        -2.1000   -0.5800    3.7280 os        1 MMM     -0.563200
     12 P          -3.5510    0.3740    3.7010 p5        1 MMM      1.315900
     13 OP1        -4.5740   -0.5500    4.2980 o         1 MMM     -0.925500
     14 OP2        -3.1660    1.5700    4.5320 o         1 MMM     -0.925500
     15 OP3        -3.6720    0.6340    2.2180 o         1 MMM     -0.925500
     16 NA          3.2610   -0.3590    3.8310 n2        1 MMM     -0.615900
     17 CAA         4.0130   -0.2620    5.0670 c3        1 MMM     -0.017800
     18 CBA         4.2960   -1.6780    5.6400 c3        1 MMM      0.182400
     19 OGA         4.9060   -2.5850    4.7520 oh        1 MMM     -0.646800
     20 CAB         3.3470    0.5240    6.2050 c3        1 MMM     -0.100100
     21 CA          5.4070    0.4380    4.7920 c         1 MMM      0.931600
     22 OXT         6.3960   -0.2990    4.5050 o         1 MMM     -0.844300
     23 OA          5.4800    1.6890    4.9120 o         1 MMM     -0.844300
     24 H2A1        2.3900   -1.0100   -1.3480 hc        1 MMM      0.018700
     25 H2A2        2.3560    0.7940   -1.4590 hc        1 MMM      0.018700
     26 H2A3        0.9880   -0.1800   -2.1540 hc        1 MMM      0.018700
     27 H6         -1.9930    0.1180    1.4030 h4        1 MMM      0.148100
     28 H5A1       -0.2850   -0.3660    4.6280 h1        1 MMM      0.021200
     29 H5A2       -1.0980    1.1920    4.0730 h1        1 MMM      0.021200
     30 H4A         1.5350    0.6800    4.5050 h4        1 MMM     -0.013200
     31 HAB1        3.1820    1.5820    5.8870 hc        1 MMM      0.030033
     32 HAB2        4.0290    0.5340    7.0880 hc        1 MMM      0.030033
     33 HAB3        2.3750    0.0660    6.5040 hc        1 MMM      0.030033
     34 HBA1        4.9650   -1.5470    6.5360 h1        1 MMM      0.009200
     35 HBA2        3.3390   -2.1730    5.9580 h1        1 MMM      0.009200
     36 HGA         5.5270   -2.0780    4.2040 ho        1 MMM      0.447000
     37 HO3         3.7020   -0.1010    1.7710 ho        1 MMM      0.454000
@<TRIPOS>BOND
     1    1    2 ar  
     2    1    9 ar  
     3    2    3 1   
     4    2    4 ar  
     5    3   24 1   
     6    3   25 1   
     7    3   26 1   
     8    4    5 1   
     9    4    6 ar  
    10    5   37 1   
    11    6    7 1   
    12    6    8 ar  
    13    7   16 2   
    14    7   30 1   
    15    8    9 ar  
    16    8   10 1   
    17    9   27 1   
    18   10   11 1   
    19   10   28 1   
    20   10   29 1   
    21   11   12 1   
    22   12   13 1   
    23   12   14 1   
    24   12   15 1   
    25   16   17 1   
    26   17   18 1   
    27   17   20 1   
    28   17   21 1   
    29   18   19 1   
    30   18   34 1   
    31   18   35 1   
    32   19   36 1   
    33   20   31 1   
    34   20   32 1   
    35   20   33 1   
    36   21   22 1   
    37   21   23 1   
@<TRIPOS>SUBSTRUCTURE
     1 MMM         1 TEMP              0 ****  ****    0 ROOT
