@<TRIPOS>MOLECULE
MMM
   37    37     1     0     0
SMALL
bcc


@<TRIPOS>ATOM
      1 N1          1.4500   -3.2050   -0.2120 nb        1 MMM     -0.673000
      2 C2          0.0960   -3.3410   -0.1980 ca        1 MMM      0.290600
      3 C2A        -0.5190   -4.6920   -0.3450 c3        1 MMM     -0.104400
      4 C3         -0.7670   -2.2290   -0.0400 ca        1 MMM      0.028800
      5 O3         -2.1090   -2.5330   -0.0240 oh        1 MMM     -0.542100
      6 C4         -0.2250   -0.9280    0.1070 ca        1 MMM     -0.214900
      7 C4A        -1.0640    0.2620    0.3400 ce        1 MMM      0.481800
      8 C5          1.1710   -0.7990    0.0590 ca        1 MMM     -0.130600
      9 C6          1.9580   -1.9790   -0.0860 ca        1 MMM      0.358200
     10 C5A         1.9170    0.5130    0.1710 c3        1 MMM      0.242700
     11 OP4         3.0670    0.5350   -0.5730 os        1 MMM     -0.563200
     12 P           4.5660    0.4950    0.3030 p5        1 MMM      1.315900
     13 OP1         5.5140    1.2100   -0.6170 o         1 MMM     -0.925500
     14 OP2         4.2110    1.2090    1.5810 o         1 MMM     -0.925500
     15 OP3         4.7600   -0.9970    0.4320 o         1 MMM     -0.925500
     16 NA         -2.2750    0.3830   -0.0840 n2        1 MMM     -0.615900
     17 CAA        -3.0700    1.5730    0.1520 c3        1 MMM     -0.017800
     18 CBA        -3.4500    2.2450   -1.1950 c3        1 MMM      0.182400
     19 OGA        -4.0710    1.4070   -2.1420 oh        1 MMM     -0.646800
     20 CAB        -2.4100    2.6720    0.9960 c3        1 MMM     -0.100100
     21 CA         -4.4120    1.1800    0.8950 c         1 MMM      0.931600
     22 OXT        -4.4250    1.1960    2.1540 o         1 MMM     -0.844300
     23 OA         -5.4270    0.9110    0.1870 o         1 MMM     -0.844300
     24 H2A1       -1.1000   -4.9380    0.5790 hc        1 MMM      0.018700
     25 H2A2       -1.2320   -4.6830   -1.2070 hc        1 MMM      0.018700
     26 H2A3        0.2420   -5.4910   -0.5140 hc        1 MMM      0.018700
     27 H6          3.0900   -1.8410   -0.0670 h4        1 MMM      0.148100
     28 H5A1        1.2310    1.3340   -0.1980 h1        1 MMM      0.021200
     29 H5A2        2.1460    0.6910    1.2670 h1        1 MMM      0.021200
     30 H4A        -0.5260    1.0460    0.9220 h4        1 MMM     -0.013200
     31 HAB1       -1.4760    3.0500    0.5170 hc        1 MMM      0.030033
     32 HAB2       -3.1250    3.5210    1.1130 hc        1 MMM      0.030033
     33 HAB3       -2.1770    2.2770    2.0140 hc        1 MMM      0.030033
     34 HBA1       -4.1460    3.0970   -0.9580 h1        1 MMM      0.009200
     35 HBA2       -2.5340    2.6440   -1.7090 h1        1 MMM      0.009200
     36 HGA        -4.6420    0.7930   -1.6520 ho        1 MMM      0.447000
     37 HO3        -2.6190   -1.7080    0.0230 ho        1 MMM      0.454000
@<TRIPOS>BOND
     1    1    2 ar  
     2    1    9 ar  
     3    2    3 1   
     4    2    4 ar  
     5    3   24 1   
     6    3   25 1   
     7    3   26 1   
     8    4    5 1   
     9    4    6 ar  
    10    5   37 1   
    11    6    7 1   
    12    6    8 ar  
    13    7   16 2   
    14    7   30 1   
    15    8    9 ar  
    16    8   10 1   
    17    9   27 1   
    18   10   11 1   
    19   10   28 1   
    20   10   29 1   
    21   11   12 1   
    22   12   13 1   
    23   12   14 1   
    24   12   15 1   
    25   16   17 1   
    26   17   18 1   
    27   17   20 1   
    28   17   21 1   
    29   18   19 1   
    30   18   34 1   
    31   18   35 1   
    32   19   36 1   
    33   20   31 1   
    34   20   32 1   
    35   20   33 1   
    36   21   22 1   
    37   21   23 1   
@<TRIPOS>SUBSTRUCTURE
     1 MMM         1 TEMP              0 ****  ****    0 ROOT
