@<TRIPOS>MOLECULE
MMM
   37    37     1     0     0
SMALL
bcc


@<TRIPOS>ATOM
      1 N1         -0.3120    0.0050    0.1030 nb        1 MMM     -0.673000
      2 C2          1.0460   -0.0410    0.0200 ca        1 MMM      0.290600
      3 C2A         1.7090   -0.1090   -1.3150 c3        1 MMM     -0.104400
      4 C3          1.8690   -0.0210    1.1730 ca        1 MMM      0.028800
      5 O3          3.2220   -0.0520    0.9220 oh        1 MMM     -0.542100
      6 C4          1.2810    0.0460    2.4610 ca        1 MMM     -0.214900
      7 C4A         2.0800    0.1350    3.6970 ce        1 MMM      0.481800
      8 C5         -0.1200    0.0620    2.5330 ca        1 MMM     -0.130600
      9 C6         -0.8630    0.0560    1.3160 ca        1 MMM      0.358200
     10 C5A        -0.9140    0.1050    3.8200 c3        1 MMM      0.242700
     11 OP4        -2.0990   -0.5770    3.7360 os        1 MMM     -0.563200
     12 P          -3.5500    0.3790    3.7150 p5        1 MMM      1.315900
     13 OP1        -4.5720   -0.5460    4.3130 o         1 MMM     -0.925500
     14 OP2        -3.1620    1.5720    4.5460 o         1 MMM     -0.925500
     15 OP3        -3.6740    0.6400    2.2320 o         1 MMM     -0.925500
     16 NA          3.2620   -0.3610    3.8260 n2        1 MMM     -0.615900
     17 CAA         4.0170   -0.2670    5.0610 c3        1 MMM     -0.017800
     18 CBA         4.3020   -1.6830    5.6300 c3        1 MMM      0.182400
     19 OGA         4.9090   -2.5900    4.7390 oh        1 MMM     -0.646800
     20 CAB         3.3550    0.5180    6.2020 c3        1 MMM     -0.100100
     21 CA          5.4100    0.4330    4.7830 c         1 MMM      0.931600
     22 OXT         6.3990   -0.3030    4.4930 o         1 MMM     -0.844300
     23 OA          5.4850    1.6840    4.9050 o         1 MMM     -0.844300
     24 H2A1        0.9740   -0.1720   -2.1530 hc        1 MMM      0.018700
     25 H2A2        2.3450    0.7990   -1.4600 hc        1 MMM      0.018700
     26 H2A3        2.3780   -1.0050   -1.3510 hc        1 MMM      0.018700
     27 H6         -1.9980    0.1240    1.4130 h4        1 MMM      0.148100
     28 H5A1       -1.0950    1.1930    4.0810 h1        1 MMM      0.021200
     29 H5A2       -0.2820   -0.3660    4.6330 h1        1 MMM      0.021200
     30 H4A         1.5390    0.6780    4.5060 h4        1 MMM     -0.013200
     31 HAB1        3.1900    1.5760    5.8860 hc        1 MMM      0.030033
     32 HAB2        2.3830    0.0590    6.5030 hc        1 MMM      0.030033
     33 HAB3        4.0390    0.5250    7.0840 hc        1 MMM      0.030033
     34 HBA1        4.9730   -1.5550    6.5250 h1        1 MMM      0.009200
     35 HBA2        3.3450   -2.1790    5.9500 h1        1 MMM      0.009200
     36 HGA         5.5290   -2.0810    4.1910 ho        1 MMM      0.447000
     37 HO3         3.6980   -0.1010    1.7660 ho        1 MMM      0.454000
@<TRIPOS>BOND
     1    1    2 ar  
     2    1    9 ar  
     3    2    3 1   
     4    2    4 ar  
     5    3   24 1   
     6    3   25 1   
     7    3   26 1   
     8    4    5 1   
     9    4    6 ar  
    10    5   37 1   
    11    6    7 1   
    12    6    8 ar  
    13    7   16 2   
    14    7   30 1   
    15    8    9 ar  
    16    8   10 1   
    17    9   27 1   
    18   10   11 1   
    19   10   28 1   
    20   10   29 1   
    21   11   12 1   
    22   12   13 1   
    23   12   14 1   
    24   12   15 1   
    25   16   17 1   
    26   17   18 1   
    27   17   20 1   
    28   17   21 1   
    29   18   19 1   
    30   18   34 1   
    31   18   35 1   
    32   19   36 1   
    33   20   31 1   
    34   20   32 1   
    35   20   33 1   
    36   21   22 1   
    37   21   23 1   
@<TRIPOS>SUBSTRUCTURE
     1 MMM         1 TEMP              0 ****  ****    0 ROOT
