@<TRIPOS>MOLECULE
MMN
   34    33     1     0     0
SMALL
bcc


@<TRIPOS>ATOM
      1 C8          2.1590   -2.5470    1.2680 c3        1 MMN     -0.131100
      2 C7          1.8460   -1.6270    0.0830 c3        1 MMN      0.391300
      3 O7          2.8520   -1.7630   -0.9170 oh        1 MMN     -0.608800
      4 N1          1.7080   -0.2400    0.4970 n3        1 MMN     -0.889200
      5 C2          1.3170    0.7160   -0.5110 c3        1 MMN      0.179500
      6 C1          2.1210    2.0310   -0.3540 c3        1 MMN      0.134400
      7 O1          1.7640    2.6230    0.8830 oh        1 MMN     -0.598800
      8 C3         -0.1860    1.1050   -0.5130 c3        1 MMN      0.079100
      9 O3         -0.4350    2.0840   -1.5080 oh        1 MMN     -0.593800
     10 C4         -1.1390   -0.0840   -0.7490 c3        1 MMN      0.072100
     11 O4         -2.0670    0.2430   -1.7710 oh        1 MMN     -0.608800
     12 C5         -1.8920   -0.4790    0.5340 c3        1 MMN      0.069100
     13 O5         -0.9890   -0.9560    1.5150 oh        1 MMN     -0.589800
     14 C6         -2.9730   -1.5300    0.2500 c3        1 MMN      0.110400
     15 O6         -4.1090   -0.9560   -0.3520 oh        1 MMN     -0.595800
     16 H81         3.0870   -2.2190    1.7940 hc        1 MMN      0.051033
     17 H82         1.3130   -2.5500    1.9960 hc        1 MMN      0.051033
     18 H83         2.3140   -3.5820    0.8800 hc        1 MMN      0.051033
     19 H7          0.9230   -2.0220   -0.4530 h2        1 MMN      0.033700
     20 HO7         3.6910   -1.4590   -0.5500 ho        1 MMN      0.411000
     21 HN1         1.1940   -0.1390    1.3490 hn        1 MMN      0.414800
     22 H2          1.5800    0.2980   -1.5290 h1        1 MMN      0.067700
     23 H11         3.2230    1.8190   -0.3770 h1        1 MMN      0.033200
     24 H12         1.8500    2.7170   -1.2010 h1        1 MMN      0.033200
     25 HO1         2.2610    3.4470    0.9450 ho        1 MMN      0.401000
     26 H3         -0.4310    1.6280    0.4560 h1        1 MMN      0.110700
     27 HO3        -0.2520    1.6790   -2.3670 ho        1 MMN      0.407000
     28 H4         -0.5850   -0.9710   -1.1650 h1        1 MMN      0.075700
     29 HO4        -2.4500    1.1060   -1.5540 ho        1 MMN      0.424000
     30 H5         -2.3630    0.4320    0.9990 h1        1 MMN      0.097700
     31 HO5        -0.6720   -1.8200    1.2190 ho        1 MMN      0.397000
     32 H61        -2.5510   -2.3530   -0.3860 h1        1 MMN      0.050700
     33 H62        -3.3420   -1.9550    1.2230 h1        1 MMN      0.050700
     34 HO6        -3.8800   -0.7480   -1.2680 ho        1 MMN      0.418000
@<TRIPOS>BOND
     1    1    2 1   
     2    1   16 1   
     3    1   17 1   
     4    1   18 1   
     5    2    3 1   
     6    2    4 1   
     7    2   19 1   
     8    3   20 1   
     9    4    5 1   
    10    4   21 1   
    11    5    6 1   
    12    5    8 1   
    13    5   22 1   
    14    6    7 1   
    15    6   23 1   
    16    6   24 1   
    17    7   25 1   
    18    8    9 1   
    19    8   10 1   
    20    8   26 1   
    21    9   27 1   
    22   10   11 1   
    23   10   12 1   
    24   10   28 1   
    25   11   29 1   
    26   12   13 1   
    27   12   14 1   
    28   12   30 1   
    29   13   31 1   
    30   14   15 1   
    31   14   32 1   
    32   14   33 1   
    33   15   34 1   
@<TRIPOS>SUBSTRUCTURE
     1 MMN         1 TEMP              0 ****  ****    0 ROOT
