@<TRIPOS>MOLECULE
MMN
   34    33     1     0     0
SMALL
bcc


@<TRIPOS>ATOM
      1 C8         -3.4400   -0.7050    2.0290 c3        1 MMN     -0.082100
      2 C7         -1.9370   -0.6900    2.0990 c3        1 MMN      0.381300
      3 O7         -1.5420   -0.6930    3.4180 oh        1 MMN     -0.639800
      4 N1         -1.4310    0.5040    1.4440 n3        1 MMN     -0.855200
      5 C2         -0.0820    0.2870    1.0410 c3        1 MMN      0.161500
      6 C1          0.8780    1.0490    2.0010 c3        1 MMN      0.073400
      7 O1          1.2140    0.2370    3.0500 oh        1 MMN     -0.615800
      8 C3          0.1080    0.7840   -0.3410 c3        1 MMN      0.146100
      9 O3          0.7100    2.0670   -0.3020 oh        1 MMN     -0.590800
     10 C4          1.0200   -0.1900   -1.1160 c3        1 MMN      0.110100
     11 O4          2.3300    0.0180   -0.7530 oh        1 MMN     -0.611800
     12 C5          0.8640    0.0510   -2.5900 c3        1 MMN      0.113100
     13 O5         -0.4070   -0.3320   -2.9870 oh        1 MMN     -0.599800
     14 C6          1.8920   -0.7600   -3.3480 c3        1 MMN      0.088400
     15 O6          1.7250   -0.5490   -4.7470 oh        1 MMN     -0.605800
     16 H81        -3.7710   -1.5830    2.3100 hc        1 MMN      0.046700
     17 H82        -3.7980   -0.0220    2.6170 hc        1 MMN      0.046700
     18 H83        -3.7210   -0.5310    1.1250 hc        1 MMN      0.046700
     19 H7         -1.5880   -1.4690    1.6590 h2        1 MMN      0.052700
     20 HO7        -1.8080   -1.4520    3.8070 ho        1 MMN      0.409000
     21 HN1        -1.4650    1.1920    2.0130 hn        1 MMN      0.384800
     22 H2          0.1190   -0.6810    1.0730 h1        1 MMN      0.075700
     23 H11         1.6870    1.3060    1.5160 h1        1 MMN      0.042700
     24 H12         0.4430    1.8330    2.3310 h1        1 MMN      0.042700
     25 HO1         1.8230    0.6410    3.5530 ho        1 MMN      0.405000
     26 H3         -0.7830    0.8470   -0.8010 h1        1 MMN      0.116700
     27 HO3         0.2000    2.6580   -0.7800 ho        1 MMN      0.411000
     28 H4          0.7640   -1.1180   -0.9060 h1        1 MMN      0.061700
     29 HO4         2.7000   -0.7460   -0.5520 ho        1 MMN      0.409000
     30 H5          0.9940    1.0120   -2.7830 h1        1 MMN      0.072700
     31 HO5        -0.6810    0.1950   -3.6750 ho        1 MMN      0.427000
     32 H61         2.8160   -0.4730   -3.0720 h1        1 MMN      0.032700
     33 H62         1.7670   -1.7370   -3.1390 h1        1 MMN      0.032700
     34 HO6         2.4000   -0.9480   -5.1940 ho        1 MMN      0.411000
@<TRIPOS>BOND
     1    1    2 1   
     2    1   16 1   
     3    1   17 1   
     4    1   18 1   
     5    2    3 1   
     6    2    4 1   
     7    2   19 1   
     8    3   20 1   
     9    4    5 1   
    10    4   21 1   
    11    5    6 1   
    12    5    8 1   
    13    5   22 1   
    14    6    7 1   
    15    6   23 1   
    16    6   24 1   
    17    7   25 1   
    18    8    9 1   
    19    8   10 1   
    20    8   26 1   
    21    9   27 1   
    22   10   11 1   
    23   10   12 1   
    24   10   28 1   
    25   11   29 1   
    26   12   13 1   
    27   12   14 1   
    28   12   30 1   
    29   13   31 1   
    30   14   15 1   
    31   14   32 1   
    32   14   33 1   
    33   15   34 1   
@<TRIPOS>SUBSTRUCTURE
     1 MMN         1 TEMP              0 ****  ****    0 ROOT
