@<TRIPOS>MOLECULE
MMO
   28    27     1     0     0
SMALL
bcc


@<TRIPOS>ATOM
      1 N           2.1840   -1.5720    0.4070 n3        1 MMO     -0.807200
      2 CA          1.9940   -0.2660   -0.2250 c3        1 MMO      0.026500
      3 C           3.1200    0.7800    0.0840 c         1 MMO      0.891600
      4 O           3.9030    0.5540    1.0480 o         1 MMO     -0.840800
      5 CB          0.6650    0.3790    0.1800 c3        1 MMO     -0.057400
      6 CG         -0.5310   -0.3960   -0.3290 c3        1 MMO     -0.084400
      7 CD         -1.8140    0.3750   -0.0150 c3        1 MMO      0.166800
      8 NE         -3.0100   -0.2680   -0.5280 nh        1 MMO     -0.802200
      9 CZ         -4.2620    0.0760    0.0760 c2        1 MMO      0.753100
     10 NH2        -4.4450    1.4450    0.4710 nh        1 MMO     -0.931800
     11 NH1        -5.1760   -0.8590    0.2240 n2        1 MMO     -0.896100
     12 CN          3.2580   -2.3240   -0.1970 c3        1 MMO      0.153100
     13 H2          2.4210   -1.4010    1.3730 hn        1 MMO      0.355800
     14 HA          1.9820   -0.4170   -1.3430 h1        1 MMO      0.041700
     15 HCB1        0.6090    0.4740    1.2950 hc        1 MMO      0.046700
     16 HCB2        0.6630    1.4150   -0.2520 hc        1 MMO      0.046700
     17 HCG1       -0.4360   -0.5500   -1.4350 hc        1 MMO      0.047700
     18 HCG2       -0.5630   -1.4090    0.1510 hc        1 MMO      0.047700
     19 HCD1       -1.8680    0.5300    1.1020 h1        1 MMO      0.037700
     20 HCD2       -1.7440    1.3920   -0.4980 h1        1 MMO      0.037700
     21 HH21       -3.7180    2.0680    0.1920 hn        1 MMO      0.385800
     22 HH22       -5.3460    1.7990    0.2360 hn        1 MMO      0.385800
     23 HH11       -6.0620   -0.5360    0.5430 hn        1 MMO      0.376400
     24 HC1         3.3930   -3.2800    0.3740 h1        1 MMO      0.017033
     25 HC2         2.9820   -2.5770   -1.2550 h1        1 MMO      0.017033
     26 HC3         4.2390   -1.7730   -0.2110 h1        1 MMO      0.017033
     27 OXT         3.1710    1.7980   -0.6610 o         1 MMO     -0.840800
     28 HE         -2.8970   -1.2600   -0.6270 hn        1 MMO      0.411800
@<TRIPOS>BOND
     1    1    2 1   
     2    1   12 1   
     3    1   13 1   
     4    2    3 1   
     5    2    5 1   
     6    2   14 1   
     7    3    4 1   
     8    3   27 1   
     9    5    6 1   
    10    5   15 1   
    11    5   16 1   
    12    6    7 1   
    13    6   17 1   
    14    6   18 1   
    15    7    8 1   
    16    7   19 1   
    17    7   20 1   
    18    8    9 1   
    19    8   28 1   
    20    9   10 1   
    21    9   11 2   
    22   10   21 1   
    23   10   22 1   
    24   11   23 1   
    25   12   24 1   
    26   12   25 1   
    27   12   26 1   
@<TRIPOS>SUBSTRUCTURE
     1 MMO         1 TEMP              0 ****  ****    0 ROOT
