@<TRIPOS>MOLECULE
MMP
   81    85     1     0     0
SMALL
bcc


@<TRIPOS>ATOM
      1 C1         -0.4580    0.4370    0.2270 c3        1 MMP      0.200100
      2 N1          0.9740    0.4670    0.2100 na        1 MMP     -0.375200
      3 C11         1.7830    0.2160    1.3220 cc        1 MMP      0.066000
      4 C12         3.0820    0.7230    1.0560 cc        1 MMP     -0.148200
      5 C13         3.0610    1.2790   -0.2590 cd        1 MMP     -0.134200
      6 C14         1.7490    1.0980   -0.7740 cd        1 MMP      0.024000
      7 C15         1.3290    1.3800   -2.1210 ce        1 MMP     -0.129600
      8 C16         4.2380    0.6370    1.9490 c3        1 MMP     -0.014900
      9 C17         4.1950    1.8990   -0.9610 c3        1 MMP      0.000800
     10 C18         5.2080    0.8800   -1.4310 c3        1 MMP     -0.089100
     11 N2          0.0570   -0.7070   -2.4910 nd        1 MMP     -0.620300
     12 C21         0.5760    0.5580   -2.8910 cc        1 MMP      0.408900
     13 C22         0.1920    0.7940   -4.3200 cc        1 MMP     -0.203800
     14 C23        -0.5060   -0.3120   -4.7290 cd        1 MMP     -0.126200
     15 C24        -0.5740   -1.2380   -3.5410 cd        1 MMP      0.207600
     16 C25        -1.2470   -2.4970   -3.5740 ce        1 MMP     -0.259200
     17 C26         0.5520    2.0050   -5.0560 c3        1 MMP     -0.032900
     18 C27        -1.1160   -0.5990   -6.0350 c3        1 MMP     -0.019200
     19 C28        -0.3010   -1.5800   -6.8460 c3        1 MMP     -0.089100
     20 N3         -0.9500   -3.1700   -1.2030 na        1 MMP     -0.259100
     21 C31        -1.3980   -3.3470   -2.5120 cc        1 MMP      0.110900
     22 C32        -2.1380   -4.6440   -2.5460 cd        1 MMP     -0.121300
     23 C33        -2.0960   -5.2010   -1.2920 cd        1 MMP     -0.039300
     24 C34        -1.3390   -4.2630   -0.3970 cc        1 MMP      0.048900
     25 C35        -1.1250   -4.4010    0.9390 ce        1 MMP     -0.161200
     26 C36        -2.7860   -5.1600   -3.7520 c3        1 MMP     -0.066800
     27 C37        -2.7070   -6.4710   -0.8650 c3        1 MMP     -0.034100
     28 C38        -2.1430   -7.6800   -1.5910 c3        1 MMP     -0.192400
     29 C39        -3.2090   -8.4800   -2.3620 c         1 MMP      0.905600
     30 O31        -2.9610   -9.6950   -2.6050 o         1 MMP     -0.851300
     31 O32        -4.2650   -7.8940   -2.7470 o         1 MMP     -0.851300
     32 N4          0.1590   -2.3410    1.3610 nd        1 MMP     -0.635300
     33 C41        -0.4570   -3.4450    1.7870 cd        1 MMP      0.194600
     34 C42        -0.3950   -3.5560    3.2920 cd        1 MMP     -0.090200
     35 C43         0.2890   -2.4490    3.7270 cc        1 MMP     -0.198800
     36 C44         0.6660   -1.6590    2.5120 cc        1 MMP      0.438900
     37 C45         1.3840   -0.5140    2.5020 cf        1 MMP     -0.167600
     38 C46         0.6150   -2.0510    5.0950 c3        1 MMP     -0.068900
     39 C47        -0.9900   -4.6160    4.1200 c3        1 MMP     -0.027200
     40 C48         0.0210   -5.3430    4.9890 c3        1 MMP     -0.191400
     41 C49        -0.3130   -5.2830    6.4900 c         1 MMP      0.904600
     42 O41         0.0680   -6.2470    7.2140 o         1 MMP     -0.854300
     43 O42        -0.9210   -4.2690    6.9490 o         1 MMP     -0.854300
     44 H11        -0.8200    0.6100    1.2760 h1        1 MMP      0.060700
     45 H12        -0.8560    1.2380   -0.4500 h1        1 MMP      0.060700
     46 H13        -0.8480   -0.5560   -0.1230 h1        1 MMP      0.060700
     47 H15         1.7240    2.3130   -2.5590 ha        1 MMP      0.123000
     48 H161        3.9160    0.6210    3.0210 hc        1 MMP      0.031033
     49 H162        4.8180   -0.3010    1.7490 hc        1 MMP      0.031033
     50 H163        4.9220    1.5080    1.7930 hc        1 MMP      0.031033
     51 H171        4.7000    2.6270   -0.2670 hc        1 MMP      0.028700
     52 H172        3.8240    2.4860   -1.8450 hc        1 MMP      0.028700
     53 H181        6.0660    1.3900   -1.9310 hc        1 MMP      0.032033
     54 H182        4.7430    0.1680   -2.1530 hc        1 MMP      0.032033
     55 H183        5.5950    0.2940   -0.5610 hc        1 MMP      0.032033
     56 H25        -1.6860   -2.7990   -4.5370 ha        1 MMP      0.142000
     57 H261        0.1980    2.9150   -4.5070 hc        1 MMP      0.036700
     58 H262        1.6640    2.0770   -5.1640 hc        1 MMP      0.036700
     59 H263        0.0980    2.0100   -6.0780 hc        1 MMP      0.036700
     60 H271       -1.2360    0.3540   -6.6180 hc        1 MMP      0.041700
     61 H272       -2.1470   -1.0210   -5.8730 hc        1 MMP      0.041700
     62 H281        0.7130   -1.1660   -7.0640 hc        1 MMP      0.035367
     63 H282       -0.8140   -1.7960   -7.8140 hc        1 MMP      0.035367
     64 H283       -0.1750   -2.5390   -6.2860 hc        1 MMP      0.035367
     65 HN3        -0.2930   -2.4810   -0.9210 hn        1 MMP      0.344700
     66 H35        -1.4950   -5.3100    1.4420 ha        1 MMP      0.165000
     67 H361       -2.0220   -5.3840   -4.5380 hc        1 MMP      0.064033
     68 H362       -3.5010   -4.4050   -4.1640 hc        1 MMP      0.064033
     69 H363       -3.3510   -6.1100   -3.5180 hc        1 MMP      0.064033
     70 H371       -2.5880   -6.6030    0.2430 hc        1 MMP      0.066200
     71 H372       -3.8150   -6.4180   -1.0850 hc        1 MMP      0.066200
     72 H381       -1.6490   -8.3650   -0.8570 hc        1 MMP      0.034700
     73 H382       -1.3700   -7.3680   -2.3370 hc        1 MMP      0.034700
     74 H45         1.7650   -0.1140    3.4570 ha        1 MMP      0.137000
     75 H461        0.0890   -2.7220    5.8350 hc        1 MMP      0.060700
     76 H462        1.7180   -2.1280    5.2690 hc        1 MMP      0.060700
     77 H463        0.3070   -0.9910    5.2810 hc        1 MMP      0.060700
     78 H471       -1.5340   -5.3550    3.4740 hc        1 MMP      0.058700
     79 H472       -1.7550   -4.1370    4.8010 hc        1 MMP      0.058700
     80 H481        1.0390   -4.8930    4.8680 hc        1 MMP      0.032700
     81 H482        0.0860   -6.4160    4.6810 hc        1 MMP      0.032700
@<TRIPOS>BOND
     1    1    2 1   
     2    1   44 1   
     3    1   45 1   
     4    1   46 1   
     5    2    3 1   
     6    2    6 1   
     7    3    4 1   
     8    3   37 2   
     9    4    5 2   
    10    4    8 1   
    11    5    6 1   
    12    5    9 1   
    13    6    7 2   
    14    7   12 1   
    15    7   47 1   
    16    8   48 1   
    17    8   49 1   
    18    8   50 1   
    19    9   10 1   
    20    9   51 1   
    21    9   52 1   
    22   10   53 1   
    23   10   54 1   
    24   10   55 1   
    25   11   12 2   
    26   11   15 1   
    27   12   13 1   
    28   13   14 2   
    29   13   17 1   
    30   14   15 1   
    31   14   18 1   
    32   15   16 2   
    33   16   21 1   
    34   16   56 1   
    35   17   57 1   
    36   17   58 1   
    37   17   59 1   
    38   18   19 1   
    39   18   60 1   
    40   18   61 1   
    41   19   62 1   
    42   19   63 1   
    43   19   64 1   
    44   20   21 1   
    45   20   24 1   
    46   20   65 1   
    47   21   22 2   
    48   22   23 1   
    49   22   26 1   
    50   23   24 2   
    51   23   27 1   
    52   24   25 1   
    53   25   33 2   
    54   25   66 1   
    55   26   67 1   
    56   26   68 1   
    57   26   69 1   
    58   27   28 1   
    59   27   70 1   
    60   27   71 1   
    61   28   29 1   
    62   28   72 1   
    63   28   73 1   
    64   29   30 1   
    65   29   31 1   
    66   32   33 1   
    67   32   36 2   
    68   33   34 1   
    69   34   35 2   
    70   34   39 1   
    71   35   36 1   
    72   35   38 1   
    73   36   37 1   
    74   37   74 1   
    75   38   75 1   
    76   38   76 1   
    77   38   77 1   
    78   39   40 1   
    79   39   78 1   
    80   39   79 1   
    81   40   41 1   
    82   40   80 1   
    83   40   81 1   
    84   41   42 1   
    85   41   43 1   
@<TRIPOS>SUBSTRUCTURE
     1 MMP         1 TEMP              0 ****  ****    0 ROOT
