@<TRIPOS>MOLECULE
MMP
   81    72     1     0     0
SMALL
bcc


@<TRIPOS>ATOM
      1 C1         -1.0170   -3.3460   -0.4200 c3        1 MMP     -0.075000
      2 N1          0.4230   -3.3190   -0.4850 n3        1 MMP     -0.052000
      3 C11         1.2570   -3.2500    0.5900 c2        1 MMP     -0.037000
      4 C12         2.4870   -3.8320    0.2160 c1        1 MMP     -0.138000
      5 C13         2.4450   -4.0770   -1.1500 c1        1 MMP     -0.138000
      6 C14         1.1980   -3.6830   -1.6130 c2        1 MMP     -0.037000
      7 C15         0.8630   -3.3040   -3.1020 c1        1 MMP     -0.062500
      8 C16         3.6440   -4.1830    1.1600 c2        1 MMP     -0.164500
      9 C17         3.5680   -4.6940   -1.9910 c2        1 MMP     -0.088000
     10 C18         3.4050   -6.2090   -2.0240 c3        1 MMP     -0.204000
     11 N2         -0.0800   -0.9810   -2.0050 n2        1 MMP     -0.201000
     12 C21         0.3490   -1.8200   -3.1690 c1        1 MMP     -0.036500
     13 C22         0.4430   -0.9170   -4.3320 c1        1 MMP     -0.113000
     14 C23         0.1430    0.3710   -4.1450 c1        1 MMP     -0.122000
     15 C24        -0.2420    0.7680   -2.8500 c1        1 MMP      0.061000
     16 C25        -1.3630    1.8510   -2.5160 c1        1 MMP     -0.221500
     17 C26         1.2200   -1.3460   -5.5690 c3        1 MMP     -0.155000
     18 C27         0.5880    1.4060   -5.1560 c3        1 MMP     -0.102000
     19 C28        -0.4770    1.5680   -6.2120 c3        1 MMP     -0.208000
     20 N3         -1.4990    1.9170    0.1510 n2        1 MMP     -0.258000
     21 C31        -1.1100    2.4800   -1.0300 c2        1 MMP      0.116500
     22 C32        -0.6720    3.7970   -0.7550 c1        1 MMP     -0.073000
     23 C33        -0.8040    4.0150    0.6240 c1        1 MMP     -0.073000
     24 C34        -1.2730    2.8530    1.1920 c2        1 MMP      0.116500
     25 C35        -1.2250    2.5100    2.7300 c1        1 MMP     -0.221500
     26 C36        -0.2600    4.8390   -1.7880 c2        1 MMP     -0.164500
     27 C37        -0.5670    5.3550    1.3570 c2        1 MMP     -0.121000
     28 C38        -1.8550    6.1820    1.3380 c3        1 MMP     -0.221000
     29 C39        -1.6370    7.4800    2.1010 c2        1 MMP      0.325000
     30 O31        -1.8880    7.5350    3.3430 o         1 MMP     -0.586000
     31 O32        -1.2610    8.5130    1.4890 o         1 MMP     -0.586000
     32 N4          0.5830    0.6270    2.0250 n2        1 MMP     -0.201000
     33 C41        -0.4490    1.1980    2.9470 c1        1 MMP      0.061000
     34 C42        -0.8030    0.1280    3.9010 c1        1 MMP     -0.086000
     35 C43        -0.1810   -1.0560    3.7670 c1        1 MMP     -0.108000
     36 C44         0.7580   -1.1800    2.7340 c1        1 MMP     -0.036500
     37 C45         0.9930   -2.4530    1.8850 c1        1 MMP     -0.062500
     38 C46        -0.7610   -2.2960    4.4200 c3        1 MMP     -0.192000
     39 C47        -2.1060    0.2310    4.7380 c3        1 MMP     -0.111000
     40 C48        -1.7680    0.7170    6.1580 c3        1 MMP     -0.219000
     41 C49        -3.0550    0.8610    6.9690 c2        1 MMP      0.325000
     42 O41        -3.6490    1.9730    7.0180 o         1 MMP     -0.589000
     43 O42        -3.5280   -0.1370    7.5890 o         1 MMP     -0.589000
     44 H11        -1.3500   -2.4650   -0.1200 h1        1 MMP      0.100000
     45 H12        -1.3060   -4.0430    0.2200 h1        1 MMP      0.100000
     46 H13        -1.3820   -3.5490   -1.3140 h1        1 MMP      0.100000
     47 H15         0.1690   -3.9050   -3.4450 DU        1 MMP      0.172800
     48 H161        4.0200   -3.3610    1.5320 ha        1 MMP      0.086833
     49 H162        4.3400   -4.6660    0.6610 ha        1 MMP      0.086833
     50 H163        3.3090   -4.7530    1.8950 ha        1 MMP      0.086833
     51 H171        3.5250   -4.3430   -2.8970 ha        1 MMP      0.078000
     52 H172        4.4340   -4.4680   -1.5950 ha        1 MMP      0.078000
     53 H181        4.2310   -6.6350   -1.6930 hc        1 MMP      0.065000
     54 H182        3.2340   -6.4990   -2.9440 hc        1 MMP      0.065000
     55 H183        2.6550   -6.4680   -1.4570 hc        1 MMP      0.065000
     56 H25        -2.2450    1.4300   -2.5490 DU        1 MMP      0.172800
     57 H261        0.7140   -1.0970   -6.3770 hc        1 MMP      0.076000
     58 H262        1.3510   -2.3130   -5.5520 hc        1 MMP      0.076000
     59 H263        2.0960   -0.8960   -5.5790 hc        1 MMP      0.076000
     60 H271        0.7320    2.2600   -4.7050 hc        1 MMP      0.080500
     61 H272        1.4200    1.1150   -5.5740 hc        1 MMP      0.080500
     62 H281       -0.8570    2.4660   -6.1570 hc        1 MMP      0.074667
     63 H282       -0.0770    1.4350   -7.1070 hc        1 MMP      0.074667
     64 H283       -1.1880    0.9020   -6.0680 hc        1 MMP      0.074667
     65 HN3        -1.7340    1.0510    0.2670 DU        1 MMP      0.172800
     66 H35        -2.1310    2.4120    3.0690 DU        1 MMP      0.172800
     67 H361       -0.6140    5.7140   -1.5270 ha        1 MMP      0.086833
     68 H362       -0.6190    4.5890   -2.6680 ha        1 MMP      0.086833
     69 H363        0.7180    4.8840   -1.8350 ha        1 MMP      0.086833
     70 H371       -0.3090    5.1800    2.2740 ha        1 MMP      0.105500
     71 H372        0.1450    5.8500    0.9060 ha        1 MMP      0.105500
     72 H381       -2.0980    6.3830    0.4180 hc        1 MMP      0.074000
     73 H382       -2.5670    5.6790    1.7560 hc        1 MMP      0.074000
     74 H45         0.9510   -3.1650    2.5600 DU        1 MMP      0.172800
     75 H461       -0.0700   -2.9860    4.4830 hc        1 MMP      0.100333
     76 H462       -1.5130   -2.6330    3.8770 hc        1 MMP      0.100333
     77 H463       -1.0810   -2.0730    5.3140 hc        1 MMP      0.100333
     78 H471       -2.7140    0.8620    4.3160 hc        1 MMP      0.098000
     79 H472       -2.5330   -0.6500    4.7870 hc        1 MMP      0.098000
     80 H481       -1.1820    0.0710    6.5920 hc        1 MMP      0.071500
     81 H482       -1.3120    1.5920    6.1060 hc        1 MMP      0.071500
@<TRIPOS>BOND
     1    1    2 1   
     2    1   44 1   
     3    1   45 1   
     4    1   46 1   
     5    2    3 1   
     6    2    6 1   
     7    3    4 1   
     8    3   37 1   
     9    4    5 1   
    10    5    6 1   
    11    6    7 1   
    12    7   12 1   
    13    8   48 1   
    14    8   49 1   
    15    8   50 1   
    16    9   10 1   
    17    9   51 1   
    18    9   52 1   
    19   10   53 1   
    20   10   54 1   
    21   10   55 1   
    22   11   12 1   
    23   11   15 1   
    24   13   14 1   
    25   13   17 1   
    26   14   18 1   
    27   15   16 1   
    28   16   21 1   
    29   17   57 1   
    30   17   58 1   
    31   17   59 1   
    32   18   19 1   
    33   18   60 1   
    34   18   61 1   
    35   19   62 1   
    36   19   63 1   
    37   19   64 1   
    38   20   21 1   
    39   20   24 1   
    40   21   22 1   
    41   22   23 1   
    42   23   24 1   
    43   24   25 1   
    44   25   33 1   
    45   26   67 1   
    46   26   68 1   
    47   26   69 1   
    48   27   28 1   
    49   27   70 1   
    50   27   71 1   
    51   28   29 1   
    52   28   72 1   
    53   28   73 1   
    54   29   30 1   
    55   29   31 1   
    56   32   33 1   
    57   32   36 1   
    58   34   35 1   
    59   34   39 1   
    60   35   38 1   
    61   36   37 1   
    62   38   75 1   
    63   38   76 1   
    64   38   77 1   
    65   39   40 1   
    66   39   78 1   
    67   39   79 1   
    68   40   41 1   
    69   40   80 1   
    70   40   81 1   
    71   41   42 1   
    72   41   43 1   
@<TRIPOS>SUBSTRUCTURE
     1 MMP         1 TEMP              0 ****  ****    0 ROOT
