@<TRIPOS>MOLECULE
MMP
   81    85     1     0     0
SMALL
bcc


@<TRIPOS>ATOM
      1 C1         -0.4630    0.4390    0.2170 c3        1 MMP      0.200100
      2 N1          0.9690    0.4710    0.2040 na        1 MMP     -0.376200
      3 C11         1.7750    0.2240    1.3190 cc        1 MMP      0.066000
      4 C12         3.0750    0.7310    1.0550 cc        1 MMP     -0.148200
      5 C13         3.0570    1.2830   -0.2620 cd        1 MMP     -0.134200
      6 C14         1.7470    1.0990   -0.7800 cd        1 MMP      0.024000
      7 C15         1.3300    1.3760   -2.1300 ce        1 MMP     -0.129600
      8 C16         4.2280    0.6490    1.9520 c3        1 MMP     -0.014900
      9 C17         4.1920    1.9010   -0.9620 c3        1 MMP      0.000800
     10 C18         5.2080    0.8820   -1.4250 c3        1 MMP     -0.089100
     11 N2          0.0610   -0.7130   -2.4960 nd        1 MMP     -0.620300
     12 C21         0.5810    0.5510   -2.8990 cc        1 MMP      0.408900
     13 C22         0.2000    0.7820   -4.3300 cc        1 MMP     -0.203800
     14 C23        -0.4960   -0.3260   -4.7370 cd        1 MMP     -0.126200
     15 C24        -0.5660   -1.2480   -3.5460 cd        1 MMP      0.207600
     16 C25        -1.2380   -2.5090   -3.5770 ce        1 MMP     -0.259200
     17 C26         0.5610    1.9910   -5.0690 c3        1 MMP     -0.032900
     18 C27        -1.1020   -0.6190   -6.0440 c3        1 MMP     -0.019200
     19 C28        -0.2830   -1.6010   -6.8500 c3        1 MMP     -0.089100
     20 N3         -0.9470   -3.1730   -1.2030 na        1 MMP     -0.259100
     21 C31        -1.3910   -3.3550   -2.5130 cc        1 MMP      0.110900
     22 C32        -2.1290   -4.6530   -2.5450 cd        1 MMP     -0.121300
     23 C33        -2.0900   -5.2060   -1.2890 cd        1 MMP     -0.039300
     24 C34        -1.3370   -4.2640   -0.3950 cc        1 MMP      0.048900
     25 C35        -1.1270   -4.3970    0.9430 ce        1 MMP     -0.161200
     26 C36        -2.7730   -5.1740   -3.7510 c3        1 MMP     -0.066800
     27 C37        -2.7000   -6.4750   -0.8590 c3        1 MMP     -0.034100
     28 C38        -2.1330   -7.6860   -1.5790 c3        1 MMP     -0.192400
     29 C39        -3.1940   -8.4900   -2.3520 c         1 MMP      0.905600
     30 O31        -2.9440   -9.7060   -2.5900 o         1 MMP     -0.851300
     31 O32        -4.2510   -7.9070   -2.7420 o         1 MMP     -0.851300
     32 N4          0.1540   -2.3350    1.3620 nd        1 MMP     -0.635300
     33 C41        -0.4630   -3.4370    1.7900 cd        1 MMP      0.194600
     34 C42        -0.4060   -3.5440    3.2950 cd        1 MMP     -0.090200
     35 C43         0.2760   -2.4340    3.7280 cc        1 MMP     -0.198800
     36 C44         0.6560   -1.6480    2.5120 cc        1 MMP      0.438900
     37 C45         1.3730   -0.5020    2.5000 cf        1 MMP     -0.167600
     38 C46         0.5970   -2.0310    5.0960 c3        1 MMP     -0.068900
     39 C47        -1.0030   -4.6010    4.1250 c3        1 MMP     -0.027200
     40 C48         0.0060   -5.3240    5.0000 c3        1 MMP     -0.191400
     41 C49        -0.3340   -5.2590    6.4990 c         1 MMP      0.904600
     42 O41         0.0450   -6.2200    7.2280 o         1 MMP     -0.854300
     43 O42        -0.9440   -4.2440    6.9520 o         1 MMP     -0.854300
     44 H11        -0.8290    0.6160    1.2640 h1        1 MMP      0.060700
     45 H12        -0.8600    1.2370   -0.4650 h1        1 MMP      0.060700
     46 H13        -0.8510   -0.5550   -0.1320 h1        1 MMP      0.060700
     47 H15         1.7260    2.3080   -2.5690 ha        1 MMP      0.123000
     48 H161        3.9020    0.6360    3.0230 hc        1 MMP      0.031033
     49 H162        4.8090   -0.2890    1.7570 hc        1 MMP      0.031033
     50 H163        4.9120    1.5200    1.7950 hc        1 MMP      0.031033
     51 H171        4.6950    2.6320   -0.2700 hc        1 MMP      0.028700
     52 H172        3.8230    2.4850   -1.8490 hc        1 MMP      0.028700
     53 H181        6.0670    1.3910   -1.9250 hc        1 MMP      0.032033
     54 H182        4.7460    0.1660   -2.1470 hc        1 MMP      0.032033
     55 H183        5.5930    0.2990   -0.5530 hc        1 MMP      0.032033
     56 H25        -1.6730   -2.8140   -4.5400 ha        1 MMP      0.142000
     57 H261        0.2060    2.9020   -4.5230 hc        1 MMP      0.036700
     58 H262        1.6730    2.0630   -5.1740 hc        1 MMP      0.036700
     59 H263        0.1090    1.9930   -6.0920 hc        1 MMP      0.036700
     60 H271       -1.2210    0.3330   -6.6300 hc        1 MMP      0.041700
     61 H272       -2.1320   -1.0410   -5.8830 hc        1 MMP      0.041700
     62 H281        0.7310   -1.1860   -7.0660 hc        1 MMP      0.035367
     63 H282       -0.7930   -1.8200   -7.8180 hc        1 MMP      0.035367
     64 H283       -0.1580   -2.5580   -6.2870 hc        1 MMP      0.035367
     65 HN3        -0.2910   -2.4820   -0.9210 hn        1 MMP      0.344700
     66 H35        -1.4980   -5.3050    1.4470 ha        1 MMP      0.165000
     67 H361       -2.0060   -5.3990   -4.5350 hc        1 MMP      0.064033
     68 H362       -3.4880   -4.4220   -4.1680 hc        1 MMP      0.064033
     69 H363       -3.3370   -6.1240   -3.5160 hc        1 MMP      0.064033
     70 H371       -2.5860   -6.6040    0.2490 hc        1 MMP      0.066200
     71 H372       -3.8080   -6.4240   -1.0830 hc        1 MMP      0.066200
     72 H381       -1.6400   -8.3680   -0.8420 hc        1 MMP      0.034700
     73 H382       -1.3570   -7.3760   -2.3240 hc        1 MMP      0.034700
     74 H45         1.7510   -0.0980    3.4550 ha        1 MMP      0.137000
     75 H461        0.0690   -2.7000    5.8370 hc        1 MMP      0.060700
     76 H462        1.6990   -2.1070    5.2740 hc        1 MMP      0.060700
     77 H463        0.2870   -0.9710    5.2770 hc        1 MMP      0.060700
     78 H471       -1.5440   -5.3430    3.4800 hc        1 MMP      0.058700
     79 H472       -1.7700   -4.1200    4.8010 hc        1 MMP      0.058700
     80 H481        1.0240   -4.8730    4.8810 hc        1 MMP      0.032700
     81 H482        0.0730   -6.3980    4.6960 hc        1 MMP      0.032700
@<TRIPOS>BOND
     1    1    2 1   
     2    1   44 1   
     3    1   45 1   
     4    1   46 1   
     5    2    3 1   
     6    2    6 1   
     7    3    4 1   
     8    3   37 2   
     9    4    5 2   
    10    4    8 1   
    11    5    6 1   
    12    5    9 1   
    13    6    7 2   
    14    7   12 1   
    15    7   47 1   
    16    8   48 1   
    17    8   49 1   
    18    8   50 1   
    19    9   10 1   
    20    9   51 1   
    21    9   52 1   
    22   10   53 1   
    23   10   54 1   
    24   10   55 1   
    25   11   12 2   
    26   11   15 1   
    27   12   13 1   
    28   13   14 2   
    29   13   17 1   
    30   14   15 1   
    31   14   18 1   
    32   15   16 2   
    33   16   21 1   
    34   16   56 1   
    35   17   57 1   
    36   17   58 1   
    37   17   59 1   
    38   18   19 1   
    39   18   60 1   
    40   18   61 1   
    41   19   62 1   
    42   19   63 1   
    43   19   64 1   
    44   20   21 1   
    45   20   24 1   
    46   20   65 1   
    47   21   22 2   
    48   22   23 1   
    49   22   26 1   
    50   23   24 2   
    51   23   27 1   
    52   24   25 1   
    53   25   33 2   
    54   25   66 1   
    55   26   67 1   
    56   26   68 1   
    57   26   69 1   
    58   27   28 1   
    59   27   70 1   
    60   27   71 1   
    61   28   29 1   
    62   28   72 1   
    63   28   73 1   
    64   29   30 1   
    65   29   31 1   
    66   32   33 1   
    67   32   36 2   
    68   33   34 1   
    69   34   35 2   
    70   34   39 1   
    71   35   36 1   
    72   35   38 1   
    73   36   37 1   
    74   37   74 1   
    75   38   75 1   
    76   38   76 1   
    77   38   77 1   
    78   39   40 1   
    79   39   78 1   
    80   39   79 1   
    81   40   41 1   
    82   40   80 1   
    83   40   81 1   
    84   41   42 1   
    85   41   43 1   
@<TRIPOS>SUBSTRUCTURE
     1 MMP         1 TEMP              0 ****  ****    0 ROOT
