@<TRIPOS>MOLECULE
MMP
   81    85     1     0     0
SMALL
bcc


@<TRIPOS>ATOM
      1 C1         -3.7890   -0.9520    2.7500 c3        1 MMP      0.200100
      2 N1         -2.4610   -0.5490    2.3940 na        1 MMP     -0.375200
      3 C11        -1.8310    0.6040    2.8710 cc        1 MMP      0.066000
      4 C12        -0.7300    0.8970    2.0220 cc        1 MMP     -0.148200
      5 C13        -0.6850   -0.1170    1.0180 cd        1 MMP     -0.134200
      6 C14        -1.7570   -1.0130    1.2740 cd        1 MMP      0.024000
      7 C15        -1.9920   -2.2590    0.5910 ce        1 MMP     -0.129600
      8 C16         0.2110    2.0050    2.1880 c3        1 MMP     -0.014900
      9 C17         0.3050   -0.2280   -0.0640 c3        1 MMP      0.000800
     10 C18         1.6540   -0.6910    0.4360 c3        1 MMP     -0.089100
     11 N2         -2.4550   -3.6270    2.5970 nd        1 MMP     -0.620300
     12 C21        -2.2950   -3.4330    1.1940 cc        1 MMP      0.408900
     13 C22        -2.4670   -4.7560    0.5130 cc        1 MMP     -0.203800
     14 C23        -2.6970   -5.6810    1.4980 cd        1 MMP     -0.126200
     15 C24        -2.6850   -4.9260    2.8030 cd        1 MMP      0.207600
     16 C25        -2.9120   -5.5530    4.0670 ce        1 MMP     -0.259200
     17 C26        -2.3780   -4.9280   -0.9360 c3        1 MMP     -0.032900
     18 C27        -2.9370   -7.1260    1.3830 c3        1 MMP     -0.019200
     19 C28        -1.7210   -7.9420    1.7600 c3        1 MMP     -0.089100
     20 N3         -2.8550   -3.5450    5.5240 na        1 MMP     -0.259100
     21 C31        -2.9790   -4.9110    5.2740 cc        1 MMP      0.110900
     22 C32        -3.2550   -5.5700    6.5850 cd        1 MMP     -0.121300
     23 C33        -3.2700   -4.6060    7.5610 cd        1 MMP     -0.039300
     24 C34        -3.0220   -3.2810    6.9020 cc        1 MMP      0.048900
     25 C35        -3.0220   -2.0570    7.4980 ce        1 MMP     -0.161200
     26 C36        -3.4780   -7.0100    6.7220 c3        1 MMP     -0.066800
     27 C37        -3.5190   -4.8030    8.9990 c3        1 MMP     -0.034100
     28 C38        -2.4820   -5.6880    9.6700 c3        1 MMP     -0.192400
     29 C39        -3.0840   -6.9450   10.3230 c         1 MMP      0.905600
     30 O31        -2.4280   -7.4860   11.2580 o         1 MMP     -0.851300
     31 O32        -4.1820   -7.4050    9.8870 o         1 MMP     -0.851300
     32 N4         -2.5490   -0.6470    5.5340 nd        1 MMP     -0.635300
     33 C41        -2.8540   -0.7930    6.8240 cd        1 MMP      0.194600
     34 C42        -3.0350    0.5470    7.4960 cd        1 MMP     -0.090200
     35 C43        -2.8250    1.4910    6.5230 cc        1 MMP     -0.198800
     36 C44        -2.4990    0.7560    5.2590 cc        1 MMP      0.438900
     37 C45        -2.1880    1.3200    4.0720 cf        1 MMP     -0.167600
     38 C46        -2.8950    2.9480    6.6270 c3        1 MMP     -0.068900
     39 C47        -3.4090    0.7830    8.8990 c3        1 MMP     -0.027200
     40 C48        -2.3970    1.6220    9.6610 c3        1 MMP     -0.191400
     41 C49        -3.0000    2.9010   10.2660 c         1 MMP      0.904600
     42 O41        -2.4740    3.3530   11.3230 o         1 MMP     -0.854300
     43 O42        -3.9690    3.4680    9.6750 o         1 MMP     -0.854300
     44 H11        -3.7770   -1.6990    3.5870 h1        1 MMP      0.060700
     45 H12        -4.3720   -0.0520    3.0850 h1        1 MMP      0.060700
     46 H13        -4.2870   -1.4180    1.8600 h1        1 MMP      0.060700
     47 H15        -1.8360   -2.2410   -0.5010 ha        1 MMP      0.123000
     48 H161        0.6040    2.3400    1.1950 hc        1 MMP      0.031033
     49 H162       -0.2790    2.8760    2.6920 hc        1 MMP      0.031033
     50 H163        1.0830    1.6880    2.8170 hc        1 MMP      0.031033
     51 H171       -0.0640   -0.9420   -0.8490 hc        1 MMP      0.028700
     52 H172        0.4210    0.7770   -0.5570 hc        1 MMP      0.028700
     53 H181        2.0410    0.0150    1.2110 hc        1 MMP      0.032033
     54 H182        2.3850   -0.7340   -0.4070 hc        1 MMP      0.032033
     55 H183        1.5760   -1.7050    0.8950 hc        1 MMP      0.032033
     56 H25        -3.0510   -6.6450    4.0590 ha        1 MMP      0.142000
     57 H261       -2.6160   -5.9790   -1.2370 hc        1 MMP      0.036700
     58 H262       -1.3440   -4.6850   -1.2920 hc        1 MMP      0.036700
     59 H263       -3.0920   -4.2400   -1.4560 hc        1 MMP      0.036700
     60 H271       -3.7950   -7.4090    2.0540 hc        1 MMP      0.041700
     61 H272       -3.2410   -7.3800    0.3310 hc        1 MMP      0.041700
     62 H281       -1.9560   -9.0320    1.6910 hc        1 MMP      0.035367
     63 H282       -1.4050   -7.7100    2.8070 hc        1 MMP      0.035367
     64 H283       -0.8670   -7.7170    1.0770 hc        1 MMP      0.035367
     65 HN3        -2.5110   -2.8810    4.8710 hn        1 MMP      0.344700
     66 H35        -3.1740   -2.0020    8.5890 ha        1 MMP      0.165000
     67 H361       -3.7490   -7.2660    7.7870 hc        1 MMP      0.064033
     68 H362       -2.5530   -7.5750    6.4430 hc        1 MMP      0.064033
     69 H363       -4.3060   -7.3430    6.0470 hc        1 MMP      0.064033
     70 H371       -4.5280   -5.3010    9.1150 hc        1 MMP      0.066200
     71 H372       -3.5680   -3.8130    9.5220 hc        1 MMP      0.066200
     72 H381       -1.7240   -6.0420    8.9270 hc        1 MMP      0.034700
     73 H382       -1.9400   -5.1060   10.4570 hc        1 MMP      0.034700
     74 H45        -2.1320    2.4210    4.0010 ha        1 MMP      0.137000
     75 H461       -1.8750    3.3940    6.5170 hc        1 MMP      0.060700
     76 H462       -3.3100    3.2490    7.6340 hc        1 MMP      0.060700
     77 H463       -3.5490    3.3690    5.8230 hc        1 MMP      0.060700
     78 H471       -3.5660   -0.1920    9.4300 hc        1 MMP      0.058700
     79 H472       -4.3960    1.3350    8.9080 hc        1 MMP      0.058700
     80 H481       -1.9430    1.0160   10.4840 hc        1 MMP      0.032700
     81 H482       -1.5670    1.9470    8.9820 hc        1 MMP      0.032700
@<TRIPOS>BOND
     1    1    2 1   
     2    1   44 1   
     3    1   45 1   
     4    1   46 1   
     5    2    3 1   
     6    2    6 1   
     7    3    4 1   
     8    3   37 2   
     9    4    5 2   
    10    4    8 1   
    11    5    6 1   
    12    5    9 1   
    13    6    7 2   
    14    7   12 1   
    15    7   47 1   
    16    8   48 1   
    17    8   49 1   
    18    8   50 1   
    19    9   10 1   
    20    9   51 1   
    21    9   52 1   
    22   10   53 1   
    23   10   54 1   
    24   10   55 1   
    25   11   12 2   
    26   11   15 1   
    27   12   13 1   
    28   13   14 2   
    29   13   17 1   
    30   14   15 1   
    31   14   18 1   
    32   15   16 2   
    33   16   21 1   
    34   16   56 1   
    35   17   57 1   
    36   17   58 1   
    37   17   59 1   
    38   18   19 1   
    39   18   60 1   
    40   18   61 1   
    41   19   62 1   
    42   19   63 1   
    43   19   64 1   
    44   20   21 1   
    45   20   24 1   
    46   20   65 1   
    47   21   22 2   
    48   22   23 1   
    49   22   26 1   
    50   23   24 2   
    51   23   27 1   
    52   24   25 1   
    53   25   33 2   
    54   25   66 1   
    55   26   67 1   
    56   26   68 1   
    57   26   69 1   
    58   27   28 1   
    59   27   70 1   
    60   27   71 1   
    61   28   29 1   
    62   28   72 1   
    63   28   73 1   
    64   29   30 1   
    65   29   31 1   
    66   32   33 1   
    67   32   36 2   
    68   33   34 1   
    69   34   35 2   
    70   34   39 1   
    71   35   36 1   
    72   35   38 1   
    73   36   37 1   
    74   37   74 1   
    75   38   75 1   
    76   38   76 1   
    77   38   77 1   
    78   39   40 1   
    79   39   78 1   
    80   39   79 1   
    81   40   41 1   
    82   40   80 1   
    83   40   81 1   
    84   41   42 1   
    85   41   43 1   
@<TRIPOS>SUBSTRUCTURE
     1 MMP         1 TEMP              0 ****  ****    0 ROOT
