@<TRIPOS>MOLECULE
MMQ
    9     7     1     0     0
SMALL
bcc


@<TRIPOS>ATOM
      1 S1         -0.1330   -0.0000   -0.2640 sh        1 MMQ      0.006000
      2 P           2.5230    0.0000    1.9330 p3        1 MMQ      2.553000
      3 O1P         2.0870   -1.2740    2.5830 o         1 MMQ     -1.228333
      4 O2P         3.9000    0.0000    1.3420 o         1 MMQ     -1.228333
      5 O3P         2.0870    1.2740    2.5830 o         1 MMQ     -1.228333
      6 C1P         1.5280   -0.0000    0.0340 c2        1 MMQ     -0.877000
      7 HS1        -0.1770   -0.0000   -1.5940 hs        1 MMQ     -0.148000
      8 HC11        2.0550   -0.9140   -0.2680 h4        1 MMQ      0.076000
      9 HC12        2.0550    0.9140   -0.2680 h4        1 MMQ      0.076000
@<TRIPOS>BOND
     1    1    6 1   
     2    1    7 1   
     3    2    3 1   
     4    2    4 1   
     5    2    5 1   
     6    6    8 1   
     7    6    9 1   
@<TRIPOS>SUBSTRUCTURE
     1 MMQ         1 TEMP              0 ****  ****    0 ROOT
