@<TRIPOS>MOLECULE
MMQ
    9     7     1     0     0
SMALL
bcc


@<TRIPOS>ATOM
      1 S1          2.3780   -0.2800    0.5750 sh        1 MMQ      0.011000
      2 P          -1.0160    0.0810    0.0870 p3        1 MMQ      2.555000
      3 O1P        -1.2740    0.3420   -1.3640 o         1 MMQ     -1.228333
      4 O2P        -1.7210   -1.1030    0.6740 o         1 MMQ     -1.228333
      5 O3P        -0.8810    1.2800    0.9670 o         1 MMQ     -1.228333
      6 C1P         0.9350   -0.8100   -0.1170 c2        1 MMQ     -0.900000
      7 HS1         3.2490   -1.1820    0.1270 hs        1 MMQ     -0.152000
      8 HC11        0.5630   -1.7710    0.2600 h4        1 MMQ      0.085000
      9 HC12        0.8850   -0.7300   -1.2100 h4        1 MMQ      0.085000
@<TRIPOS>BOND
     1    1    6 1   
     2    1    7 1   
     3    2    3 1   
     4    2    4 1   
     5    2    5 1   
     6    6    8 1   
     7    6    9 1   
@<TRIPOS>SUBSTRUCTURE
     1 MMQ         1 TEMP              0 ****  ****    0 ROOT
