@<TRIPOS>MOLECULE
MMR
   42    42     1     0     0
SMALL
bcc


@<TRIPOS>ATOM
      1 C1         -0.2220   -0.0920    0.1220 c3        1 MMR      0.319900
      2 O1         -0.7700    0.1000   -1.1610 os        1 MMR     -0.411600
      3 C2          1.3230   -0.1950   -0.0330 c3        1 MMR      0.054700
      4 N2          1.7180   -1.3490   -0.8040 n         1 MMR     -0.553900
      5 C3          1.9110   -0.1910    1.4000 c3        1 MMR      0.102100
      6 O3          3.3330   -0.0770    1.3320 os        1 MMR     -0.429600
      7 C4          1.4350    1.0720    2.1480 c3        1 MMR      0.109100
      8 O4          1.8470    1.0130    3.5020 oh        1 MMR     -0.595800
      9 C5         -0.0970    1.1450    2.1470 c3        1 MMR      0.108100
     10 O5         -0.5870    1.0980    0.8060 os        1 MMR     -0.443600
     11 C6         -0.5840    2.4790    2.7230 c3        1 MMR      0.140400
     12 O6         -1.9920    2.5140    2.7960 oh        1 MMR     -0.592800
     13 C7         -2.1920    0.1510   -1.1840 c3        1 MMR      0.120700
     14 C8          2.6260   -1.2200   -1.8550 c         1 MMR      0.657100
     15 O8          3.3570   -0.2160   -1.9450 o         1 MMR     -0.598100
     16 C9          2.7310   -2.3720   -2.8220 c3        1 MMR     -0.176100
     17 C10         4.0440   -1.2590    1.7140 c3        1 MMR      0.050100
     18 C11         5.3920   -1.2020    1.0180 c         1 MMR      0.631100
     19 O11         6.3710   -1.8760    1.3430 o         1 MMR     -0.505000
     20 C12         4.2150   -1.3050    3.2200 c3        1 MMR     -0.122100
     21 O12         5.5860   -0.3940   -0.0500 oh        1 MMR     -0.567100
     22 H1         -0.6610   -0.9910    0.6400 h2        1 MMR      0.039700
     23 H2          1.6910    0.7420   -0.5560 h1        1 MMR      0.118700
     24 HN2         4.7620    0.0670   -0.2950 ho        1 MMR      0.467000
     25 H3          1.6020   -1.1090    1.9680 h1        1 MMR      0.064700
     26 H4          1.8700    1.9830    1.6500 h1        1 MMR      0.071700
     27 HO4         2.8140    0.9610    3.4890 ho        1 MMR      0.422000
     28 H5         -0.5280    0.2890    2.7350 h1        1 MMR      0.067700
     29 H6         -0.2220    2.5730    3.7810 h1        1 MMR      0.066700
     30 H6A        -0.2000    3.3290    2.0990 h1        1 MMR      0.066700
     31 HO6        -2.3240    2.4360    1.8920 ho        1 MMR      0.409000
     32 H7         -2.6200   -0.8080   -0.8020 h1        1 MMR      0.043367
     33 H7A        -2.5650    1.0100   -0.5770 h1        1 MMR      0.043367
     34 H7B        -2.4360    0.2930   -2.2670 h1        1 MMR      0.043367
     35 H9          3.5670   -2.1660   -3.5350 hc        1 MMR      0.072033
     36 H9A         2.9420   -3.3260   -2.2830 hc        1 MMR      0.072033
     37 H9B         1.7800   -2.4780   -3.3980 hc        1 MMR      0.072033
     38 H10         3.5070   -2.1790    1.3460 h1        1 MMR      0.076700
     39 H12         4.7270   -0.3810    3.5820 hc        1 MMR      0.059700
     40 H12A        3.2170   -1.3770    3.7160 hc        1 MMR      0.059700
     41 H12B        4.8380   -2.1900    3.4960 hc        1 MMR      0.059700
     42 H22         1.0350   -2.0670   -0.8850 hn        1 MMR      0.301500
@<TRIPOS>BOND
     1    1    2 1   
     2    1    3 1   
     3    1   10 1   
     4    1   22 1   
     5    2   13 1   
     6    3    4 1   
     7    3    5 1   
     8    3   23 1   
     9    4   14 1   
    10    4   42 1   
    11    5    6 1   
    12    5    7 1   
    13    5   25 1   
    14    6   17 1   
    15    7    8 1   
    16    7    9 1   
    17    7   26 1   
    18    8   27 1   
    19    9   10 1   
    20    9   11 1   
    21    9   28 1   
    22   11   12 1   
    23   11   29 1   
    24   11   30 1   
    25   12   31 1   
    26   13   32 1   
    27   13   33 1   
    28   13   34 1   
    29   14   15 2   
    30   14   16 1   
    31   16   35 1   
    32   16   36 1   
    33   16   37 1   
    34   17   18 1   
    35   17   20 1   
    36   17   38 1   
    37   18   19 2   
    38   18   21 1   
    39   20   39 1   
    40   20   40 1   
    41   20   41 1   
    42   21   24 1   
@<TRIPOS>SUBSTRUCTURE
     1 MMR         1 TEMP              0 ****  ****    0 ROOT
