@<TRIPOS>MOLECULE
MMR
   42    42     1     0     0
SMALL
bcc


@<TRIPOS>ATOM
      1 C1         -0.2280   -0.1090    0.1360 c3        1 MMR      0.319900
      2 O1         -0.7860    0.0670   -1.1450 os        1 MMR     -0.411600
      3 C2          1.3170   -0.2040   -0.0310 c3        1 MMR      0.054700
      4 N2          1.7130   -1.3640   -0.7930 n         1 MMR     -0.553900
      5 C3          1.9170   -0.1820    1.3980 c3        1 MMR      0.102100
      6 O3          3.3370   -0.0600    1.3170 os        1 MMR     -0.429600
      7 C4          1.4390    1.0860    2.1360 c3        1 MMR      0.109100
      8 O4          1.8620    1.0440    3.4870 oh        1 MMR     -0.595800
      9 C5         -0.0940    1.1510    2.1470 c3        1 MMR      0.108100
     10 O5         -0.5940    1.0870    0.8100 os        1 MMR     -0.443600
     11 C6         -0.5840    2.4880    2.7120 c3        1 MMR      0.140400
     12 O6         -1.9910    2.5150    2.7960 oh        1 MMR     -0.592800
     13 C7         -2.2090    0.1090   -1.1570 c3        1 MMR      0.120700
     14 C8          2.6110   -1.2410   -1.8530 c         1 MMR      0.657100
     15 O8          3.3360   -0.2330   -1.9590 o         1 MMR     -0.598100
     16 C9          2.7150   -2.4020   -2.8080 c3        1 MMR     -0.176100
     17 C10         4.0580   -1.2340    1.7050 c3        1 MMR      0.050100
     18 C11         5.4000   -1.1760    0.9980 c         1 MMR      0.631100
     19 O11         6.3860   -1.8410    1.3220 o         1 MMR     -0.505000
     20 C12         4.2420   -1.2630    3.2100 c3        1 MMR     -0.122100
     21 O12         5.5800   -0.3780   -0.0800 oh        1 MMR     -0.567100
     22 H1         -0.6570   -1.0050    0.6670 h2        1 MMR      0.039700
     23 H2          1.6750    0.7290   -0.5670 h1        1 MMR      0.118700
     24 HN2         4.7520    0.0750   -0.3240 ho        1 MMR      0.467000
     25 H3          1.6170   -1.0950    1.9780 h1        1 MMR      0.064700
     26 H4          1.8640    1.9950    1.6250 h1        1 MMR      0.071700
     27 HO4         2.8290    0.9970    3.4680 ho        1 MMR      0.422000
     28 H5         -0.5150    0.2980    2.7470 h1        1 MMR      0.067700
     29 H6         -0.2090    3.3330    2.0760 h1        1 MMR      0.066700
     30 H6A        -0.2140    2.5950    3.7670 h1        1 MMR      0.066700
     31 HO6        -2.3300    2.4260    1.8960 ho        1 MMR      0.409000
     32 H7         -2.5820    0.9730   -0.5560 h1        1 MMR      0.043367
     33 H7A        -2.4630    0.2380   -2.2390 h1        1 MMR      0.043367
     34 H7B        -2.6290   -0.8480   -0.7610 h1        1 MMR      0.043367
     35 H9          3.5430   -2.1980   -3.5310 hc        1 MMR      0.072033
     36 H9A         1.7600   -2.5200   -3.3740 hc        1 MMR      0.072033
     37 H9B         2.9370   -3.3490   -2.2610 hc        1 MMR      0.072033
     38 H10         3.5240   -2.1600    1.3510 h1        1 MMR      0.076700
     39 H12         4.7510   -0.3320    3.5580 hc        1 MMR      0.059700
     40 H12A        4.8720   -2.1410    3.4910 hc        1 MMR      0.059700
     41 H12B        3.2480   -1.3360    3.7150 hc        1 MMR      0.059700
     42 H22         1.0340   -2.0870   -0.8600 hn        1 MMR      0.301500
@<TRIPOS>BOND
     1    1    2 1   
     2    1    3 1   
     3    1   10 1   
     4    1   22 1   
     5    2   13 1   
     6    3    4 1   
     7    3    5 1   
     8    3   23 1   
     9    4   14 1   
    10    4   42 1   
    11    5    6 1   
    12    5    7 1   
    13    5   25 1   
    14    6   17 1   
    15    7    8 1   
    16    7    9 1   
    17    7   26 1   
    18    8   27 1   
    19    9   10 1   
    20    9   11 1   
    21    9   28 1   
    22   11   12 1   
    23   11   29 1   
    24   11   30 1   
    25   12   31 1   
    26   13   32 1   
    27   13   33 1   
    28   13   34 1   
    29   14   15 2   
    30   14   16 1   
    31   16   35 1   
    32   16   36 1   
    33   16   37 1   
    34   17   18 1   
    35   17   20 1   
    36   17   38 1   
    37   18   19 2   
    38   18   21 1   
    39   20   39 1   
    40   20   40 1   
    41   20   41 1   
    42   21   24 1   
@<TRIPOS>SUBSTRUCTURE
     1 MMR         1 TEMP              0 ****  ****    0 ROOT
