@<TRIPOS>MOLECULE
MMR
   42    42     1     0     0
SMALL
bcc


@<TRIPOS>ATOM
      1 C1         -0.2250   -0.0940    0.1280 c3        1 MMR      0.319900
      2 O1         -0.7770    0.0980   -1.1540 os        1 MMR     -0.411600
      3 C2          1.3200   -0.1950   -0.0320 c3        1 MMR      0.054700
      4 N2          1.7140   -1.3490   -0.8040 ns        1 MMR     -0.553900
      5 C3          1.9130   -0.1910    1.3990 c3        1 MMR      0.102100
      6 O3          3.3340   -0.0750    1.3270 os        1 MMR     -0.429600
      7 C4          1.4380    1.0720    2.1480 c3        1 MMR      0.109100
      8 O4          1.8540    1.0140    3.5010 oh        1 MMR     -0.595800
      9 C5         -0.0950    1.1440    2.1520 c3        1 MMR      0.108100
     10 O5         -0.5880    1.0970    0.8130 os        1 MMR     -0.443600
     11 C6         -0.5810    2.4780    2.7290 c3        1 MMR      0.140400
     12 O6         -1.9880    2.5110    2.8070 oh        1 MMR     -0.592800
     13 C7         -2.1990    0.1460   -1.1720 c3        1 MMR      0.120700
     14 C8          2.6180   -1.2200   -1.8580 c         1 MMR      0.657100
     15 O8          3.3480   -0.2140   -1.9510 o         1 MMR     -0.598100
     16 C9          2.7210   -2.3710   -2.8250 c3        1 MMR     -0.176100
     17 C10         4.0480   -1.2560    1.7070 c3        1 MMR      0.050100
     18 C11         5.3940   -1.1970    1.0070 c         1 MMR      0.631100
     19 O11         6.3740   -1.8710    1.3280 o         1 MMR     -0.505000
     20 C12         4.2240   -1.3010    3.2120 c3        1 MMR     -0.122100
     21 O12         5.5830   -0.3900   -0.0630 oh        1 MMR     -0.567100
     22 H1         -0.6610   -0.9930    0.6480 h2        1 MMR      0.039700
     23 H2          1.6850    0.7420   -0.5570 h1        1 MMR      0.118700
     24 HN2         4.7580    0.0700   -0.3050 ho        1 MMR      0.467000
     25 H3          1.6060   -1.1080    1.9690 h1        1 MMR      0.064700
     26 H4          1.8700    1.9840    1.6490 h1        1 MMR      0.071700
     27 HO4         2.8210    0.9630    3.4860 ho        1 MMR      0.422000
     28 H5         -0.5230    0.2870    2.7420 h1        1 MMR      0.067700
     29 H6         -0.1990    3.3270    2.1040 h1        1 MMR      0.066700
     30 H6A        -0.2150    2.5730    3.7870 h1        1 MMR      0.066700
     31 HO6        -2.3240    2.4330    1.9050 ho        1 MMR      0.409000
     32 H7         -2.4470    0.2880   -2.2540 h1        1 MMR      0.043367
     33 H7A        -2.6250   -0.8130   -0.7880 h1        1 MMR      0.043367
     34 H7B        -2.5710    1.0060   -0.5640 h1        1 MMR      0.043367
     35 H9          3.5550   -2.1650   -3.5410 hc        1 MMR      0.072033
     36 H9A         1.7680   -2.4780   -3.3970 hc        1 MMR      0.072033
     37 H9B         2.9340   -3.3250   -2.2860 hc        1 MMR      0.072033
     38 H10         3.5110   -2.1760    1.3410 h1        1 MMR      0.076700
     39 H12         4.7360   -0.3760    3.5720 hc        1 MMR      0.059700
     40 H12A        3.2280   -1.3740    3.7110 hc        1 MMR      0.059700
     41 H12B        4.8490   -2.1850    3.4870 hc        1 MMR      0.059700
     42 H22         1.0320   -2.0680   -0.8820 hn        1 MMR      0.301500
@<TRIPOS>BOND
     1    1    2 1   
     2    1    3 1   
     3    1   10 1   
     4    1   22 1   
     5    2   13 1   
     6    3    4 1   
     7    3    5 1   
     8    3   23 1   
     9    4   14 1   
    10    4   42 1   
    11    5    6 1   
    12    5    7 1   
    13    5   25 1   
    14    6   17 1   
    15    7    8 1   
    16    7    9 1   
    17    7   26 1   
    18    8   27 1   
    19    9   10 1   
    20    9   11 1   
    21    9   28 1   
    22   11   12 1   
    23   11   29 1   
    24   11   30 1   
    25   12   31 1   
    26   13   32 1   
    27   13   33 1   
    28   13   34 1   
    29   14   15 2   
    30   14   16 1   
    31   16   35 1   
    32   16   36 1   
    33   16   37 1   
    34   17   18 1   
    35   17   20 1   
    36   17   38 1   
    37   18   19 2   
    38   18   21 1   
    39   20   39 1   
    40   20   40 1   
    41   20   41 1   
    42   21   24 1   
@<TRIPOS>SUBSTRUCTURE
     1 MMR         1 TEMP              0 ****  ****    0 ROOT
