@<TRIPOS>MOLECULE
MMR
   41    41     1     0     0
SMALL
bcc


@<TRIPOS>ATOM
      1 C1         -1.7660   -1.0840    0.5000 c3        1 MMR      0.323900
      2 O1         -2.1930   -2.3000   -0.0740 os        1 MMR     -0.386600
      3 C2         -0.3960   -0.6920   -0.1320 c3        1 MMR      0.083700
      4 N2          0.6460   -1.5940    0.2790 n         1 MMR     -0.542900
      5 C3         -0.1290    0.7750    0.3080 c3        1 MMR      0.075100
      6 O3          1.0520    1.2560   -0.3160 os        1 MMR     -0.427600
      7 C4         -1.2890    1.6540   -0.1940 c3        1 MMR      0.104100
      8 O4         -1.1160    3.0100    0.1910 oh        1 MMR     -0.614800
      9 C5         -2.6000    1.1590    0.4290 c3        1 MMR      0.113100
     10 O5         -2.8190   -0.2080    0.0900 os        1 MMR     -0.470600
     11 C6         -3.8000    1.9240   -0.1320 c3        1 MMR      0.139400
     12 O6         -5.0140    1.4810    0.4390 oh        1 MMR     -0.613800
     13 C7         -3.2750   -2.9040    0.6180 c3        1 MMR      0.120700
     14 C8          1.4360   -2.2560   -0.6510 c         1 MMR      0.669100
     15 O8          1.0900   -2.3900   -1.8450 o         1 MMR     -0.644100
     16 C9          2.7200   -2.8560   -0.1320 c3        1 MMR     -0.190100
     17 C10         2.0900    1.6640    0.5970 c3        1 MMR      0.019100
     18 C11         2.5550    0.4980    1.5000 c         1 MMR      0.889600
     19 O11         3.6630   -0.0580    1.2770 o         1 MMR     -0.836800
     20 C12         3.2080    2.1890   -0.2790 c3        1 MMR     -0.073100
     21 O12         1.7700    0.1440    2.4340 o         1 MMR     -0.836800
     22 H1         -1.7200   -1.1250    1.6230 h2        1 MMR      0.047700
     23 H2         -0.5040   -0.7350   -1.2560 h1        1 MMR      0.104700
     24 HN2         1.0740   -1.3750    1.1630 hn        1 MMR      0.349500
     25 H3         -0.0510    0.8330    1.4330 h1        1 MMR      0.111700
     26 H4         -1.3480    1.6020   -1.3170 h1        1 MMR      0.055700
     27 HO4        -0.1730    3.2000    0.0900 ho        1 MMR      0.423000
     28 H5         -2.5590    1.2650    1.5490 h1        1 MMR      0.059700
     29 H6         -3.7100    3.0080    0.1440 h1        1 MMR      0.055200
     30 H6A        -3.8390    1.8090   -1.2480 h1        1 MMR      0.055200
     31 HO6        -5.0400    0.5220    0.3300 ho        1 MMR      0.410000
     32 H7         -2.9850   -3.1440    1.6700 h1        1 MMR      0.028367
     33 H7A        -4.1700   -2.2340    0.6120 h1        1 MMR      0.028367
     34 H7B        -3.4790   -3.8410    0.0430 h1        1 MMR      0.028367
     35 H9          2.5040   -3.6250    0.6470 hc        1 MMR      0.072367
     36 H9A         3.2670   -3.3320   -0.9780 hc        1 MMR      0.072367
     37 H9B         3.3560   -2.0470    0.3230 hc        1 MMR      0.072367
     38 H10         1.6770    2.4830    1.2500 h1        1 MMR      0.018700
     39 H12         2.8390    2.9960   -0.9550 hc        1 MMR      0.035033
     40 H12A        4.0180    2.5860    0.3770 hc        1 MMR      0.035033
     41 H12B        3.6250    1.3550   -0.8930 hc        1 MMR      0.035033
@<TRIPOS>BOND
     1    1    2 1   
     2    1    3 1   
     3    1   10 1   
     4    1   22 1   
     5    2   13 1   
     6    3    4 1   
     7    3    5 1   
     8    3   23 1   
     9    4   14 1   
    10    4   24 1   
    11    5    6 1   
    12    5    7 1   
    13    5   25 1   
    14    6   17 1   
    15    7    8 1   
    16    7    9 1   
    17    7   26 1   
    18    8   27 1   
    19    9   10 1   
    20    9   11 1   
    21    9   28 1   
    22   11   12 1   
    23   11   29 1   
    24   11   30 1   
    25   12   31 1   
    26   13   32 1   
    27   13   33 1   
    28   13   34 1   
    29   14   15 2   
    30   14   16 1   
    31   16   35 1   
    32   16   36 1   
    33   16   37 1   
    34   17   18 1   
    35   17   20 1   
    36   17   38 1   
    37   18   19 1   
    38   18   21 1   
    39   20   39 1   
    40   20   40 1   
    41   20   41 1   
@<TRIPOS>SUBSTRUCTURE
     1 MMR         1 TEMP              0 ****  ****    0 ROOT
