@<TRIPOS>MOLECULE
MMT
   39    40     1     0     0
SMALL
bcc


@<TRIPOS>ATOM
      1 C3X         2.5960   -0.3300    4.2660 c3        1 MMT      0.121100
      2 NP          1.4480    0.2000    3.5280 n3        1 MMT     -0.487100
      3 CP          1.5850    1.6380    3.2920 c3        1 MMT      0.121100
      4 O5'         1.3780   -0.4360    2.3280 os        1 MMT     -0.246100
      5 C5'         0.1360   -1.1170    2.0880 c3        1 MMT      0.125400
      6 C4'        -1.0480   -0.1650    1.9710 c3        1 MMT      0.113100
      7 O4'        -0.7650    0.8740    1.0200 os        1 MMT     -0.416600
      8 C1'        -1.5720    0.7370   -0.1550 c3        1 MMT      0.313500
      9 C2'        -2.7340   -0.2130    0.1910 c3        1 MMT     -0.136400
     10 C3'        -2.3130   -0.9080    1.4920 c3        1 MMT      0.120100
     11 O3'        -3.2950   -0.7620    2.5030 oh        1 MMT     -0.591800
     12 N1         -0.7590    0.3580   -1.3140 n         1 MMT     -0.380000
     13 C2         -0.3820   -0.9890   -1.5600 c         1 MMT      0.813500
     14 N3          0.5060   -1.2560   -2.6130 n         1 MMT     -0.584500
     15 C4          1.1210   -0.2510   -3.3790 c         1 MMT      0.716700
     16 C5          0.7750    1.1360   -3.0200 cc        1 MMT     -0.248400
     17 C6         -0.1070    1.3730   -2.0110 cd        1 MMT      0.040600
     18 O2         -0.8430   -1.9460   -0.8970 o         1 MMT     -0.664500
     19 O4          1.8980   -0.5850   -4.2880 o         1 MMT     -0.606500
     20 C5M         1.4300    2.2140   -3.7860 c3        1 MMT     -0.031900
     21 HC31        2.4610   -1.4360    4.3860 h1        1 MMT      0.044700
     22 HC32        3.5790   -0.1420    3.7590 h1        1 MMT      0.044700
     23 HC33        2.5990    0.1590    5.2730 h1        1 MMT      0.044700
     24 HNP1        0.7440    1.9660    2.6270 h1        1 MMT      0.044700
     25 HNP2        1.5050    2.1460    4.2860 h1        1 MMT      0.044700
     26 HNP3        2.5560    1.9210    2.8080 h1        1 MMT      0.044700
     27 H5'         0.3370   -1.6340    1.1090 h1        1 MMT      0.069200
     28 H5''       -0.0720   -1.8660    2.8950 h1        1 MMT      0.069200
     29 H4'        -1.2340    0.3690    2.9440 h1        1 MMT      0.104700
     30 H1'        -1.9550    1.7820   -0.3670 h2        1 MMT      0.084700
     31 H2'        -3.6570    0.3980    0.3590 hc        1 MMT      0.080700
     32 H2''       -2.9410   -0.9580   -0.6140 hc        1 MMT      0.080700
     33 H3'        -2.0980   -1.9950    1.3060 h1        1 MMT      0.074700
     34 HO3'       -4.0350   -1.3280    2.2550 ho        1 MMT      0.406000
     35 H3          0.7290   -2.2140   -2.7830 hn        1 MMT      0.352500
     36 H6         -0.3670    2.4040   -1.7040 h4        1 MMT      0.166000
     37 H71         1.2980    2.0370   -4.8830 hc        1 MMT      0.052367
     38 H72         1.0060    3.2140   -3.5250 hc        1 MMT      0.052367
     39 H73         2.5290    2.2210   -3.5700 hc        1 MMT      0.052367
@<TRIPOS>BOND
     1    1    2 1   
     2    1   21 1   
     3    1   22 1   
     4    1   23 1   
     5    2    3 1   
     6    2    4 1   
     7    3   24 1   
     8    3   25 1   
     9    3   26 1   
    10    4    5 1   
    11    5    6 1   
    12    5   27 1   
    13    5   28 1   
    14    6    7 1   
    15    6   10 1   
    16    6   29 1   
    17    7    8 1   
    18    8    9 1   
    19    8   12 1   
    20    8   30 1   
    21    9   10 1   
    22    9   31 1   
    23    9   32 1   
    24   10   11 1   
    25   10   33 1   
    26   11   34 1   
    27   12   13 1   
    28   12   17 1   
    29   13   14 1   
    30   13   18 2   
    31   14   15 1   
    32   14   35 1   
    33   15   16 1   
    34   15   19 2   
    35   16   17 2   
    36   16   20 1   
    37   17   36 1   
    38   20   37 1   
    39   20   38 1   
    40   20   39 1   
@<TRIPOS>SUBSTRUCTURE
     1 MMT         1 TEMP              0 ****  ****    0 ROOT
