@<TRIPOS>MOLECULE
MMU
   14    13     1     0     0
SMALL
bcc


@<TRIPOS>ATOM
      1 N1         -1.2060   -0.6770   -0.1360 n         1 MMU     -0.544900
      2 N2          1.2070   -0.6750    0.1420 n         1 MMU     -0.544900
      3 CAA        -2.4400    0.0300    0.0470 c3        1 MMU      0.067300
      4 CAB         2.4400    0.0300   -0.0480 c3        1 MMU      0.067300
      5 OAC        -0.0000    1.2990   -0.0070 o         1 MMU     -0.630100
      6 CAF        -0.0000    0.0450   -0.0010 c         1 MMU      0.728100
      7 HN1        -1.2100   -1.6150    0.1970 hn        1 MMU      0.289500
      8 HN2         1.2100   -1.6170   -0.1810 hn        1 MMU      0.289500
      9 HAA        -2.3600    1.0560   -0.4030 h1        1 MMU      0.046367
     10 HAAA       -3.2510   -0.5440   -0.4750 h1        1 MMU      0.046367
     11 HAAB       -2.7120    0.1390    1.1330 h1        1 MMU      0.046367
     12 HAB         2.7120    0.1280   -1.1350 h1        1 MMU      0.046367
     13 HABA        2.3600    1.0600    0.3910 h1        1 MMU      0.046367
     14 HABB        3.2520   -0.5380    0.4800 h1        1 MMU      0.046367
@<TRIPOS>BOND
     1    1    3 1   
     2    1    6 1   
     3    1    7 1   
     4    2    4 1   
     5    2    6 1   
     6    2    8 1   
     7    3    9 1   
     8    3   10 1   
     9    3   11 1   
    10    4   12 1   
    11    4   13 1   
    12    4   14 1   
    13    5    6 2   
@<TRIPOS>SUBSTRUCTURE
     1 MMU         1 TEMP              0 ****  ****    0 ROOT
