@<TRIPOS>MOLECULE
MMU
   16    15     1     0     0
SMALL
bcc


@<TRIPOS>ATOM
      1 N1          0.0460   -0.0010   -0.1600 n4        1 MMU     -0.640800
      2 N2         -2.1830    0.0010    1.1260 n4        1 MMU     -0.640800
      3 CAA         1.5340   -0.0010    0.0450 c3        1 MMU      0.081100
      4 CAB        -2.7500    0.0010    2.5170 c3        1 MMU      0.081100
      5 OAC        -0.0750   -0.0000    2.2050 o         1 MMU     -0.249100
      6 CAF        -0.6830   -0.0000    1.1500 c         1 MMU      0.469100
      7 HN1        -0.2080    0.8400   -0.7080 hn        1 MMU      0.498800
      8 HN2        -2.5280    0.8430    0.6320 hn        1 MMU      0.498800
      9 HAA         1.8420   -0.9210    0.6170 hx        1 MMU      0.150367
     10 HAAA        1.8420    0.9200    0.6160 hx        1 MMU      0.150367
     11 HAAB        2.0150   -0.0020   -0.9770 hx        1 MMU      0.150367
     12 HAB        -2.4100   -0.9200    3.0690 hx        1 MMU      0.150367
     13 HABA       -3.8760    0.0020    2.4210 hx        1 MMU      0.150367
     14 HABB       -2.4090    0.9210    3.0700 hx        1 MMU      0.150367
     15 H12        -0.2080   -0.8430   -0.7070 hn        1 MMU      0.498800
     16 H22        -2.5300   -0.8400    0.6310 hn        1 MMU      0.498800
@<TRIPOS>BOND
     1    1    3 1   
     2    1    6 1   
     3    1    7 1   
     4    1   15 1   
     5    2    4 1   
     6    2    6 1   
     7    2    8 1   
     8    2   16 1   
     9    3    9 1   
    10    3   10 1   
    11    3   11 1   
    12    4   12 1   
    13    4   13 1   
    14    4   14 1   
    15    5    6 2   
@<TRIPOS>SUBSTRUCTURE
     1 MMU         1 TEMP              0 ****  ****    0 ROOT
