@<TRIPOS>MOLECULE
MMU
   16    15     1     0     0
SMALL
bcc


@<TRIPOS>ATOM
      1 N1          0.0480   -0.0160   -0.1590 n4        1 MMU     -0.640800
      2 N2         -2.1830    0.0160    1.1240 n4        1 MMU     -0.640800
      3 CAA         1.5350   -0.0160    0.0480 c3        1 MMU      0.081100
      4 CAB        -2.7520    0.0180    2.5140 c3        1 MMU      0.081100
      5 OAC        -0.0770   -0.0090    2.2050 o         1 MMU     -0.249100
      6 CAF        -0.6840   -0.0030    1.1500 c         1 MMU      0.469100
      7 HN1        -0.2070   -0.8630   -0.6980 hn        1 MMU      0.499300
      8 HN2        -2.5400   -0.8180    0.6260 hn        1 MMU      0.499300
      9 HAA         1.8410   -0.9310    0.6300 hx        1 MMU      0.150367
     10 HAAA        2.0170   -0.0270   -0.9730 hx        1 MMU      0.150367
     11 HAAB        1.8430    0.9100    0.6100 hx        1 MMU      0.150367
     12 HAB        -3.8770    0.0340    2.4170 hx        1 MMU      0.150367
     13 HABA       -2.4000    0.9310    3.0710 hx        1 MMU      0.150367
     14 HABB       -2.4250   -0.9090    3.0630 hx        1 MMU      0.150367
     15 H12        -0.2050    0.8200   -0.7150 hn        1 MMU      0.499300
     16 H22        -2.5170    0.8640    0.6330 hn        1 MMU      0.499300
@<TRIPOS>BOND
     1    1    3 1   
     2    1    6 1   
     3    1    7 1   
     4    1   15 1   
     5    2    4 1   
     6    2    6 1   
     7    2    8 1   
     8    2   16 1   
     9    3    9 1   
    10    3   10 1   
    11    3   11 1   
    12    4   12 1   
    13    4   13 1   
    14    4   14 1   
    15    5    6 2   
@<TRIPOS>SUBSTRUCTURE
     1 MMU         1 TEMP              0 ****  ****    0 ROOT
