@<TRIPOS>MOLECULE
MMU
   16    15     1     0     0
SMALL
bcc


@<TRIPOS>ATOM
      1 N1          0.0490   -0.0150   -0.1590 ny        1 MMU     -0.640800
      2 N2         -2.1830    0.0170    1.1230 ny        1 MMU     -0.640800
      3 CAA         1.5360   -0.0130    0.0500 c3        1 MMU      0.081100
      4 CAB        -2.7530    0.0120    2.5130 c3        1 MMU      0.081100
      5 OAC        -0.0780    0.0010    2.2060 o         1 MMU     -0.249100
      6 CAF        -0.6840    0.0010    1.1510 c         1 MMU      0.469100
      7 HN1        -0.2050    0.8190   -0.7170 hn        1 MMU      0.499300
      8 HN2        -2.5180    0.8660    0.6350 hn        1 MMU      0.499300
      9 HAA         1.8420   -0.9260    0.6340 hx        1 MMU      0.150367
     10 HAAA        1.8430    0.9140    0.6100 hx        1 MMU      0.150367
     11 HAAB        2.0190   -0.0270   -0.9710 hx        1 MMU      0.150367
     12 HAB        -2.4250   -0.9170    3.0580 hx        1 MMU      0.150367
     13 HABA       -3.8790    0.0260    2.4150 hx        1 MMU      0.150367
     14 HABB       -2.4030    0.9240    3.0730 hx        1 MMU      0.150367
     15 H12        -0.2050   -0.8640   -0.6950 hn        1 MMU      0.499300
     16 H22        -2.5380   -0.8160    0.6210 hn        1 MMU      0.499300
@<TRIPOS>BOND
     1    1    3 1   
     2    1    6 1   
     3    1    7 1   
     4    1   15 1   
     5    2    4 1   
     6    2    6 1   
     7    2    8 1   
     8    2   16 1   
     9    3    9 1   
    10    3   10 1   
    11    3   11 1   
    12    4   12 1   
    13    4   13 1   
    14    4   14 1   
    15    5    6 2   
@<TRIPOS>SUBSTRUCTURE
     1 MMU         1 TEMP              0 ****  ****    0 ROOT
