@<TRIPOS>MOLECULE
MMV
   49    50     1     0     0
SMALL
bcc


@<TRIPOS>ATOM
      1 C1         -2.0200    0.7070    0.3440 ca        1 MMV      0.711200
      2 N2         -1.0600    1.2370   -0.4860 nb        1 MMV     -0.820000
      3 C3          0.2390    1.2180   -0.0320 ca        1 MMV      0.863900
      4 N4          0.6750    0.7460    1.1930 nb        1 MMV     -0.806000
      5 C5         -0.2740    0.2040    1.9980 ca        1 MMV      0.475600
      6 C6         -1.6270    0.1540    1.6270 ca        1 MMV     -0.244500
      7 N7         -3.3480    0.7990    0.0060 nh        1 MMV     -0.882500
      8 N8          1.2360    1.6720   -0.9360 nh        1 MMV     -0.910500
      9 C9          0.1550   -0.3510    3.3290 c3        1 MMV     -0.128700
     10 C10         0.6620    0.7270    4.2540 c3        1 MMV     -0.081100
     11 O11        -2.5840   -0.2900    2.5200 os        1 MMV     -0.333900
     12 C12        -3.0380   -1.6330    2.2560 c3        1 MMV      0.106400
     13 C13        -4.3990   -1.7530    2.9200 c3        1 MMV     -0.081400
     14 C14        -5.1320   -2.9590    2.3610 c3        1 MMV      0.109400
     15 O15        -6.4340   -2.9640    2.9810 os        1 MMV     -0.363900
     16 C16        -7.4020   -3.6320    2.2450 ca        1 MMV      0.109100
     17 C17        -7.9990   -3.0630    1.1040 ca        1 MMV     -0.068300
     18 C18        -9.0440   -3.7640    0.4870 ca        1 MMV     -0.125000
     19 C19        -9.4900   -4.9830    0.9910 ca        1 MMV     -0.151000
     20 C20        -8.8950   -5.5310    2.1270 ca        1 MMV     -0.141000
     21 C21        -7.8480   -4.8630    2.7530 ca        1 MMV     -0.149000
     22 C22        -7.5660   -1.7500    0.5510 c3        1 MMV     -0.029100
     23 C23        -7.0100   -1.8560   -0.8580 c3        1 MMV     -0.183400
     24 C24        -5.6640   -1.1370   -0.9630 c         1 MMV      0.905600
     25 O25        -4.6460   -1.6840   -0.4310 o         1 MMV     -0.860800
     26 O26        -5.5900   -0.0220   -1.5530 o         1 MMV     -0.860800
     27 H1         -3.9550    0.1510    0.4780 hn        1 MMV      0.455300
     28 H2         -3.6030    0.9170   -0.9580 hn        1 MMV      0.455300
     29 H3          0.8890    2.2790   -1.6470 hn        1 MMV      0.394300
     30 H4          2.0570    2.0170   -0.4880 hn        1 MMV      0.394300
     31 H5          0.9590   -1.1190    3.1660 hc        1 MMV      0.055200
     32 H6         -0.7240   -0.8700    3.7980 hc        1 MMV      0.055200
     33 H7          1.5700    1.2200    3.8310 hc        1 MMV      0.031700
     34 H8         -0.1220    1.5060    4.4140 hc        1 MMV      0.031700
     35 H9          0.9260    0.2830    5.2450 hc        1 MMV      0.031700
     36 H10        -3.1130   -1.8190    1.1500 h1        1 MMV      0.058700
     37 H11        -2.2980   -2.3420    2.7110 h1        1 MMV      0.058700
     38 H12        -4.2890   -1.8400    4.0290 hc        1 MMV      0.053200
     39 H13        -4.9970   -0.8260    2.7100 hc        1 MMV      0.053200
     40 H14        -5.2180   -2.8840    1.2390 h1        1 MMV      0.068200
     41 H15        -4.6210   -3.9150    2.6480 h1        1 MMV      0.068200
     42 H16        -9.5090   -3.3340   -0.4130 ha        1 MMV      0.131000
     43 H17       -10.3110   -5.5150    0.4900 ha        1 MMV      0.117000
     44 H18        -9.2480   -6.4920    2.5250 ha        1 MMV      0.116000
     45 H19        -7.3660   -5.2790    3.6490 ha        1 MMV      0.133000
     46 H20        -8.4500   -1.0560    0.5540 hc        1 MMV      0.053700
     47 H21        -6.7930   -1.2940    1.2300 hc        1 MMV      0.053700
     48 H22        -7.7280   -1.4060   -1.5880 hc        1 MMV      0.035700
     49 H23        -6.8550   -2.9290   -1.1400 hc        1 MMV      0.035700
@<TRIPOS>BOND
     1    1    2 ar  
     2    1    6 ar  
     3    1    7 1   
     4    2    3 ar  
     5    3    4 ar  
     6    3    8 1   
     7    4    5 ar  
     8    5    6 ar  
     9    5    9 1   
    10    6   11 1   
    11    7   27 1   
    12    7   28 1   
    13    8   29 1   
    14    8   30 1   
    15    9   10 1   
    16    9   31 1   
    17    9   32 1   
    18   10   33 1   
    19   10   34 1   
    20   10   35 1   
    21   11   12 1   
    22   12   13 1   
    23   12   36 1   
    24   12   37 1   
    25   13   14 1   
    26   13   38 1   
    27   13   39 1   
    28   14   15 1   
    29   14   40 1   
    30   14   41 1   
    31   15   16 1   
    32   16   17 ar  
    33   16   21 ar  
    34   17   18 ar  
    35   17   22 1   
    36   18   19 ar  
    37   18   42 1   
    38   19   20 ar  
    39   19   43 1   
    40   20   21 ar  
    41   20   44 1   
    42   21   45 1   
    43   22   23 1   
    44   22   46 1   
    45   22   47 1   
    46   23   24 1   
    47   23   48 1   
    48   23   49 1   
    49   24   25 1   
    50   24   26 1   
@<TRIPOS>SUBSTRUCTURE
     1 MMV         1 TEMP              0 ****  ****    0 ROOT
