@<TRIPOS>MOLECULE
MMV
   49    50     1     0     0
SMALL
bcc


@<TRIPOS>ATOM
      1 C1         -2.5850   -1.5660   -0.6720 ca        1 MMV      0.711200
      2 N2         -3.6030   -2.0410   -1.4650 nb        1 MMV     -0.820000
      3 C3         -4.8830   -1.6540   -1.1380 ca        1 MMV      0.863900
      4 N4         -5.2540   -0.8570   -0.0700 nb        1 MMV     -0.806000
      5 C5         -4.2430   -0.3740    0.6950 ca        1 MMV      0.475600
      6 C6         -2.8990   -0.6890    0.4420 ca        1 MMV     -0.244500
      7 N7         -1.2980   -2.0040   -0.8680 nh        1 MMV     -0.882500
      8 N8         -5.9170   -2.0640   -2.0220 nh        1 MMV     -0.910500
      9 C9         -4.5930    0.5230    1.8520 c3        1 MMV     -0.128700
     10 C10        -5.3680   -0.2090    2.9190 c3        1 MMV     -0.081100
     11 O11        -1.9060   -0.2820    1.3140 os        1 MMV     -0.333900
     12 C12        -1.1500    0.8500    0.8370 c3        1 MMV      0.106400
     13 C13         0.1730    0.8140    1.5820 c3        1 MMV     -0.081400
     14 C14         1.1820    1.6950    0.8680 c3        1 MMV      0.109400
     15 O15         2.4240    1.5520    1.5880 os        1 MMV     -0.363900
     16 C16         3.5480    1.8340    0.8250 ca        1 MMV      0.109100
     17 C17         4.0500    0.9280   -0.1290 ca        1 MMV     -0.068300
     18 C18         5.2510    1.2500   -0.7740 ca        1 MMV     -0.125000
     19 C19         5.9380    2.4230   -0.4780 ca        1 MMV     -0.151000
     20 C20         5.4330    3.3080    0.4750 ca        1 MMV     -0.141000
     21 C21         4.2360    3.0200    1.1240 ca        1 MMV     -0.149000
     22 C22         3.3570   -0.3490   -0.4550 c3        1 MMV     -0.029100
     23 C23         2.9000   -0.4210   -1.9020 c3        1 MMV     -0.183400
     24 C24         1.4330   -0.8450   -1.9830 c         1 MMV      0.905600
     25 O25         0.5420    0.0030   -1.6580 o         1 MMV     -0.860800
     26 O26         1.1360   -2.0170   -2.3530 o         1 MMV     -0.860800
     27 H1         -0.5820   -1.4160   -0.4780 hn        1 MMV      0.455300
     28 H2         -1.0350   -2.3710   -1.7650 hn        1 MMV      0.455300
     29 H3         -6.8120   -2.1270   -1.5900 hn        1 MMV      0.394300
     30 H4         -5.6850   -2.8640   -2.5700 hn        1 MMV      0.394300
     31 H5         -3.6410    0.9300    2.2880 hc        1 MMV      0.055200
     32 H6         -5.1960    1.3920    1.4750 hc        1 MMV      0.055200
     33 H7         -6.3450   -0.5750    2.5210 hc        1 MMV      0.031700
     34 H8         -4.7880   -1.0860    3.2940 hc        1 MMV      0.031700
     35 H9         -5.5690    0.4760    3.7790 hc        1 MMV      0.031700
     36 H10        -0.9880    0.7820   -0.2730 h1        1 MMV      0.058700
     37 H11        -1.7310    1.7780    1.0810 h1        1 MMV      0.058700
     38 H12         0.0370    1.1490    2.6400 hc        1 MMV      0.053200
     39 H13         0.5550   -0.2410    1.6080 hc        1 MMV      0.053200
     40 H14         1.2970    1.3730   -0.2070 h1        1 MMV      0.068200
     41 H15         0.8870    2.7760    0.9200 h1        1 MMV      0.068200
     42 H16         5.6460    0.5540   -1.5310 ha        1 MMV      0.131000
     43 H17         6.8790    2.6540   -0.9970 ha        1 MMV      0.117000
     44 H18         5.9760    4.2340    0.7110 ha        1 MMV      0.116000
     45 H19         3.8220    3.7050    1.8780 ha        1 MMV      0.133000
     46 H20         4.0610   -1.1980   -0.2410 hc        1 MMV      0.053700
     47 H21         2.4730   -0.4800    0.2280 hc        1 MMV      0.053700
     48 H22         3.0030    0.5780   -2.3970 hc        1 MMV      0.035700
     49 H23         3.5300   -1.1530   -2.4660 hc        1 MMV      0.035700
@<TRIPOS>BOND
     1    1    2 ar  
     2    1    6 ar  
     3    1    7 1   
     4    2    3 ar  
     5    3    4 ar  
     6    3    8 1   
     7    4    5 ar  
     8    5    6 ar  
     9    5    9 1   
    10    6   11 1   
    11    7   27 1   
    12    7   28 1   
    13    8   29 1   
    14    8   30 1   
    15    9   10 1   
    16    9   31 1   
    17    9   32 1   
    18   10   33 1   
    19   10   34 1   
    20   10   35 1   
    21   11   12 1   
    22   12   13 1   
    23   12   36 1   
    24   12   37 1   
    25   13   14 1   
    26   13   38 1   
    27   13   39 1   
    28   14   15 1   
    29   14   40 1   
    30   14   41 1   
    31   15   16 1   
    32   16   17 ar  
    33   16   21 ar  
    34   17   18 ar  
    35   17   22 1   
    36   18   19 ar  
    37   18   42 1   
    38   19   20 ar  
    39   19   43 1   
    40   20   21 ar  
    41   20   44 1   
    42   21   45 1   
    43   22   23 1   
    44   22   46 1   
    45   22   47 1   
    46   23   24 1   
    47   23   48 1   
    48   23   49 1   
    49   24   25 1   
    50   24   26 1   
@<TRIPOS>SUBSTRUCTURE
     1 MMV         1 TEMP              0 ****  ****    0 ROOT
