@<TRIPOS>MOLECULE
MMV
   49    50     1     0     0
SMALL
bcc


@<TRIPOS>ATOM
      1 C1         -1.9820    0.6610    0.3270 ca        1 MMV      0.711200
      2 N2         -1.0030    1.1610   -0.4990 nb        1 MMV     -0.820000
      3 C3          0.2880    1.1420   -0.0210 ca        1 MMV      0.863900
      4 N4          0.6980    0.6970    1.2230 nb        1 MMV     -0.806000
      5 C5         -0.2700    0.1840    2.0240 ca        1 MMV      0.475600
      6 C6         -1.6160    0.1370    1.6310 ca        1 MMV     -0.244500
      7 N7         -3.3030    0.7570   -0.0360 nv        1 MMV     -0.882500
      8 N8          1.3050    1.5640   -0.9180 nv        1 MMV     -0.910500
      9 C9          0.1310   -0.3420    3.3760 c3        1 MMV     -0.128700
     10 C10         0.6310    0.7550    4.2830 c3        1 MMV     -0.081100
     11 O11        -2.5930   -0.2760    2.5180 os        1 MMV     -0.333900
     12 C12        -3.0550   -1.6210    2.2790 c3        1 MMV      0.106400
     13 C13        -4.4290   -1.7120    2.9220 c3        1 MMV     -0.081400
     14 C14        -5.1630   -2.9250    2.3810 c3        1 MMV      0.109400
     15 O15        -6.4760   -2.9020    2.9780 os        1 MMV     -0.363900
     16 C16        -7.4370   -3.5800    2.2420 ca        1 MMV      0.109100
     17 C17        -8.0080   -3.0350    1.0770 ca        1 MMV     -0.068300
     18 C18        -9.0490   -3.7410    0.4600 ca        1 MMV     -0.125000
     19 C19        -9.5160   -4.9430    0.9860 ca        1 MMV     -0.151000
     20 C20        -8.9460   -5.4670    2.1460 ca        1 MMV     -0.141000
     21 C21        -7.9030   -4.7930    2.7730 ca        1 MMV     -0.149000
     22 C22        -7.5540   -1.7400    0.4990 c3        1 MMV     -0.029100
     23 C23        -6.9740   -1.8870   -0.8970 c3        1 MMV     -0.183400
     24 C24        -5.6200   -1.1830   -0.9960 c         1 MMV      0.905600
     25 O25        -4.6170   -1.7250   -0.4330 o         1 MMV     -0.860800
     26 O26        -5.5260   -0.0840   -1.6130 o         1 MMV     -0.860800
     27 H1         -3.9250    0.1260    0.4420 hn        1 MMV      0.455300
     28 H2         -3.5410    0.8530   -1.0060 hn        1 MMV      0.455300
     29 H3          0.9760    2.1560   -1.6500 hn        1 MMV      0.394300
     30 H4          2.1200    1.9130   -0.4650 hn        1 MMV      0.394300
     31 H5          0.9300   -1.1200    3.2470 hc        1 MMV      0.055200
     32 H6         -0.7610   -0.8410    3.8420 hc        1 MMV      0.055200
     33 H7          1.5510    1.2300    3.8640 hc        1 MMV      0.031700
     34 H8         -0.1480    1.5450    4.4090 hc        1 MMV      0.031700
     35 H9          0.8750    0.3340    5.2880 hc        1 MMV      0.031700
     36 H10        -3.1130   -1.8340    1.1770 h1        1 MMV      0.058700
     37 H11        -2.3300   -2.3250    2.7660 h1        1 MMV      0.058700
     38 H12        -4.3390   -1.7710    4.0350 hc        1 MMV      0.053200
     39 H13        -5.0140   -0.7850    2.6790 hc        1 MMV      0.053200
     40 H14        -5.2300   -2.8770    1.2560 h1        1 MMV      0.068200
     41 H15        -4.6670   -3.8780    2.7000 h1        1 MMV      0.068200
     42 H16        -9.4950   -3.3300   -0.4590 ha        1 MMV      0.131000
     43 H17       -10.3340   -5.4800    0.4850 ha        1 MMV      0.117000
     44 H18        -9.3150   -6.4150    2.5620 ha        1 MMV      0.116000
     45 H19        -7.4410   -5.1910    3.6880 ha        1 MMV      0.133000
     46 H20        -8.4310   -1.0380    0.4690 hc        1 MMV      0.053700
     47 H21        -6.7880   -1.2740    1.1800 hc        1 MMV      0.053700
     48 H22        -7.6750   -1.4500   -1.6510 hc        1 MMV      0.035700
     49 H23        -6.8240   -2.9670   -1.1490 hc        1 MMV      0.035700
@<TRIPOS>BOND
     1    1    2 ar  
     2    1    6 ar  
     3    1    7 1   
     4    2    3 ar  
     5    3    4 ar  
     6    3    8 1   
     7    4    5 ar  
     8    5    6 ar  
     9    5    9 1   
    10    6   11 1   
    11    7   27 1   
    12    7   28 1   
    13    8   29 1   
    14    8   30 1   
    15    9   10 1   
    16    9   31 1   
    17    9   32 1   
    18   10   33 1   
    19   10   34 1   
    20   10   35 1   
    21   11   12 1   
    22   12   13 1   
    23   12   36 1   
    24   12   37 1   
    25   13   14 1   
    26   13   38 1   
    27   13   39 1   
    28   14   15 1   
    29   14   40 1   
    30   14   41 1   
    31   15   16 1   
    32   16   17 ar  
    33   16   21 ar  
    34   17   18 ar  
    35   17   22 1   
    36   18   19 ar  
    37   18   42 1   
    38   19   20 ar  
    39   19   43 1   
    40   20   21 ar  
    41   20   44 1   
    42   21   45 1   
    43   22   23 1   
    44   22   46 1   
    45   22   47 1   
    46   23   24 1   
    47   23   48 1   
    48   23   49 1   
    49   24   25 1   
    50   24   26 1   
@<TRIPOS>SUBSTRUCTURE
     1 MMV         1 TEMP              0 ****  ****    0 ROOT
