@<TRIPOS>MOLECULE
MMV
   49    50     1     0     0
SMALL
bcc


@<TRIPOS>ATOM
      1 C1         -2.0060    0.6840    0.3560 ca        1 MMV      0.711200
      2 N2         -1.0330    1.1650   -0.4880 nb        1 MMV     -0.818000
      3 C3          0.2620    1.1590   -0.0180 ca        1 MMV      0.861900
      4 N4          0.6920    0.6550    1.1950 nb        1 MMV     -0.805000
      5 C5         -0.2710    0.1670    2.0170 ca        1 MMV      0.475600
      6 C6         -1.6270    0.1610    1.6560 ca        1 MMV     -0.242500
      7 N7         -3.3310    0.7770    0.0030 nh        1 MMV     -0.880500
      8 N8          1.2420    1.7750   -0.8430 nh        1 MMV     -0.907500
      9 C9          0.1490   -0.3900    3.3500 c3        1 MMV     -0.127700
     10 C10         0.7180    0.6770    4.2520 c3        1 MMV     -0.082100
     11 O11        -2.5950   -0.2310    2.5610 os        1 MMV     -0.332900
     12 C12        -3.0820   -1.5710    2.3380 c3        1 MMV      0.105400
     13 C13        -4.4750   -1.6200    2.9410 c3        1 MMV     -0.081400
     14 C14        -5.2070   -2.8450    2.4230 c3        1 MMV      0.109400
     15 O15        -6.5330   -2.7920    2.9890 os        1 MMV     -0.362900
     16 C16        -7.4800   -3.4960    2.2610 ca        1 MMV      0.109100
     17 C17        -8.0180   -3.0010    1.0570 ca        1 MMV     -0.069300
     18 C18        -9.0500   -3.7280    0.4480 ca        1 MMV     -0.125000
     19 C19        -9.5390   -4.9010    1.0160 ca        1 MMV     -0.151000
     20 C20        -9.0020   -5.3760    2.2120 ca        1 MMV     -0.141000
     21 C21        -7.9690   -4.6810    2.8350 ca        1 MMV     -0.149000
     22 C22        -7.5380   -1.7380    0.4330 c3        1 MMV     -0.029100
     23 C23        -6.8960   -1.9610   -0.9270 c3        1 MMV     -0.183400
     24 C24        -5.5530   -1.2360   -1.0120 c         1 MMV      0.904600
     25 O25        -4.5520   -1.7510   -0.4190 o         1 MMV     -0.861300
     26 O26        -5.4650   -0.1460   -1.6460 o         1 MMV     -0.861300
     27 H1         -3.5720    0.8660   -0.9680 hn        1 MMV      0.453300
     28 H2         -3.9420    0.1380    0.4820 hn        1 MMV      0.453300
     29 H3          2.1600    1.4110   -0.7100 hn        1 MMV      0.393300
     30 H4          0.9790    1.8280   -1.8040 hn        1 MMV      0.393300
     31 H5         -0.7470   -0.8590    3.8390 hc        1 MMV      0.053200
     32 H6          0.9120   -1.1980    3.1900 hc        1 MMV      0.053200
     33 H7          1.6420    1.1210    3.8090 hc        1 MMV      0.032700
     34 H8          0.9760    0.2360    5.2460 hc        1 MMV      0.032700
     35 H9         -0.0250    1.4940    4.4100 hc        1 MMV      0.032700
     36 H10        -3.1110   -1.8100    1.2410 h1        1 MMV      0.058700
     37 H11        -2.3860   -2.2770    2.8630 h1        1 MMV      0.058700
     38 H12        -4.4200   -1.6380    4.0580 hc        1 MMV      0.054200
     39 H13        -5.0410   -0.6970    2.6450 hc        1 MMV      0.054200
     40 H14        -4.7250   -3.7910    2.7860 h1        1 MMV      0.067200
     41 H15        -5.2460   -2.8350    1.2960 h1        1 MMV      0.067200
     42 H16        -9.4700   -3.3560   -0.4990 ha        1 MMV      0.131000
     43 H17       -10.3490   -5.4540    0.5200 ha        1 MMV      0.117000
     44 H18        -9.3890   -6.3010    2.6620 ha        1 MMV      0.116000
     45 H19        -7.5330   -5.0400    3.7770 ha        1 MMV      0.133000
     46 H20        -8.4110   -1.0400    0.3250 hc        1 MMV      0.053700
     47 H21        -6.8030   -1.2360    1.1210 hc        1 MMV      0.053700
     48 H22        -7.5720   -1.5860   -1.7350 hc        1 MMV      0.035700
     49 H23        -6.7170   -3.0520   -1.1020 hc        1 MMV      0.035700
@<TRIPOS>BOND
     1    1    2 ar  
     2    1    6 ar  
     3    1    7 1   
     4    2    3 ar  
     5    3    4 ar  
     6    3    8 1   
     7    4    5 ar  
     8    5    6 ar  
     9    5    9 1   
    10    6   11 1   
    11    7   27 1   
    12    7   28 1   
    13    8   29 1   
    14    8   30 1   
    15    9   10 1   
    16    9   31 1   
    17    9   32 1   
    18   10   33 1   
    19   10   34 1   
    20   10   35 1   
    21   11   12 1   
    22   12   13 1   
    23   12   36 1   
    24   12   37 1   
    25   13   14 1   
    26   13   38 1   
    27   13   39 1   
    28   14   15 1   
    29   14   40 1   
    30   14   41 1   
    31   15   16 1   
    32   16   17 ar  
    33   16   21 ar  
    34   17   18 ar  
    35   17   22 1   
    36   18   19 ar  
    37   18   42 1   
    38   19   20 ar  
    39   19   43 1   
    40   20   21 ar  
    41   20   44 1   
    42   21   45 1   
    43   22   23 1   
    44   22   46 1   
    45   22   47 1   
    46   23   24 1   
    47   23   48 1   
    48   23   49 1   
    49   24   25 1   
    50   24   26 1   
@<TRIPOS>SUBSTRUCTURE
     1 MMV         1 TEMP              0 ****  ****    0 ROOT
