@<TRIPOS>MOLECULE
MMY
   48    52     1     0     0
SMALL
bcc


@<TRIPOS>ATOM
      1 C1          0.0950    0.2240    0.0700 ca        1 MMY     -0.125000
      2 C2          1.4800    0.3320    0.1780 ca        1 MMY     -0.220300
      3 C3          2.0990    0.0750    1.4110 ca        1 MMY      0.361200
      4 N4          1.4080   -0.2730    2.5140 nb        1 MMY     -0.643000
      5 C5          0.0770   -0.3830    2.4150 ca        1 MMY      0.352200
      6 C6         -0.6550   -0.1520    1.2060 ca        1 MMY      0.058300
      7 N7         -2.0420   -0.3300    1.2090 nh        1 MMY     -0.645700
      8 C8         -2.8060   -0.1670    2.4520 c3        1 MMY      0.206800
      9 C9         -4.3020   -0.0340    2.0660 c3        1 MMY     -0.016100
     10 C10        -4.2880   -0.1210    0.5830 ca        1 MMY     -0.408900
     11 C11        -2.9230   -0.2560    0.1130 ca        1 MMY      0.710200
     12 N12        -2.5990   -0.3500   -1.1930 nb        1 MMY     -0.780000
     13 C13        -3.6790   -0.2790   -2.0790 ca        1 MMY      0.897900
     14 N14        -3.3680   -0.2400   -3.4680 nh        1 MMY     -0.719300
     15 C15        -4.4530   -0.5580   -4.3880 c3        1 MMY      0.161800
     16 C16        -4.0630   -0.3550   -5.8580 c3        1 MMY      0.118400
     17 O17        -2.8430   -1.0080   -6.1820 os        1 MMY     -0.410600
     18 C18        -1.7760   -0.5600   -5.3570 c3        1 MMY      0.118400
     19 C19        -2.0720   -0.7720   -3.8670 c3        1 MMY      0.161800
     20 N20        -5.0040   -0.1660   -1.7110 nb        1 MMY     -0.776000
     21 C21        -5.2940   -0.0830   -0.3810 cp        1 MMY      0.588800
     22 C22        -6.7030    0.0560   -0.0070 cp        1 MMY     -0.457100
     23 C23        -7.5660    0.9450   -0.6900 ca        1 MMY      0.500700
     24 N24        -8.8560    1.1050   -0.3750 nb        1 MMY     -0.758500
     25 C25        -9.3370    0.3330    0.6850 ca        1 MMY      0.884900
     26 N26       -10.6450    0.5410    1.0970 nh        1 MMY     -0.936500
     27 N29        -8.5720   -0.6010    1.3870 nb        1 MMY     -0.758500
     28 C30        -7.2880   -0.7090    1.0250 ca        1 MMY      0.500700
     29 H1         -0.3810    0.4340   -0.8990 ha        1 MMY      0.167000
     30 H2          2.0820    0.6190   -0.6950 ha        1 MMY      0.143000
     31 H3          3.1930    0.1510    1.5310 h4        1 MMY      0.024100
     32 H5         -0.4380   -0.6750    3.3480 h4        1 MMY      0.022100
     33 H8         -2.4510    0.7410    3.0110 h1        1 MMY      0.058200
     34 H8A        -2.6430   -1.0750    3.0920 h1        1 MMY      0.058200
     35 H9         -4.8940   -0.8600    2.5330 hc        1 MMY      0.063200
     36 H9A        -4.7200    0.9410    2.4200 hc        1 MMY      0.063200
     37 H15        -4.7900   -1.6250   -4.2470 h1        1 MMY      0.063200
     38 H15A       -5.3260    0.1200   -4.1750 h1        1 MMY      0.063200
     39 H16        -3.9810    0.7380   -6.0990 h1        1 MMY      0.057700
     40 H16A       -4.8280   -0.8390   -6.5200 h1        1 MMY      0.057700
     41 H18        -1.5650    0.5210   -5.5700 h1        1 MMY      0.057700
     42 H18A       -0.9000   -1.1910   -5.6610 h1        1 MMY      0.057700
     43 H19        -2.0100   -1.8750   -3.6390 h1        1 MMY      0.063200
     44 H19A       -1.2630   -0.2450   -3.2870 h1        1 MMY      0.063200
     45 H23        -7.1990    1.5590   -1.5340 h4        1 MMY      0.036100
     46 HN26      -11.0520   -0.1230    1.7120 hn        1 MMY      0.439300
     47 HN2A      -11.2480    1.0510    0.4970 hn        1 MMY      0.439300
     48 H30        -6.6990   -1.4610    1.5820 h4        1 MMY      0.036100
@<TRIPOS>BOND
     1    1    2 ar  
     2    1    6 ar  
     3    1   29 1   
     4    2    3 ar  
     5    2   30 1   
     6    3    4 ar  
     7    3   31 1   
     8    4    5 ar  
     9    5    6 ar  
    10    5   32 1   
    11    6    7 1   
    12    7    8 1   
    13    7   11 1   
    14    8    9 1   
    15    8   33 1   
    16    8   34 1   
    17    9   10 1   
    18    9   35 1   
    19    9   36 1   
    20   10   11 ar  
    21   10   21 ar  
    22   11   12 ar  
    23   12   13 ar  
    24   13   14 1   
    25   13   20 ar  
    26   14   15 1   
    27   14   19 1   
    28   15   16 1   
    29   15   37 1   
    30   15   38 1   
    31   16   17 1   
    32   16   39 1   
    33   16   40 1   
    34   17   18 1   
    35   18   19 1   
    36   18   41 1   
    37   18   42 1   
    38   19   43 1   
    39   19   44 1   
    40   20   21 ar  
    41   21   22 1   
    42   22   23 ar  
    43   22   28 ar  
    44   23   24 ar  
    45   23   45 1   
    46   24   25 ar  
    47   25   26 1   
    48   25   27 ar  
    49   26   46 1   
    50   26   47 1   
    51   27   28 ar  
    52   28   48 1   
@<TRIPOS>SUBSTRUCTURE
     1 MMY         1 TEMP              0 ****  ****    0 ROOT
