@<TRIPOS>MOLECULE
MMY
   48    52     1     0     0
SMALL
bcc


@<TRIPOS>ATOM
      1 C1          0.0920    0.2400    0.0700 ca        1 MMY     -0.125000
      2 C2          1.4780    0.3510    0.1770 ca        1 MMY     -0.220300
      3 C3          2.0980    0.0930    1.4090 ca        1 MMY      0.361200
      4 N4          1.4090   -0.2600    2.5120 nb        1 MMY     -0.643000
      5 C5          0.0780   -0.3730    2.4140 ca        1 MMY      0.352200
      6 C6         -0.6560   -0.1410    1.2060 ca        1 MMY      0.058300
      7 N7         -2.0420   -0.3220    1.2100 nh        1 MMY     -0.645700
      8 C8         -2.8060   -0.1530    2.4520 c3        1 MMY      0.206800
      9 C9         -4.3020   -0.0210    2.0650 c3        1 MMY     -0.016100
     10 C10        -4.2880   -0.1150    0.5830 ca        1 MMY     -0.408900
     11 C11        -2.9230   -0.2530    0.1140 ca        1 MMY      0.710200
     12 N12        -2.5990   -0.3540   -1.1920 nb        1 MMY     -0.779000
     13 C13        -3.6780   -0.2870   -2.0790 ca        1 MMY      0.897900
     14 N14        -3.3680   -0.2550   -3.4680 nh        1 MMY     -0.719300
     15 C15        -4.4520   -0.5770   -4.3870 c3        1 MMY      0.161800
     16 C16        -4.0630   -0.3820   -5.8570 c3        1 MMY      0.118400
     17 O17        -2.8440   -1.0390   -6.1780 os        1 MMY     -0.410600
     18 C18        -1.7760   -0.5880   -5.3550 c3        1 MMY      0.118400
     19 C19        -2.0720   -0.7910   -3.8640 c3        1 MMY      0.161800
     20 N20        -5.0040   -0.1710   -1.7110 nb        1 MMY     -0.776000
     21 C21        -5.2940   -0.0820   -0.3820 cp        1 MMY      0.588800
     22 C22        -6.7020    0.0600   -0.0090 cp        1 MMY     -0.457100
     23 C23        -7.5650    0.9470   -0.6960 ca        1 MMY      0.500700
     24 N24        -8.8550    1.1090   -0.3830 nb        1 MMY     -0.758500
     25 C25        -9.3360    0.3430    0.6810 ca        1 MMY      0.884900
     26 N26       -10.6450    0.5530    1.0920 nv        1 MMY     -0.936500
     27 N29        -8.5720   -0.5880    1.3880 nb        1 MMY     -0.758500
     28 C30        -7.2890   -0.6990    1.0260 ca        1 MMY      0.500700
     29 H1         -0.3850    0.4520   -0.8980 ha        1 MMY      0.167000
     30 H2          2.0780    0.6410   -0.6960 ha        1 MMY      0.143000
     31 H3          3.1920    0.1710    1.5280 h4        1 MMY      0.024100
     32 H5         -0.4360   -0.6680    3.3470 h4        1 MMY      0.022100
     33 H8         -2.6440   -1.0600    3.0960 h1        1 MMY      0.058200
     34 H8A        -2.4510    0.7570    3.0070 h1        1 MMY      0.058200
     35 H9         -4.8940   -0.8450    2.5350 hc        1 MMY      0.063200
     36 H9A        -4.7190    0.9560    2.4140 hc        1 MMY      0.063200
     37 H15        -4.7920   -1.6420   -4.2400 h1        1 MMY      0.063200
     38 H15A       -5.3250    0.1040   -4.1770 h1        1 MMY      0.063200
     39 H16        -4.8280   -0.8680   -6.5170 h1        1 MMY      0.057700
     40 H16A       -3.9780    0.7100   -6.1040 h1        1 MMY      0.057700
     41 H18        -1.5630    0.4920   -5.5740 h1        1 MMY      0.057700
     42 H18A       -0.9010   -1.2220   -5.6550 h1        1 MMY      0.057700
     43 H19        -2.0120   -1.8930   -3.6300 h1        1 MMY      0.063200
     44 H19A       -1.2620   -0.2620   -3.2860 h1        1 MMY      0.063200
     45 H23        -7.1970    1.5570   -1.5440 h4        1 MMY      0.036100
     46 HN26      -11.2470    1.0610    0.4890 hn        1 MMY      0.439300
     47 HN2A      -11.0530   -0.1070    1.7100 hn        1 MMY      0.439300
     48 H30        -6.7000   -1.4490    1.5880 h4        1 MMY      0.036100
@<TRIPOS>BOND
     1    1    2 ar  
     2    1    6 ar  
     3    1   29 1   
     4    2    3 ar  
     5    2   30 1   
     6    3    4 ar  
     7    3   31 1   
     8    4    5 ar  
     9    5    6 ar  
    10    5   32 1   
    11    6    7 1   
    12    7    8 1   
    13    7   11 1   
    14    8    9 1   
    15    8   33 1   
    16    8   34 1   
    17    9   10 1   
    18    9   35 1   
    19    9   36 1   
    20   10   11 ar  
    21   10   21 ar  
    22   11   12 ar  
    23   12   13 ar  
    24   13   14 1   
    25   13   20 ar  
    26   14   15 1   
    27   14   19 1   
    28   15   16 1   
    29   15   37 1   
    30   15   38 1   
    31   16   17 1   
    32   16   39 1   
    33   16   40 1   
    34   17   18 1   
    35   18   19 1   
    36   18   41 1   
    37   18   42 1   
    38   19   43 1   
    39   19   44 1   
    40   20   21 ar  
    41   21   22 1   
    42   22   23 ar  
    43   22   28 ar  
    44   23   24 ar  
    45   23   45 1   
    46   24   25 ar  
    47   25   26 1   
    48   25   27 ar  
    49   26   46 1   
    50   26   47 1   
    51   27   28 ar  
    52   28   48 1   
@<TRIPOS>SUBSTRUCTURE
     1 MMY         1 TEMP              0 ****  ****    0 ROOT
