@<TRIPOS>MOLECULE
MMY
   48    52     1     0     0
SMALL
bcc


@<TRIPOS>ATOM
      1 C1         -3.8940    0.7180    0.3700 ca        1 MMY     -0.124000
      2 C2         -5.2790    0.8090    0.4980 ca        1 MMY     -0.220300
      3 C3         -5.9250    2.0110    0.1700 ca        1 MMY      0.361200
      4 N4         -5.2620    3.0990   -0.2670 nb        1 MMY     -0.643000
      5 C5         -3.9320    3.0160   -0.3970 ca        1 MMY      0.352200
      6 C6         -3.1720    1.8380   -0.0980 ca        1 MMY      0.058300
      7 N7         -1.7900    1.8530   -0.3040 nh        1 MMY     -0.645700
      8 C8         -1.0450    3.1160   -0.2280 c3        1 MMY      0.206800
      9 C9          0.4600    2.7630   -0.0960 c3        1 MMY     -0.016100
     10 C10         0.4700    1.2780   -0.0940 ca        1 MMY     -0.408900
     11 C11        -0.8890    0.7780   -0.1790 ca        1 MMY      0.710200
     12 N12        -1.1920   -0.5360   -0.1900 nb        1 MMY     -0.779000
     13 C13        -0.0960   -1.3990   -0.0840 ca        1 MMY      0.897900
     14 N14        -0.3820   -2.7880    0.0420 nh        1 MMY     -0.719300
     15 C15         0.7140   -3.7080   -0.2370 c3        1 MMY      0.161800
     16 C16         0.3530   -5.1690    0.0590 c3        1 MMY      0.118400
     17 O17        -0.8710   -5.5510   -0.5560 os        1 MMY     -0.410600
     18 C18        -1.9450   -4.7190   -0.1410 c3        1 MMY      0.118400
     19 C19        -1.6790   -3.2390   -0.4450 c3        1 MMY      0.161800
     20 N20         1.2240   -1.0030   -0.0140 nb        1 MMY     -0.776000
     21 C21         1.4930    0.3340   -0.0150 cp        1 MMY      0.588800
     22 C22         2.8970    0.7380    0.0790 cp        1 MMY     -0.457100
     23 C23         3.7850    0.1250    0.9940 ca        1 MMY      0.500700
     24 N24         5.0710    0.4690    1.1140 nb        1 MMY     -0.758500
     25 C25         5.5220    1.4890    0.2730 ca        1 MMY      0.884900
     26 N26         6.8260    1.9340    0.4340 nh        1 MMY     -0.936500
     27 N29         4.7310    2.1210   -0.6890 nb        1 MMY     -0.758500
     28 C30         3.4530    1.7320   -0.7550 ca        1 MMY      0.500700
     29 H1         -3.3960   -0.2260    0.6370 ha        1 MMY      0.167000
     30 H2         -5.8590   -0.0530    0.8560 ha        1 MMY      0.143000
     31 H3         -7.0200    2.1170    0.2590 h4        1 MMY      0.024100
     32 H5         -3.4390    3.9350   -0.7620 h4        1 MMY      0.022100
     33 H8         -1.2320    3.6970   -1.1710 h1        1 MMY      0.058200
     34 H8A        -1.3950    3.7230    0.6500 h1        1 MMY      0.058200
     35 H9          1.0300    3.1890   -0.9580 hc        1 MMY      0.063200
     36 H9A         0.8860    3.1820    0.8490 hc        1 MMY      0.063200
     37 H15         1.0330   -3.6250   -1.3160 h1        1 MMY      0.063200
     38 H15A        1.5930   -3.4400    0.4140 h1        1 MMY      0.063200
     39 H16         1.1220   -5.8460   -0.3970 h1        1 MMY      0.057700
     40 H16A        0.2900   -5.3460    1.1650 h1        1 MMY      0.057700
     41 H18        -2.8250   -5.0730   -0.7390 h1        1 MMY      0.057700
     42 H18A       -2.1370   -4.8700    0.9550 h1        1 MMY      0.057700
     43 H19        -2.4900   -2.6420    0.0600 h1        1 MMY      0.063200
     44 H19A       -1.7600   -3.0780   -1.5580 h1        1 MMY      0.063200
     45 H23         3.4410   -0.6880    1.6630 h4        1 MMY      0.036100
     46 HN26        7.4470    1.3760    0.9700 hn        1 MMY      0.439300
     47 HN2A        7.2130    2.5140   -0.2710 hn        1 MMY      0.439300
     48 H30         2.8430    2.2340   -1.5300 h4        1 MMY      0.036100
@<TRIPOS>BOND
     1    1    2 ar  
     2    1    6 ar  
     3    1   29 1   
     4    2    3 ar  
     5    2   30 1   
     6    3    4 ar  
     7    3   31 1   
     8    4    5 ar  
     9    5    6 ar  
    10    5   32 1   
    11    6    7 1   
    12    7    8 1   
    13    7   11 1   
    14    8    9 1   
    15    8   33 1   
    16    8   34 1   
    17    9   10 1   
    18    9   35 1   
    19    9   36 1   
    20   10   11 ar  
    21   10   21 ar  
    22   11   12 ar  
    23   12   13 ar  
    24   13   14 1   
    25   13   20 ar  
    26   14   15 1   
    27   14   19 1   
    28   15   16 1   
    29   15   37 1   
    30   15   38 1   
    31   16   17 1   
    32   16   39 1   
    33   16   40 1   
    34   17   18 1   
    35   18   19 1   
    36   18   41 1   
    37   18   42 1   
    38   19   43 1   
    39   19   44 1   
    40   20   21 ar  
    41   21   22 1   
    42   22   23 ar  
    43   22   28 ar  
    44   23   24 ar  
    45   23   45 1   
    46   24   25 ar  
    47   25   26 1   
    48   25   27 ar  
    49   26   46 1   
    50   26   47 1   
    51   27   28 ar  
    52   28   48 1   
@<TRIPOS>SUBSTRUCTURE
     1 MMY         1 TEMP              0 ****  ****    0 ROOT
