@<TRIPOS>MOLECULE
MMY
   49    53     1     0     0
SMALL
bcc


@<TRIPOS>ATOM
      1 C1          0.1550    0.4910    0.1430 ca        1 MMY     -0.089000
      2 C2          1.5310    0.2720    0.1740 ca        1 MMY     -0.227300
      3 C3          2.0830   -0.4700    1.2320 ca        1 MMY      0.393200
      4 N4          1.3420   -0.9860    2.2310 nb        1 MMY     -0.641000
      5 C5          0.0160   -0.7830    2.2030 ca        1 MMY      0.374200
      6 C6         -0.6450   -0.0480    1.1760 ca        1 MMY      0.023300
      7 N7         -2.0340    0.1620    1.2130 nh        1 MMY     -0.645700
      8 C8         -2.7830    0.2450    2.4670 c3        1 MMY      0.215800
      9 C9         -4.2930    0.2570    2.0960 c3        1 MMY     -0.024100
     10 C10        -4.2950    0.0790    0.6210 ca        1 MMY     -0.400900
     11 C11        -2.9140    0.0100    0.1410 ca        1 MMY      0.729200
     12 N12        -2.5890   -0.1570   -1.1550 nb        1 MMY     -0.765000
     13 C13        -3.6710   -0.2150   -2.0450 ca        1 MMY      0.926900
     14 N14        -3.3700   -0.2620   -3.4210 nh        1 MMY     -0.719300
     15 C15        -4.4280   -0.6750   -4.3330 c3        1 MMY      0.166300
     16 C16        -4.0480   -0.5080   -5.8100 c3        1 MMY      0.116400
     17 O17        -2.7810   -1.0800   -6.0980 os        1 MMY     -0.399600
     18 C18        -1.7550   -0.4900   -5.3110 c3        1 MMY      0.116400
     19 C19        -2.0220   -0.6540   -3.8090 c3        1 MMY      0.166300
     20 N20        -5.0050   -0.1570   -1.6710 nb        1 MMY     -0.799000
     21 C21        -5.2840   -0.0070   -0.3460 cp        1 MMY      0.522800
     22 C22        -6.7100    0.0610    0.0070 cp        1 MMY     -0.270100
     23 C23        -7.6140    0.8410   -0.7600 ca        1 MMY      0.469200
     24 N24        -8.9270    0.9140   -0.4760 nb        1 MMY     -0.659000
     25 C25        -9.3340    0.1730    0.6070 ca        1 MMY      0.666900
     26 N26       -10.7890    0.2320    0.9330 n4        1 MMY     -0.811300
     27 N29        -8.5600   -0.6170    1.4150 nb        1 MMY     -0.659000
     28 C30        -7.2510   -0.6610    1.0950 ca        1 MMY      0.469200
     29 H1         -0.2890    1.0720   -0.6790 ha        1 MMY      0.158000
     30 H2          2.1780    0.6780   -0.6160 ha        1 MMY      0.154000
     31 H3          3.1700   -0.6640    1.2900 h4        1 MMY      0.036100
     32 H5         -0.5420   -1.2290    3.0460 h4        1 MMY      0.023100
     33 H8         -2.5530   -0.6350    3.1270 h1        1 MMY      0.068200
     34 H8A        -2.4900    1.1880    3.0010 h1        1 MMY      0.068200
     35 H9         -4.8230   -0.5720    2.6250 hc        1 MMY      0.059200
     36 H9A        -4.7600    1.2280    2.3980 hc        1 MMY      0.059200
     37 H15        -5.3430   -0.0450   -4.1510 h1        1 MMY      0.064950
     38 H15A       -4.6960   -1.7550   -4.1460 h1        1 MMY      0.064950
     39 H16        -4.7700   -1.0810   -6.4500 h1        1 MMY      0.065450
     40 H16A       -4.0510    0.5760   -6.0990 h1        1 MMY      0.065450
     41 H18        -0.8250   -1.0510   -5.5910 h1        1 MMY      0.065450
     42 H18A       -1.6480    0.5950   -5.5790 h1        1 MMY      0.065450
     43 H19        -1.2760   -0.0080   -3.2640 h1        1 MMY      0.064950
     44 H19A       -1.8380   -1.7300   -3.5220 h1        1 MMY      0.064950
     45 H23        -7.2750    1.4250   -1.6430 h4        1 MMY      0.083600
     46 HN26      -11.3240   -0.1400    0.1380 hn        1 MMY      0.480133
     47 HN2A      -10.9850   -0.3270    1.7740 hn        1 MMY      0.480133
     48 H30        -6.6230   -1.3120    1.7370 h4        1 MMY      0.083600
     49 H263      -11.0580    1.2100    1.0960 hn        1 MMY      0.480133
@<TRIPOS>BOND
     1    1    2 ar  
     2    1    6 ar  
     3    1   29 1   
     4    2    3 ar  
     5    2   30 1   
     6    3    4 ar  
     7    3   31 1   
     8    4    5 ar  
     9    5    6 ar  
    10    5   32 1   
    11    6    7 1   
    12    7    8 1   
    13    7   11 1   
    14    8    9 1   
    15    8   33 1   
    16    8   34 1   
    17    9   10 1   
    18    9   35 1   
    19    9   36 1   
    20   10   11 ar  
    21   10   21 ar  
    22   11   12 ar  
    23   12   13 ar  
    24   13   14 1   
    25   13   20 ar  
    26   14   15 1   
    27   14   19 1   
    28   15   16 1   
    29   15   37 1   
    30   15   38 1   
    31   16   17 1   
    32   16   39 1   
    33   16   40 1   
    34   17   18 1   
    35   18   19 1   
    36   18   41 1   
    37   18   42 1   
    38   19   43 1   
    39   19   44 1   
    40   20   21 ar  
    41   21   22 1   
    42   22   23 ar  
    43   22   28 ar  
    44   23   24 ar  
    45   23   45 1   
    46   24   25 ar  
    47   25   26 1   
    48   25   27 ar  
    49   26   46 1   
    50   26   47 1   
    51   26   49 1   
    52   27   28 ar  
    53   28   48 1   
@<TRIPOS>SUBSTRUCTURE
     1 MMY         1 TEMP              0 ****  ****    0 ROOT
