@<TRIPOS>MOLECULE
MMZ
   13    13     1     0     0
SMALL
bcc


@<TRIPOS>ATOM
      1 N1          0.5070   -1.4430    0.0530 n         1 MMZ     -0.397100
      2 C1A         1.8490   -1.0510   -0.0640 cc        1 MMZ     -0.124400
      3 C2         -0.3220   -0.3100    0.0930 c         1 MMZ      0.494400
      4 S2         -1.9110   -0.2980    0.2200 s         1 MMZ     -0.559400
      5 N3          0.5500    0.7940   -0.0030 n         1 MMZ     -0.300000
      6 C3A         1.8770    0.3360   -0.0990 cd        1 MMZ     -0.122400
      7 C4          0.1430    2.1610   -0.0030 c3        1 MMZ      0.078300
      8 HN1         0.1680   -2.3700    0.1020 hn        1 MMZ      0.364500
      9 H1A         2.6630   -1.7740   -0.1120 h4        1 MMZ      0.185000
     10 H3A         2.7180    1.0240   -0.1820 h4        1 MMZ      0.186000
     11 H41         0.4650    2.6540   -0.9590 h1        1 MMZ      0.065367
     12 H42        -0.9790    2.2080    0.0860 h1        1 MMZ      0.065367
     13 H43         0.6110    2.6970    0.8650 h1        1 MMZ      0.065367
@<TRIPOS>BOND
     1    1    2 1   
     2    1    3 1   
     3    1    8 1   
     4    2    6 2   
     5    2    9 1   
     6    3    4 2   
     7    3    5 1   
     8    5    6 1   
     9    5    7 1   
    10    6   10 1   
    11    7   11 1   
    12    7   12 1   
    13    7   13 1   
@<TRIPOS>SUBSTRUCTURE
     1 MMZ         1 TEMP              0 ****  ****    0 ROOT
