@<TRIPOS>MOLECULE
MMZ
   13    13     1     0     0
SMALL
bcc


@<TRIPOS>ATOM
      1 N1          0.0000    0.1030   -0.0240 n         1 MMZ     -0.397100
      2 C1A         1.3870   -0.1110   -0.0330 cc        1 MMZ     -0.124400
      3 C2         -0.4660    0.1710    1.3000 c         1 MMZ      0.494400
      4 S2         -1.9720    0.4030    1.7680 s         1 MMZ     -0.559400
      5 N3          0.6770   -0.0080    2.1070 n         1 MMZ     -0.300000
      6 C3A         1.8080   -0.1810    1.2870 cd        1 MMZ     -0.122400
      7 C4          0.6780   -0.0130    3.5330 c3        1 MMZ      0.078300
      8 HN1        -0.5850    0.1970   -0.8140 hn        1 MMZ      0.364500
      9 H1A         1.9540   -0.1960   -0.9590 h4        1 MMZ      0.185000
     10 H3A         2.8010   -0.3360    1.7040 h4        1 MMZ      0.186000
     11 H41         1.3400    0.8090    3.9160 h1        1 MMZ      0.065367
     12 H42        -0.3740    0.1480    3.9010 h1        1 MMZ      0.065367
     13 H43         1.0600   -1.0000    3.9100 h1        1 MMZ      0.065367
@<TRIPOS>BOND
     1    1    2 1   
     2    1    3 1   
     3    1    8 1   
     4    2    6 2   
     5    2    9 1   
     6    3    4 2   
     7    3    5 1   
     8    5    6 1   
     9    5    7 1   
    10    6   10 1   
    11    7   11 1   
    12    7   12 1   
    13    7   13 1   
@<TRIPOS>SUBSTRUCTURE
     1 MMZ         1 TEMP              0 ****  ****    0 ROOT
