@<TRIPOS>MOLECULE
MMZ
   13    13     1     0     0
SMALL
bcc


@<TRIPOS>ATOM
      1 N1         -0.0060    0.0820   -0.0220 ns        1 MMZ     -0.397100
      2 C1A         1.3880   -0.0700   -0.0350 cc        1 MMZ     -0.124400
      3 C2         -0.4730    0.1230    1.3020 c         1 MMZ      0.494400
      4 S2         -1.9870    0.2850    1.7730 s         1 MMZ     -0.559400
      5 N3          0.6780   -0.0090    2.1070 n         1 MMZ     -0.300000
      6 C3A         1.8140   -0.1270    1.2850 cd        1 MMZ     -0.122400
      7 C4          0.6820   -0.0200    3.5330 c3        1 MMZ      0.078300
      8 HN1        -0.5970    0.1520   -0.8110 hn        1 MMZ      0.364500
      9 H1A         1.9580   -0.1260   -0.9620 h4        1 MMZ      0.185000
     10 H3A         2.8140   -0.2390    1.7000 h4        1 MMZ      0.186000
     11 H41         1.3080    0.8290    3.9190 h1        1 MMZ      0.065367
     12 H42        -0.3760    0.0950    3.9030 h1        1 MMZ      0.065367
     13 H43         1.1070   -0.9900    3.9050 h1        1 MMZ      0.065367
@<TRIPOS>BOND
     1    1    2 1   
     2    1    3 1   
     3    1    8 1   
     4    2    6 2   
     5    2    9 1   
     6    3    4 2   
     7    3    5 1   
     8    5    6 1   
     9    5    7 1   
    10    6   10 1   
    11    7   11 1   
    12    7   12 1   
    13    7   13 1   
@<TRIPOS>SUBSTRUCTURE
     1 MMZ         1 TEMP              0 ****  ****    0 ROOT
