@<TRIPOS>MOLECULE
MN0
   43    42     1     0     0
SMALL
bcc


@<TRIPOS>ATOM
      1 C1          3.4500    0.5470    0.6300 c1        1 MN0      0.351000
      2 C2          1.9260    0.5470    0.6300 c2        1 MN0      0.117000
      3 O2          1.6430    0.5470    2.0550 os        1 MN0     -0.314000
      4 C3          1.4160    1.7020    0.0100 c3        1 MN0     -0.207000
      5 C4          0.0080    1.7410   -0.1210 c3        1 MN0      0.033000
      6 O4         -0.5930    1.8720    1.2520 oh        1 MN0     -0.346000
      7 C5         -0.5690    0.5450   -0.7710 c3        1 MN0     -0.022000
      8 N5         -0.1220    0.5210   -2.1790 n         1 MN0     -0.357000
      9 C6         -0.1890   -0.7790   -0.1260 c3        1 MN0     -0.009000
     10 O6          1.3750   -0.6990   -0.0390 os        1 MN0     -0.308000
     11 C7         -0.7530   -0.8920    1.1480 c3        1 MN0      0.012000
     12 O7          0.2160   -1.4730    2.0540 oh        1 MN0     -0.335000
     13 C8         -2.0070   -1.8050    1.0790 c3        1 MN0      0.007000
     14 O8         -3.0830   -1.1590    1.6730 oh        1 MN0     -0.324000
     15 C9         -1.7320   -3.0930    1.8050 c3        1 MN0     -0.073000
     16 O9         -2.8010   -3.9920    1.5920 oh        1 MN0     -0.350000
     17 C10        -1.0000    0.9880   -3.2200 c2        1 MN0      0.266000
     18 O10        -2.1090    1.4030   -2.9400 o         1 MN0     -0.429000
     19 C11        -0.5570    0.9210   -4.6770 c3        1 MN0     -0.037000
     20 O11        -1.5680    1.4630   -5.5020 oh        1 MN0     -0.339000
     21 C12         2.7240    1.0030    2.8580 c3        1 MN0     -0.050000
     22 O1B         4.0790   -0.5400    0.7320 o         1 MN0     -0.546000
     23 O1A         4.0790    1.6240    0.4460 o         1 MN0     -0.546000
     24 H3          1.8090    1.7700   -0.8810 hc        1 MN0      0.118000
     25 H3A         1.6980    2.4790    0.5300 hc        1 MN0      0.118000
     26 H4         -0.2350    2.5280   -0.6440 h1        1 MN0      0.108000
     27 HO4        -0.9580    2.6770    1.3400 ho        1 MN0      0.229000
     28 H5         -1.5420    0.6260   -0.7560 h1        1 MN0      0.133000
     29 HN5         0.6900    0.1660   -2.3940 hn        1 MN0      0.295000
     30 H6         -0.4630   -1.5260   -0.6910 h1        1 MN0      0.106000
     31 H7         -1.0110   -0.0070    1.4700 h1        1 MN0      0.135000
     32 HO7        -0.0370   -1.3270    2.8920 ho        1 MN0      0.230000
     33 H8         -2.2190   -1.9960    0.1450 h1        1 MN0      0.086000
     34 HO8        -3.8340   -1.4030    1.2690 ho        1 MN0      0.204000
     35 H9         -1.6420   -2.9160    2.7610 h1        1 MN0      0.094500
     36 H9A        -0.9040   -3.4870    1.4680 h1        1 MN0      0.094500
     37 HO9        -2.6530   -4.7410    2.0440 ho        1 MN0      0.201000
     38 H11        -0.3990   -0.0090   -4.9270 h1        1 MN0      0.110000
     39 H12         3.0610    1.8470    2.5010 h1        1 MN0      0.070333
     40 H12A        3.4390    0.3380    2.8500 h1        1 MN0      0.070333
     41 H12B        2.4150    1.1380    3.7740 h1        1 MN0      0.070333
     42 H19         0.2650    1.4330   -4.7910 h1        1 MN0      0.110000
     43 H20        -1.3140    1.4160   -6.3510 ho        1 MN0      0.223000
@<TRIPOS>BOND
     1    1   22 1   
     2    1   23 1   
     3    2    3 1   
     4    2    4 1   
     5    2   10 1   
     6    3   21 1   
     7    4    5 1   
     8    4   24 1   
     9    4   25 1   
    10    5    6 1   
    11    5    7 1   
    12    5   26 1   
    13    6   27 1   
    14    7    8 1   
    15    7    9 1   
    16    7   28 1   
    17    8   17 1   
    18    8   29 1   
    19    9   10 1   
    20    9   11 1   
    21    9   30 1   
    22   11   12 1   
    23   11   13 1   
    24   11   31 1   
    25   12   32 1   
    26   13   14 1   
    27   13   15 1   
    28   13   33 1   
    29   14   34 1   
    30   15   16 1   
    31   15   35 1   
    32   15   36 1   
    33   16   37 1   
    34   17   18 1   
    35   17   19 1   
    36   19   20 1   
    37   19   38 1   
    38   19   42 1   
    39   20   43 1   
    40   21   39 1   
    41   21   40 1   
    42   21   41 1   
@<TRIPOS>SUBSTRUCTURE
     1 MN0         1 TEMP              0 ****  ****    0 ROOT
