@<TRIPOS>MOLECULE
MN0
   43    43     1     0     0
SMALL
bcc


@<TRIPOS>ATOM
      1 C1         -2.2110   -2.1210   -0.9300 c         1 MN0      0.933600
      2 C2         -1.5600   -1.9590    0.5020 c3        1 MN0      0.213600
      3 O2         -2.4950   -2.4260    1.4430 os        1 MN0     -0.379600
      4 C3         -0.1950   -2.6510    0.5670 c3        1 MN0     -0.155400
      5 C4          0.8090   -1.8940   -0.2920 c3        1 MN0      0.128100
      6 O4          2.1100   -2.4600   -0.1700 oh        1 MN0     -0.610800
      7 C5          0.8910   -0.4120    0.1740 c3        1 MN0      0.074700
      8 N5          1.8320    0.3620   -0.5970 n         1 MN0     -0.534900
      9 C6         -0.5550    0.1580    0.0570 c3        1 MN0      0.109100
     10 O6         -1.4020   -0.5900    0.9190 os        1 MN0     -0.453600
     11 C7         -0.6760    1.6220    0.5160 c3        1 MN0      0.129100
     12 O7         -1.7740    1.8230    1.3910 oh        1 MN0     -0.621800
     13 C8         -0.8450    2.5760   -0.6890 c3        1 MN0      0.064100
     14 O8          0.3430    2.6550   -1.4600 oh        1 MN0     -0.599800
     15 C9         -1.2400    3.9830   -0.2180 c3        1 MN0      0.115400
     16 O9         -2.6310    4.1130   -0.0350 oh        1 MN0     -0.607800
     17 C10         3.0000    0.8640   -0.0970 c         1 MN0      0.626100
     18 O10         3.3520    0.7590    1.1000 o         1 MN0     -0.636100
     19 C11         3.9200    1.6010   -1.0720 c3        1 MN0      0.057400
     20 O11         4.8620    2.3970   -0.3860 oh        1 MN0     -0.607800
     21 C12        -2.0670   -2.4530    2.7950 c3        1 MN0      0.115700
     22 O1B        -2.7460   -1.1040   -1.4370 o         1 MN0     -0.804800
     23 O1A        -2.0820   -3.2480   -1.4690 o         1 MN0     -0.804800
     24 H3          0.1800   -2.7020    1.6200 hc        1 MN0      0.062700
     25 H3A        -0.3250   -3.6920    0.1720 hc        1 MN0      0.062700
     26 H4          0.4850   -1.9410   -1.3720 h1        1 MN0      0.063700
     27 HO4         2.0050   -3.4060   -0.3270 ho        1 MN0      0.399000
     28 H5          1.2160   -0.4000    1.2550 h1        1 MN0      0.098700
     29 HN5         1.5910    0.5400   -1.5460 hn        1 MN0      0.325500
     30 H6         -0.9190    0.0590   -1.0080 h1        1 MN0      0.105700
     31 H7          0.2280    1.9250    1.1160 h1        1 MN0      0.061700
     32 HO7        -2.4600    1.1720    1.1750 ho        1 MN0      0.445000
     33 H8         -1.6220    2.1720   -1.3980 h1        1 MN0      0.113700
     34 HO8         1.0320    3.0030   -0.8810 ho        1 MN0      0.391000
     35 H9         -0.6980    4.2340    0.7330 h1        1 MN0      0.039700
     36 H9A        -0.9810    4.7340   -1.0120 h1        1 MN0      0.039700
     37 HO9        -2.8980    3.4550    0.6220 ho        1 MN0      0.422000
     38 H11         4.4600    0.8440   -1.7030 h1        1 MN0      0.061200
     39 H12        -3.0150   -2.5350    3.3830 h1        1 MN0      0.022700
     40 H12A       -1.4270   -3.3530    2.9750 h1        1 MN0      0.022700
     41 H12B       -1.5130   -1.5260    3.0760 h1        1 MN0      0.022700
     42 H19         3.3480    2.3100   -1.7290 h1        1 MN0      0.061200
     43 H20         5.0550    1.9670    0.4620 ho        1 MN0      0.429000
@<TRIPOS>BOND
     1    1    2 1   
     2    1   22 1   
     3    1   23 1   
     4    2    3 1   
     5    2    4 1   
     6    2   10 1   
     7    3   21 1   
     8    4    5 1   
     9    4   24 1   
    10    4   25 1   
    11    5    6 1   
    12    5    7 1   
    13    5   26 1   
    14    6   27 1   
    15    7    8 1   
    16    7    9 1   
    17    7   28 1   
    18    8   17 1   
    19    8   29 1   
    20    9   10 1   
    21    9   11 1   
    22    9   30 1   
    23   11   12 1   
    24   11   13 1   
    25   11   31 1   
    26   12   32 1   
    27   13   14 1   
    28   13   15 1   
    29   13   33 1   
    30   14   34 1   
    31   15   16 1   
    32   15   35 1   
    33   15   36 1   
    34   16   37 1   
    35   17   18 2   
    36   17   19 1   
    37   19   20 1   
    38   19   38 1   
    39   19   42 1   
    40   20   43 1   
    41   21   39 1   
    42   21   40 1   
    43   21   41 1   
@<TRIPOS>SUBSTRUCTURE
     1 MN0         1 TEMP              0 ****  ****    0 ROOT
