@<TRIPOS>MOLECULE
MN1
   19    19     1     0     0
SMALL
bcc


@<TRIPOS>ATOM
      1 N1          0.0100    0.1570   -0.1350 n3        1 MN1     -0.817200
      2 C2          1.4280   -0.1130    0.0220 c3        1 MN1      0.161800
      3 C3          1.9210   -0.0630    1.4670 c3        1 MN1     -0.055900
      4 C4          1.5010    1.2260    2.1420 c3        1 MN1     -0.184700
      5 C           1.9810    1.2870    3.6110 c         1 MN1      0.915600
      6 O1          2.9600    0.5640    3.9520 o         1 MN1     -0.847300
      7 O2          1.3870    2.0840    4.3920 o         1 MN1     -0.847300
      8 C5         -0.0040    1.3750    2.0500 c3        1 MN1     -0.055900
      9 C6         -0.4730    1.3130    0.5980 c3        1 MN1      0.161800
     10 HN1        -0.1920    0.2820   -1.1110 hn        1 MN1      0.328800
     11 H21         2.0550    0.6070   -0.5860 h1        1 MN1      0.002450
     12 H22         1.6090   -1.1430   -0.3970 h1        1 MN1      0.002450
     13 H31         3.0370   -0.1480    1.4800 hc        1 MN1      0.051450
     14 H32         1.5130   -0.9320    2.0440 hc        1 MN1      0.051450
     15 H4          1.9870    2.0920    1.6150 hc        1 MN1      0.025700
     16 H51        -0.3110    2.3550    2.4980 hc        1 MN1      0.051450
     17 H52        -0.4950    0.5630    2.6460 hc        1 MN1      0.051450
     18 H61        -0.1720    2.2790    0.0910 h1        1 MN1      0.002450
     19 H62        -1.5990    1.2650    0.5730 h1        1 MN1      0.002450
@<TRIPOS>BOND
     1    1    2 1   
     2    1    9 1   
     3    1   10 1   
     4    2    3 1   
     5    2   11 1   
     6    2   12 1   
     7    3    4 1   
     8    3   13 1   
     9    3   14 1   
    10    4    5 1   
    11    4    8 1   
    12    4   15 1   
    13    5    6 1   
    14    5    7 1   
    15    8    9 1   
    16    8   16 1   
    17    8   17 1   
    18    9   18 1   
    19    9   19 1   
@<TRIPOS>SUBSTRUCTURE
     1 MN1         1 TEMP              0 ****  ****    0 ROOT
