@<TRIPOS>MOLECULE
MN1
   19    19     1     0     0
SMALL
bcc


@<TRIPOS>ATOM
      1 N1         -0.9560   -0.6540   -1.5280 n3        1 MN1     -0.814200
      2 C2          0.4880   -0.6540   -1.5280 c3        1 MN1      0.163800
      3 C3          1.0780   -0.6540   -0.1340 c3        1 MN1     -0.059400
      4 C4          0.5290    0.4550    0.7410 c3        1 MN1     -0.186700
      5 C           1.0960    0.3660    2.1970 c         1 MN1      0.914600
      6 O1          1.8090    1.2990    2.6540 o         1 MN1     -0.844800
      7 O2          0.8290   -0.6320    2.9170 o         1 MN1     -0.844800
      8 C5         -0.9850    0.4060    0.6990 c3        1 MN1     -0.059400
      9 C6         -1.5360    0.3860   -0.7110 c3        1 MN1      0.163800
     10 HN1        -1.2600   -0.5740   -2.3840 hn        1 MN1      0.328800
     11 H21         0.8020   -1.4480   -2.0010 h1        1 MN1      0.002200
     12 H22         0.8020    0.1390   -2.0010 h1        1 MN1      0.002200
     13 H31         2.0460   -0.5490   -0.2030 hc        1 MN1      0.049200
     14 H32         0.8850   -1.5120    0.2890 hc        1 MN1      0.049200
     15 H4          0.8580    1.3310    0.4610 hc        1 MN1      0.031700
     16 H51        -1.3370    1.1900    1.1620 hc        1 MN1      0.049200
     17 H52        -1.2860   -0.3970    1.1650 hc        1 MN1      0.049200
     18 H61        -2.5020    0.2500   -0.6680 h1        1 MN1      0.002200
     19 H62        -1.3590    1.2500   -1.1300 h1        1 MN1      0.002200
@<TRIPOS>BOND
     1    1    2 1   
     2    1    9 1   
     3    1   10 1   
     4    2    3 1   
     5    2   11 1   
     6    2   12 1   
     7    3    4 1   
     8    3   13 1   
     9    3   14 1   
    10    4    5 1   
    11    4    8 1   
    12    4   15 1   
    13    5    6 1   
    14    5    7 1   
    15    8    9 1   
    16    8   16 1   
    17    8   17 1   
    18    9   18 1   
    19    9   19 1   
@<TRIPOS>SUBSTRUCTURE
     1 MN1         1 TEMP              0 ****  ****    0 ROOT
