@<TRIPOS>MOLECULE
MN1
   19    19     1     0     0
SMALL
bcc


@<TRIPOS>ATOM
      1 N1          0.0410    0.1650   -0.1480 n3        1 MN1     -0.817200
      2 C2          1.4630   -0.0770    0.0210 c3        1 MN1      0.161800
      3 C3          1.9370   -0.0420    1.4730 c3        1 MN1     -0.056400
      4 C4          1.4840    1.2290    2.1630 c3        1 MN1     -0.184700
      5 C           1.9540    1.2730    3.6360 c         1 MN1      0.915600
      6 O1          3.0270    0.6760    3.9350 o         1 MN1     -0.847300
      7 O2          1.2600    1.9330    4.4610 o         1 MN1     -0.847300
      8 C5         -0.0220    1.3490    2.0560 c3        1 MN1     -0.056400
      9 C6         -0.4750    1.2990    0.5980 c3        1 MN1      0.161800
     10 HN1        -0.1520    0.3020   -1.1240 hn        1 MN1      0.328800
     11 H21         1.6710   -1.0960   -0.4120 h1        1 MN1      0.002700
     12 H22         2.0810    0.6670   -0.5670 h1        1 MN1      0.002700
     13 H31         3.0540   -0.1040    1.5000 hc        1 MN1      0.051200
     14 H32         1.5370   -0.9280    2.0290 hc        1 MN1      0.051200
     15 H4          1.9590    2.1120    1.6530 hc        1 MN1      0.025700
     16 H51        -0.5020    0.5200    2.6360 hc        1 MN1      0.051200
     17 H52        -0.3550    2.3160    2.5140 hc        1 MN1      0.051200
     18 H61        -1.5990    1.2260    0.5610 h1        1 MN1      0.002700
     19 H62        -0.1900    2.2790    0.1090 h1        1 MN1      0.002700
@<TRIPOS>BOND
     1    1    2 1   
     2    1    9 1   
     3    1   10 1   
     4    2    3 1   
     5    2   11 1   
     6    2   12 1   
     7    3    4 1   
     8    3   13 1   
     9    3   14 1   
    10    4    5 1   
    11    4    8 1   
    12    4   15 1   
    13    5    6 1   
    14    5    7 1   
    15    8    9 1   
    16    8   16 1   
    17    8   17 1   
    18    9   18 1   
    19    9   19 1   
@<TRIPOS>SUBSTRUCTURE
     1 MN1         1 TEMP              0 ****  ****    0 ROOT
