@<TRIPOS>MOLECULE
MN1
   19    19     1     0     0
SMALL
bcc


@<TRIPOS>ATOM
      1 N1          0.0730    0.2220   -2.5830 n3        1 MN1     -0.817200
      2 C2         -1.1210   -0.3160   -1.9560 c3        1 MN1      0.161800
      3 C3         -1.2400   -0.0080   -0.4640 c3        1 MN1     -0.056400
      4 C4          0.0240   -0.4000    0.2740 c3        1 MN1     -0.184700
      5 C          -0.0810   -0.0880    1.7860 c         1 MN1      0.915600
      6 O1         -1.2280   -0.1000    2.3170 o         1 MN1     -0.847300
      7 O2          0.9900    0.1300    2.4220 o         1 MN1     -0.847300
      8 C5          1.2110    0.2980   -0.3560 c3        1 MN1     -0.056400
      9 C6          1.3030   -0.0130   -1.8480 c3        1 MN1      0.161800
     10 HN1         0.1630   -0.1700   -3.5030 hn        1 MN1      0.328800
     11 H21        -1.1880   -1.4380   -2.0880 h1        1 MN1      0.002700
     12 H22        -2.0020    0.1340   -2.4980 h1        1 MN1      0.002700
     13 H31        -2.1110   -0.5680   -0.0390 hc        1 MN1      0.051200
     14 H32        -1.4340    1.0840   -0.3110 hc        1 MN1      0.051200
     15 H4          0.1670   -1.5130    0.1910 hc        1 MN1      0.025700
     16 H51         1.1170    1.4030   -0.1990 hc        1 MN1      0.051200
     17 H52         2.1530   -0.0340    0.1510 hc        1 MN1      0.051200
     18 H61         1.6530   -1.0830   -1.9610 h1        1 MN1      0.002700
     19 H62         2.0900    0.6440   -2.3170 h1        1 MN1      0.002700
@<TRIPOS>BOND
     1    1    2 1   
     2    1    9 1   
     3    1   10 1   
     4    2    3 1   
     5    2   11 1   
     6    2   12 1   
     7    3    4 1   
     8    3   13 1   
     9    3   14 1   
    10    4    5 1   
    11    4    8 1   
    12    4   15 1   
    13    5    6 1   
    14    5    7 1   
    15    8    9 1   
    16    8   16 1   
    17    8   17 1   
    18    9   18 1   
    19    9   19 1   
@<TRIPOS>SUBSTRUCTURE
     1 MN1         1 TEMP              0 ****  ****    0 ROOT
