@<TRIPOS>MOLECULE
MN1
   19    19     1     0     0
SMALL
bcc


@<TRIPOS>ATOM
      1 N1          0.0150    0.1620   -0.1400 n7        1 MN1     -0.817200
      2 C2          1.4300   -0.1160    0.0250 c3        1 MN1      0.161800
      3 C3          1.9150   -0.0690    1.4730 c3        1 MN1     -0.055900
      4 C4          1.4990    1.2230    2.1450 c3        1 MN1     -0.184700
      5 C           1.9730    1.2810    3.6160 c         1 MN1      0.915600
      6 O1          2.9730    0.5840    3.9490 o         1 MN1     -0.847800
      7 O2          1.3560    2.0520    4.4060 o         1 MN1     -0.847800
      8 C5         -0.0040    1.3810    2.0450 c3        1 MN1     -0.055900
      9 C6         -0.4660    1.3210    0.5900 c3        1 MN1      0.161800
     10 HN1        -0.1810    0.2880   -1.1170 hn        1 MN1      0.328800
     11 H21         1.6080   -1.1470   -0.3930 h1        1 MN1      0.002450
     12 H22         2.0640    0.6010   -0.5790 h1        1 MN1      0.002450
     13 H31         1.4980   -0.9350    2.0470 hc        1 MN1      0.051200
     14 H32         3.0300   -0.1610    1.4930 hc        1 MN1      0.051200
     15 H4          1.9930    2.0860    1.6190 hc        1 MN1      0.025700
     16 H51        -0.5030    0.5730    2.6390 hc        1 MN1      0.051200
     17 H52        -0.3080    2.3630    2.4900 hc        1 MN1      0.051200
     18 H61        -1.5920    1.2780    0.5590 h1        1 MN1      0.002450
     19 H62        -0.1570    2.2850    0.0850 h1        1 MN1      0.002450
@<TRIPOS>BOND
     1    1    2 1   
     2    1    9 1   
     3    1   10 1   
     4    2    3 1   
     5    2   11 1   
     6    2   12 1   
     7    3    4 1   
     8    3   13 1   
     9    3   14 1   
    10    4    5 1   
    11    4    8 1   
    12    4   15 1   
    13    5    6 1   
    14    5    7 1   
    15    8    9 1   
    16    8   16 1   
    17    8   17 1   
    18    9   18 1   
    19    9   19 1   
@<TRIPOS>SUBSTRUCTURE
     1 MN1         1 TEMP              0 ****  ****    0 ROOT
