@<TRIPOS>MOLECULE
MN2
   31    31     1     0     0
SMALL
bcc


@<TRIPOS>ATOM
      1 C1         -0.8080    0.2090    0.3330 ca        1 MN2      0.040700
      2 C2         -1.4790    1.3700   -0.1020 ca        1 MN2     -0.133500
      3 C3         -2.8630    1.4190   -0.1170 ca        1 MN2     -0.099000
      4 C4         -3.6090    0.3070    0.3050 ca        1 MN2     -0.257300
      5 C5         -2.9490   -0.8330    0.7830 ca        1 MN2     -0.099000
      6 C6         -1.5600   -0.8800    0.8000 ca        1 MN2     -0.133500
      7 C7          0.6770    0.1870    0.1880 c3        1 MN2      0.123100
      8 N8          1.3590   -0.8460    0.9470 n3        1 MN2     -0.822200
      9 C9          2.5640   -1.3340    0.2930 c3        1 MN2      0.172800
     10 C10         3.6610   -0.3120    0.0200 c3        1 MN2     -0.234400
     11 C           3.1500    0.7940   -0.9150 c         1 MN2      0.898600
     12 O1          2.7360    0.4640   -2.0660 o         1 MN2     -0.849800
     13 O2          3.0950    1.9780   -0.4700 o         1 MN2     -0.849800
     14 C11        -5.0830    0.3360    0.2090 c3        1 MN2      0.198100
     15 N12        -5.4890   -0.0310   -1.2010 n4        1 MN2     -0.853600
     16 H2         -0.8830    2.2350   -0.4440 ha        1 MN2      0.177500
     17 H3         -3.3770    2.3320   -0.4520 ha        1 MN2      0.121500
     18 H5         -3.5300   -1.6940    1.1490 ha        1 MN2      0.121500
     19 H6         -1.0440   -1.7820    1.1710 ha        1 MN2      0.177500
     20 H71         0.8810    0.0380   -0.9270 h1        1 MN2      0.125700
     21 H72         1.0860    1.2220    0.4190 h1        1 MN2      0.125700
     22 HN8         1.5970   -0.4770    1.8510 hn        1 MN2      0.345800
     23 H91         2.9690   -2.1540    0.9500 h1        1 MN2      0.041200
     24 H92         2.2590   -1.7880   -0.6930 h1        1 MN2      0.041200
     25 H101        4.0260    0.1430    0.9740 hc        1 MN2      0.039200
     26 H102        4.5180   -0.8310   -0.4750 hc        1 MN2      0.039200
     27 H111       -5.4970    1.3640    0.4130 hx        1 MN2      0.097700
     28 H112       -5.5680   -0.4100    0.9010 hx        1 MN2      0.097700
     29 HN21       -5.1530   -0.9750   -1.4160 hn        1 MN2      0.449133
     30 HN22       -5.0430    0.6190   -1.8570 hn        1 MN2      0.449133
     31 HN23       -6.5020    0.0060   -1.3150 hn        1 MN2      0.449133
@<TRIPOS>BOND
     1    1    2 ar  
     2    1    6 ar  
     3    1    7 1   
     4    2    3 ar  
     5    2   16 1   
     6    3    4 ar  
     7    3   17 1   
     8    4    5 ar  
     9    4   14 1   
    10    5    6 ar  
    11    5   18 1   
    12    6   19 1   
    13    7    8 1   
    14    7   20 1   
    15    7   21 1   
    16    8    9 1   
    17    8   22 1   
    18    9   10 1   
    19    9   23 1   
    20    9   24 1   
    21   10   11 1   
    22   10   25 1   
    23   10   26 1   
    24   11   12 1   
    25   11   13 1   
    26   14   15 1   
    27   14   27 1   
    28   14   28 1   
    29   15   29 1   
    30   15   30 1   
    31   15   31 1   
@<TRIPOS>SUBSTRUCTURE
     1 MN2         1 TEMP              0 ****  ****    0 ROOT
