@<TRIPOS>MOLECULE
MN2
   32    32     1     0     0
SMALL
bcc


@<TRIPOS>ATOM
      1 C1          1.4100   -1.4040   -0.6680 ca        1 MN2     -0.048300
      2 C2          1.7540   -0.0490   -0.5900 ca        1 MN2     -0.112000
      3 C3          1.5880    0.6390    0.6090 ca        1 MN2     -0.092500
      4 C4          1.0840   -0.0360    1.7280 ca        1 MN2     -0.178300
      5 C5          0.9240   -1.4270    1.6980 ca        1 MN2     -0.092500
      6 C6          1.0920   -2.1110    0.4970 ca        1 MN2     -0.112000
      7 C7          1.2300   -2.0650   -2.0060 c3        1 MN2      0.204100
      8 N8         -0.1780   -2.0840   -2.3740 n3        1 MN2     -0.861200
      9 C9         -0.7420   -0.8000   -2.7390 c3        1 MN2      0.164800
     10 C10        -2.1180   -0.5500   -2.1070 c3        1 MN2     -0.175400
     11 C          -2.0570   -0.5130   -0.6140 c         1 MN2      0.685100
     12 O1         -1.9480    0.4890    0.1120 o         1 MN2     -0.615000
     13 O2         -2.1440   -1.6600    0.1120 oh        1 MN2     -0.592100
     14 C11         0.5550    0.7380    2.8840 c3        1 MN2      0.178100
     15 N12        -0.8700    1.1120    2.5860 n4        1 MN2     -0.846600
     16 H2          2.1190    0.4830   -1.4830 ha        1 MN2      0.157500
     17 H3          1.8180    1.7140    0.6630 ha        1 MN2      0.145500
     18 H5          0.6280   -1.9750    2.6070 ha        1 MN2      0.145500
     19 H6          0.9220   -3.1990    0.4530 ha        1 MN2      0.157500
     20 H71         1.5820   -3.1360   -1.9470 h1        1 MN2      0.061200
     21 H72         1.8690   -1.5360   -2.7730 h1        1 MN2      0.061200
     22 HN8        -2.1310   -2.4330   -0.4750 ho        1 MN2      0.463000
     23 H91        -0.0560    0.0360   -2.4160 h1        1 MN2      0.058200
     24 H92        -0.8780   -0.7100   -3.8560 h1        1 MN2      0.058200
     25 H101       -2.8460   -1.3410   -2.4280 hc        1 MN2      0.093200
     26 H102       -2.4930    0.4430   -2.4750 hc        1 MN2      0.093200
     27 H111        0.5620    0.1250    3.8310 hx        1 MN2      0.106700
     28 H112        1.1370    1.6880    3.0560 hx        1 MN2      0.106700
     29 HN21       -1.3260    1.5040    3.4090 hn        1 MN2      0.465467
     30 HN22       -0.9010    1.7910    1.8150 hn        1 MN2      0.465467
     31 HN23       -1.3910    0.2830    2.2510 hn        1 MN2      0.465467
     32 H82        -0.3370   -2.7640   -3.0940 hn        1 MN2      0.389800
@<TRIPOS>BOND
     1    1    2 ar  
     2    1    6 ar  
     3    1    7 1   
     4    2    3 ar  
     5    2   16 1   
     6    3    4 ar  
     7    3   17 1   
     8    4    5 ar  
     9    4   14 1   
    10    5    6 ar  
    11    5   18 1   
    12    6   19 1   
    13    7    8 1   
    14    7   20 1   
    15    7   21 1   
    16    8    9 1   
    17    8   32 1   
    18    9   10 1   
    19    9   23 1   
    20    9   24 1   
    21   10   11 1   
    22   10   25 1   
    23   10   26 1   
    24   11   12 2   
    25   11   13 1   
    26   13   22 1   
    27   14   15 1   
    28   14   27 1   
    29   14   28 1   
    30   15   29 1   
    31   15   30 1   
    32   15   31 1   
@<TRIPOS>SUBSTRUCTURE
     1 MN2         1 TEMP              0 ****  ****    0 ROOT
