@<TRIPOS>MOLECULE
MN2
   32    32     1     0     0
SMALL
bcc


@<TRIPOS>ATOM
      1 C1         -1.3600   -1.3800    0.8060 ca        1 MN2     -0.048300
      2 C2         -0.2460   -2.1720    1.1080 ca        1 MN2     -0.112000
      3 C3          0.9020   -1.5820    1.6310 ca        1 MN2     -0.092500
      4 C4          0.9240   -0.2000    1.8570 ca        1 MN2     -0.178300
      5 C5         -0.2490    0.5530    1.7360 ca        1 MN2     -0.092500
      6 C6         -1.3950   -0.0410    1.2120 ca        1 MN2     -0.112000
      7 C7         -2.4400   -1.9320   -0.0830 c3        1 MN2      0.204100
      8 N8         -2.0110   -1.9010   -1.4740 n3        1 MN2     -0.861200
      9 C9         -1.9490   -0.5840   -2.0750 c3        1 MN2      0.164800
     10 C10        -0.6740   -0.3640   -2.9010 c3        1 MN2     -0.175400
     11 C           0.5630   -0.4440   -2.0640 c         1 MN2      0.685100
     12 O1          1.1800    0.4960   -1.5380 o         1 MN2     -0.615000
     13 O2          1.1560   -1.6430   -1.8200 oh        1 MN2     -0.592100
     14 C11         2.2300    0.4890    2.0550 c3        1 MN2      0.178100
     15 N12         2.7480    0.9070    0.7080 n4        1 MN2     -0.846600
     16 H2         -0.2590   -3.2500    0.8820 ha        1 MN2      0.157500
     17 H3          1.7950   -2.1950    1.8260 ha        1 MN2      0.145500
     18 H5         -0.2610    1.6170    2.0180 ha        1 MN2      0.145500
     19 H6         -2.3130    0.5540    1.0840 ha        1 MN2      0.157500
     20 H71        -2.6380   -3.0080    0.1900 h1        1 MN2      0.061200
     21 H72        -3.3950   -1.3530    0.0870 h1        1 MN2      0.061200
     22 HN8        -2.5780   -2.5190   -2.0220 hn        1 MN2      0.389800
     23 H91        -2.8200   -0.4040   -2.7710 h1        1 MN2      0.058200
     24 H92        -1.9870    0.2140   -1.2780 h1        1 MN2      0.058200
     25 H101       -0.6100   -1.1170   -3.7310 hc        1 MN2      0.093200
     26 H102       -0.7300    0.6600   -3.3590 hc        1 MN2      0.093200
     27 H111        2.1260    1.4140    2.6900 hx        1 MN2      0.106700
     28 H112        2.9930   -0.1970    2.5230 hx        1 MN2      0.106700
     29 HN21        2.6890    0.1150    0.0430 hn        1 MN2      0.465467
     30 HN22        3.7100    1.2390    0.7720 hn        1 MN2      0.465467
     31 HN23        2.1510    1.6450    0.3140 hn        1 MN2      0.465467
     32 H82         0.6060   -2.3680   -2.1580 ho        1 MN2      0.463000
@<TRIPOS>BOND
     1    1    2 ar  
     2    1    6 ar  
     3    1    7 1   
     4    2    3 ar  
     5    2   16 1   
     6    3    4 ar  
     7    3   17 1   
     8    4    5 ar  
     9    4   14 1   
    10    5    6 ar  
    11    5   18 1   
    12    6   19 1   
    13    7    8 1   
    14    7   20 1   
    15    7   21 1   
    16    8    9 1   
    17    8   22 1   
    18    9   10 1   
    19    9   23 1   
    20    9   24 1   
    21   10   11 1   
    22   10   25 1   
    23   10   26 1   
    24   11   12 2   
    25   11   13 1   
    26   13   32 1   
    27   14   15 1   
    28   14   27 1   
    29   14   28 1   
    30   15   29 1   
    31   15   30 1   
    32   15   31 1   
@<TRIPOS>SUBSTRUCTURE
     1 MN2         1 TEMP              0 ****  ****    0 ROOT
