@<TRIPOS>MOLECULE
MN2
   32    32     1     0     0
SMALL
bcc


@<TRIPOS>ATOM
      1 C1         -1.1630   -1.5280    0.9150 ca        1 MN2     -0.048300
      2 C2          0.0680   -2.1590    1.1310 ca        1 MN2     -0.112000
      3 C3          1.1630   -1.4110    1.5540 ca        1 MN2     -0.092500
      4 C4          1.0190   -0.0340    1.7660 ca        1 MN2     -0.178300
      5 C5         -0.2520    0.5530    1.7360 ca        1 MN2     -0.092500
      6 C6         -1.3450   -0.1980    1.3120 ca        1 MN2     -0.112000
      7 C7         -2.2270   -2.2350    0.1220 c3        1 MN2      0.204100
      8 N8         -1.9200   -2.1730   -1.3000 n7        1 MN2     -0.861200
      9 C9         -2.0830   -0.8720   -1.9140 c3        1 MN2      0.164800
     10 C10        -0.9190   -0.4990   -2.8430 c3        1 MN2     -0.175400
     11 C           0.3800   -0.3980   -2.1100 c         1 MN2      0.685100
     12 O1          0.9050    0.6260   -1.6440 o         1 MN2     -0.615000
     13 O2          1.1470   -1.5020   -1.9060 oh        1 MN2     -0.592100
     14 C11         2.2310    0.8260    1.8510 c3        1 MN2      0.178100
     15 N12         2.5790    1.2840    0.4620 nz        1 MN2     -0.846600
     16 H2          0.1820   -3.2330    0.9160 ha        1 MN2      0.157500
     17 H3          2.1440   -1.8950    1.6800 ha        1 MN2      0.145500
     18 H5         -0.3840    1.6110    2.0090 ha        1 MN2      0.145500
     19 H6         -2.3420    0.2670    1.2550 ha        1 MN2      0.157500
     20 H71        -2.2560   -3.3230    0.4180 h1        1 MN2      0.061200
     21 H72        -3.2350   -1.7860    0.3650 h1        1 MN2      0.061200
     22 HN8        -2.4400   -2.8720   -1.7950 hn        1 MN2      0.389800
     23 H91        -3.0230   -0.8230   -2.5380 h1        1 MN2      0.058200
     24 H92        -2.1640   -0.0710   -1.1230 h1        1 MN2      0.058200
     25 H101       -0.8210   -1.2520   -3.6700 hc        1 MN2      0.093200
     26 H102       -1.1500    0.4990   -3.3040 hc        1 MN2      0.093200
     27 H111        2.0550    1.7410    2.4860 hx        1 MN2      0.106700
     28 H112        3.1150    0.2570    2.2600 hx        1 MN2      0.106700
     29 HN21        2.5740    0.4790   -0.1890 hn        1 MN2      0.465467
     30 HN22        3.4890    1.7420    0.4450 hn        1 MN2      0.465467
     31 HN23        1.8580    1.9280    0.1130 hn        1 MN2      0.465467
     32 H82         0.6740   -2.3000   -2.1920 ho        1 MN2      0.463000
@<TRIPOS>BOND
     1    1    2 ar  
     2    1    6 ar  
     3    1    7 1   
     4    2    3 ar  
     5    2   16 1   
     6    3    4 ar  
     7    3   17 1   
     8    4    5 ar  
     9    4   14 1   
    10    5    6 ar  
    11    5   18 1   
    12    6   19 1   
    13    7    8 1   
    14    7   20 1   
    15    7   21 1   
    16    8    9 1   
    17    8   22 1   
    18    9   10 1   
    19    9   23 1   
    20    9   24 1   
    21   10   11 1   
    22   10   25 1   
    23   10   26 1   
    24   11   12 2   
    25   11   13 1   
    26   13   32 1   
    27   14   15 1   
    28   14   27 1   
    29   14   28 1   
    30   15   29 1   
    31   15   30 1   
    32   15   31 1   
@<TRIPOS>SUBSTRUCTURE
     1 MN2         1 TEMP              0 ****  ****    0 ROOT
