@<TRIPOS>MOLECULE
MN7
   32    32     1     0     0
SMALL
bcc


@<TRIPOS>ATOM
      1 C1         -0.0140    0.0390    0.0180 ca        1 MN7     -0.069600
      2 C          -0.7840    0.2040   -1.3010 c         1 MN7      0.907200
      3 O1         -2.0360    0.2770   -1.2160 o         1 MN7     -0.792300
      4 O2         -0.0940    0.2670   -2.3510 o         1 MN7     -0.792300
      5 C2          1.3850   -0.0340    0.0120 ca        1 MN7     -0.109000
      6 C3          2.0890   -0.1260    1.2060 ca        1 MN7     -0.123500
      7 C4          1.3930   -0.1510    2.4240 ca        1 MN7     -0.249300
      8 C5         -0.0100   -0.1090    2.4340 ca        1 MN7     -0.123500
      9 C6         -0.7060   -0.0170    1.2350 ca        1 MN7     -0.109000
     10 C7          2.1390   -0.1790    3.7000 c3        1 MN7      0.201100
     11 N8          2.4110    1.2480    4.1260 n4        1 MN7     -0.773000
     12 C9          3.1750    1.3360    5.3940 c3        1 MN7      0.096800
     13 C10         3.4320    2.7770    5.8500 c3        1 MN7     -0.087700
     14 C11         4.1440    2.7280    7.1870 c3        1 MN7     -0.106600
     15 C12         4.2520    3.5430    4.8340 c3        1 MN7     -0.106600
     16 H2          1.9000   -0.0110   -0.9650 ha        1 MN7      0.179000
     17 H3          3.1870   -0.1900    1.2000 ha        1 MN7      0.111000
     18 H5         -0.5540   -0.1590    3.3880 ha        1 MN7      0.111000
     19 H6         -1.8090    0.0180    1.2050 ha        1 MN7      0.179000
     20 H71         1.5500   -0.6680    4.5250 hx        1 MN7      0.088700
     21 H72         3.1360   -0.6910    3.5960 hx        1 MN7      0.088700
     22 HN8         1.5120    1.7350    4.2210 hn        1 MN7      0.447800
     23 H91         2.5910    0.7890    6.1890 hx        1 MN7      0.096200
     24 H92         4.1580    0.8050    5.2450 hx        1 MN7      0.096200
     25 H10         2.4440    3.3010    5.9920 hc        1 MN7      0.067700
     26 H111        5.1420    2.2380    7.0870 hc        1 MN7      0.053700
     27 H112        4.2980    3.7670    7.5690 hc        1 MN7      0.053700
     28 H113        3.5390    2.1630    7.9360 hc        1 MN7      0.053700
     29 H121        3.6600    3.7630    3.9130 hc        1 MN7      0.053700
     30 H122        4.5750    4.5210    5.2700 hc        1 MN7      0.053700
     31 H123        5.1680    2.9720    4.5480 hc        1 MN7      0.053700
     32 H82         2.9300    1.7180    3.3730 hn        1 MN7      0.447800
@<TRIPOS>BOND
     1    1    2 1   
     2    1    5 ar  
     3    1    9 ar  
     4    2    3 1   
     5    2    4 1   
     6    5    6 ar  
     7    5   16 1   
     8    6    7 ar  
     9    6   17 1   
    10    7    8 ar  
    11    7   10 1   
    12    8    9 ar  
    13    8   18 1   
    14    9   19 1   
    15   10   11 1   
    16   10   20 1   
    17   10   21 1   
    18   11   12 1   
    19   11   22 1   
    20   11   32 1   
    21   12   13 1   
    22   12   23 1   
    23   12   24 1   
    24   13   14 1   
    25   13   15 1   
    26   13   25 1   
    27   14   26 1   
    28   14   27 1   
    29   14   28 1   
    30   15   29 1   
    31   15   30 1   
    32   15   31 1   
@<TRIPOS>SUBSTRUCTURE
     1 MN7         1 TEMP              0 ****  ****    0 ROOT
