@<TRIPOS>MOLECULE
MN7
   32    32     1     0     0
SMALL
bcc


@<TRIPOS>ATOM
      1 C1         -0.0150    0.0390    0.0190 ca        1 MN7     -0.069600
      2 C          -0.7850    0.2030   -1.3000 c         1 MN7      0.907200
      3 O1         -2.0380    0.2790   -1.2140 o         1 MN7     -0.792300
      4 O2         -0.0970    0.2630   -2.3500 o         1 MN7     -0.792300
      5 C2          1.3840   -0.0370    0.0120 ca        1 MN7     -0.109000
      6 C3          2.0880   -0.1290    1.2060 ca        1 MN7     -0.123500
      7 C4          1.3920   -0.1510    2.4250 ca        1 MN7     -0.249300
      8 C5         -0.0100   -0.1070    2.4350 ca        1 MN7     -0.123500
      9 C6         -0.7060   -0.0150    1.2360 ca        1 MN7     -0.109000
     10 C7          2.1390   -0.1790    3.7000 c3        1 MN7      0.201100
     11 N8          2.4120    1.2490    4.1250 ny        1 MN7     -0.773000
     12 C9          3.1750    1.3370    5.3940 c3        1 MN7      0.096800
     13 C10         3.4330    2.7780    5.8480 c3        1 MN7     -0.087700
     14 C11         4.1440    2.7290    7.1860 c3        1 MN7     -0.106600
     15 C12         4.2530    3.5430    4.8330 c3        1 MN7     -0.106600
     16 H2          1.8980   -0.0170   -0.9650 ha        1 MN7      0.179000
     17 H3          3.1850   -0.1950    1.1990 ha        1 MN7      0.111000
     18 H5         -0.5540   -0.1550    3.3900 ha        1 MN7      0.111000
     19 H6         -1.8100    0.0230    1.2070 ha        1 MN7      0.179000
     20 H71         1.5500   -0.6670    4.5260 hx        1 MN7      0.088700
     21 H72         3.1360   -0.6920    3.5960 hx        1 MN7      0.088700
     22 HN8         2.9320    1.7180    3.3730 hn        1 MN7      0.447800
     23 H91         4.1590    0.8050    5.2450 hx        1 MN7      0.096200
     24 H92         2.5920    0.7900    6.1880 hx        1 MN7      0.096200
     25 H10         2.4450    3.3020    5.9900 hc        1 MN7      0.067700
     26 H111        3.5390    2.1640    7.9360 hc        1 MN7      0.053700
     27 H112        4.2990    3.7680    7.5680 hc        1 MN7      0.053700
     28 H113        5.1420    2.2390    7.0860 hc        1 MN7      0.053700
     29 H121        5.1700    2.9720    4.5480 hc        1 MN7      0.053700
     30 H122        4.5770    4.5210    5.2690 hc        1 MN7      0.053700
     31 H123        3.6620    3.7630    3.9120 hc        1 MN7      0.053700
     32 H82         1.5130    1.7360    4.2200 hn        1 MN7      0.447800
@<TRIPOS>BOND
     1    1    2 1   
     2    1    5 ar  
     3    1    9 ar  
     4    2    3 1   
     5    2    4 1   
     6    5    6 ar  
     7    5   16 1   
     8    6    7 ar  
     9    6   17 1   
    10    7    8 ar  
    11    7   10 1   
    12    8    9 ar  
    13    8   18 1   
    14    9   19 1   
    15   10   11 1   
    16   10   20 1   
    17   10   21 1   
    18   11   12 1   
    19   11   22 1   
    20   11   32 1   
    21   12   13 1   
    22   12   23 1   
    23   12   24 1   
    24   13   14 1   
    25   13   15 1   
    26   13   25 1   
    27   14   26 1   
    28   14   27 1   
    29   14   28 1   
    30   15   29 1   
    31   15   30 1   
    32   15   31 1   
@<TRIPOS>SUBSTRUCTURE
     1 MN7         1 TEMP              0 ****  ****    0 ROOT
