@<TRIPOS>MOLECULE
MN7
   32    32     1     0     0
SMALL
bcc


@<TRIPOS>ATOM
      1 C1         -0.0130    0.0420    0.0170 ca        1 MN7     -0.069600
      2 C          -0.7820    0.2080   -1.3030 c         1 MN7      0.907200
      3 O1         -2.0340    0.2880   -1.2180 o         1 MN7     -0.792300
      4 O2         -0.0920    0.2640   -2.3530 o         1 MN7     -0.792300
      5 C2          1.3860   -0.0380    0.0110 ca        1 MN7     -0.109000
      6 C3          2.0880   -0.1310    1.2050 ca        1 MN7     -0.123500
      7 C4          1.3910   -0.1500    2.4240 ca        1 MN7     -0.249300
      8 C5         -0.0110   -0.1020    2.4330 ca        1 MN7     -0.123500
      9 C6         -0.7060   -0.0090    1.2340 ca        1 MN7     -0.109000
     10 C7          2.1380   -0.1790    3.6990 c3        1 MN7      0.201100
     11 N8          2.4120    1.2480    4.1250 n4        1 MN7     -0.773000
     12 C9          3.1740    1.3350    5.3950 c3        1 MN7      0.096800
     13 C10         3.4330    2.7750    5.8500 c3        1 MN7     -0.087700
     14 C11         4.1420    2.7260    7.1890 c3        1 MN7     -0.106600
     15 C12         4.2550    3.5400    4.8360 c3        1 MN7     -0.106600
     16 H2          1.9010   -0.0190   -0.9660 ha        1 MN7      0.179000
     17 H3          3.1860   -0.2000    1.2000 ha        1 MN7      0.111000
     18 H5         -0.5550   -0.1470    3.3870 ha        1 MN7      0.111000
     19 H6         -1.8090    0.0320    1.2030 ha        1 MN7      0.179000
     20 H71         1.5470   -0.6660    4.5250 hx        1 MN7      0.088700
     21 H72         3.1340   -0.6930    3.5960 hx        1 MN7      0.088700
     22 HN8         2.9330    1.7170    3.3730 hn        1 MN7      0.447800
     23 H91         4.1570    0.8020    5.2460 hx        1 MN7      0.096200
     24 H92         2.5890    0.7880    6.1880 hx        1 MN7      0.096200
     25 H10         2.4450    3.3000    5.9910 hc        1 MN7      0.067700
     26 H111        3.5360    2.1600    7.9370 hc        1 MN7      0.053700
     27 H112        4.2970    3.7640    7.5710 hc        1 MN7      0.053700
     28 H113        5.1400    2.2340    7.0890 hc        1 MN7      0.053700
     29 H121        5.1710    2.9680    4.5510 hc        1 MN7      0.053700
     30 H122        4.5780    4.5180    5.2720 hc        1 MN7      0.053700
     31 H123        3.6640    3.7610    3.9140 hc        1 MN7      0.053700
     32 H82         1.5140    1.7360    4.2190 hn        1 MN7      0.447800
@<TRIPOS>BOND
     1    1    2 1   
     2    1    5 ar  
     3    1    9 ar  
     4    2    3 1   
     5    2    4 1   
     6    5    6 ar  
     7    5   16 1   
     8    6    7 ar  
     9    6   17 1   
    10    7    8 ar  
    11    7   10 1   
    12    8    9 ar  
    13    8   18 1   
    14    9   19 1   
    15   10   11 1   
    16   10   20 1   
    17   10   21 1   
    18   11   12 1   
    19   11   22 1   
    20   11   32 1   
    21   12   13 1   
    22   12   23 1   
    23   12   24 1   
    24   13   14 1   
    25   13   15 1   
    26   13   25 1   
    27   14   26 1   
    28   14   27 1   
    29   14   28 1   
    30   15   29 1   
    31   15   30 1   
    32   15   31 1   
@<TRIPOS>SUBSTRUCTURE
     1 MN7         1 TEMP              0 ****  ****    0 ROOT
