@<TRIPOS>MOLECULE
MN7
   31    31     1     0     0
SMALL
bcc


@<TRIPOS>ATOM
      1 C1         -0.5780    0.3360   -2.2080 ca        1 MN7     -0.116600
      2 C          -0.9470    1.1430   -3.4440 c         1 MN7      0.906200
      3 O1         -0.0080    1.6410   -4.1270 o         1 MN7     -0.830300
      4 O2         -2.1730    1.2740   -3.7200 o         1 MN7     -0.830300
      5 C2          0.7630    0.1580   -1.8510 ca        1 MN7     -0.110500
      6 C3          1.1020   -0.5770   -0.7180 ca        1 MN7     -0.151500
      7 C4          0.1020   -1.1490    0.0770 ca        1 MN7     -0.162300
      8 C5         -1.2390   -0.9730   -0.2770 ca        1 MN7     -0.151500
      9 C6         -1.5740   -0.2380   -1.4120 ca        1 MN7     -0.110500
     10 C7          0.4770   -1.9390    1.2950 c3        1 MN7      0.207100
     11 N8          0.9410   -1.1730    2.4390 n3        1 MN7     -0.815200
     12 C9         -0.1170   -0.4270    3.0980 c3        1 MN7      0.154800
     13 C10         0.3800    0.7300    3.9760 c3        1 MN7     -0.072700
     14 C11        -0.8130    1.5100    4.4890 c3        1 MN7     -0.086100
     15 C12         1.2210    0.2270    5.1280 c3        1 MN7     -0.086100
     16 H2          1.5370    0.6150   -2.4900 ha        1 MN7      0.151000
     17 H3          2.1580   -0.7150   -0.4450 ha        1 MN7      0.104500
     18 H5         -2.0290   -1.4190    0.3440 ha        1 MN7      0.104500
     19 H6         -2.6260   -0.0910   -1.7070 ha        1 MN7      0.151000
     20 H71         1.3160   -2.6440    1.0270 h1        1 MN7      0.043700
     21 H72        -0.4020   -2.5620    1.6260 h1        1 MN7      0.043700
     22 HN8         1.6680   -0.5430    2.1440 hn        1 MN7      0.351800
     23 H91        -0.6780   -1.1580    3.7470 h1        1 MN7      0.036200
     24 H92        -0.8560   -0.0040    2.3520 h1        1 MN7      0.036200
     25 H10         1.0090    1.4210    3.3460 hc        1 MN7      0.049700
     26 H111       -0.4720    2.3590    5.1280 hc        1 MN7      0.030867
     27 H112       -1.4060    1.9210    3.6360 hc        1 MN7      0.030867
     28 H113       -1.4780    0.8530    5.0990 hc        1 MN7      0.030867
     29 H121        0.6380   -0.4950    5.7510 hc        1 MN7      0.030867
     30 H122        2.1350   -0.2910    4.7520 hc        1 MN7      0.030867
     31 H123        1.5370    1.0790    5.7780 hc        1 MN7      0.030867
@<TRIPOS>BOND
     1    1    2 1   
     2    1    5 ar  
     3    1    9 ar  
     4    2    3 1   
     5    2    4 1   
     6    5    6 ar  
     7    5   16 1   
     8    6    7 ar  
     9    6   17 1   
    10    7    8 ar  
    11    7   10 1   
    12    8    9 ar  
    13    8   18 1   
    14    9   19 1   
    15   10   11 1   
    16   10   20 1   
    17   10   21 1   
    18   11   12 1   
    19   11   22 1   
    20   12   13 1   
    21   12   23 1   
    22   12   24 1   
    23   13   14 1   
    24   13   15 1   
    25   13   25 1   
    26   14   26 1   
    27   14   27 1   
    28   14   28 1   
    29   15   29 1   
    30   15   30 1   
    31   15   31 1   
@<TRIPOS>SUBSTRUCTURE
     1 MN7         1 TEMP              0 ****  ****    0 ROOT
