@<TRIPOS>MOLECULE
MN7
   31    28     1     0     0
SMALL
bcc


@<TRIPOS>ATOM
      1 C1         -2.0250   -0.9980   -3.5660 c1        1 MN7     -0.096000
      2 C          -2.8070   -1.0170   -4.8920 c1        1 MN7      0.355000
      3 O1         -3.0950   -2.1180   -5.4370 o         1 MN7     -0.565000
      4 O2         -3.0620    0.0640   -5.4870 o         1 MN7     -0.565000
      5 C2         -0.6530   -1.0300   -3.5780 c2        1 MN7     -0.111000
      6 C3          0.0510   -1.0630   -2.3830 c1        1 MN7     -0.149000
      7 C4         -0.6250   -1.0650   -1.1860 c1        1 MN7     -0.155000
      8 C5         -2.0030   -1.0330   -1.1720 c1        1 MN7     -0.154000
      9 C6         -2.7060   -0.9990   -2.3600 c1        1 MN7     -0.110000
     10 C7          0.1690   -1.1430    0.1550 c3        1 MN7     -0.037000
     11 N8          0.3360    0.2010    0.7090 n3        1 MN7     -0.294000
     12 C9          1.1360    0.1260    1.9100 c3        1 MN7     -0.082000
     13 C10         1.3050    1.5210    2.5000 c3        1 MN7     -0.112000
     14 C11         0.5850    1.5900    3.8770 c3        1 MN7     -0.204000
     15 C12         2.8450    1.8260    2.6910 c3        1 MN7     -0.204000
     16 H2         -0.1640   -1.0290   -4.4420 ha        1 MN7      0.151000
     17 H3          1.0280   -1.1750   -2.3920 ha        1 MN7      0.105000
     18 H5         -2.4960   -1.0340   -0.2970 ha        1 MN7      0.104000
     19 H6         -3.6920   -1.0670   -2.3500 ha        1 MN7      0.151000
     20 H71         1.0610   -1.5430   -0.0140 h1        1 MN7      0.083000
     21 H72        -0.3300   -1.7080    0.8020 h1        1 MN7      0.083000
     22 HN8         0.7580    0.7340    0.0950 hn        1 MN7      0.147000
     23 H91         0.6850   -0.4610    2.5710 h1        1 MN7      0.075500
     24 H92         2.0200   -0.2460    1.6900 h1        1 MN7      0.075500
     25 H10         0.9120    2.1860    1.8900 hc        1 MN7      0.089000
     26 H111        1.0540    1.0240    4.5180 hc        1 MN7      0.070167
     27 H112        0.5830    2.5140    4.1980 hc        1 MN7      0.070167
     28 H113       -0.3580    1.2700    3.7770 hc        1 MN7      0.070167
     29 H121        3.2830    1.8670    1.8090 hc        1 MN7      0.070167
     30 H122        2.9540    2.6800    3.1470 hc        1 MN7      0.070167
     31 H123        3.2510    1.1240    3.2190 hc        1 MN7      0.070167
@<TRIPOS>BOND
     1    1    5 1   
     2    1    9 1   
     3    2    3 1   
     4    2    4 1   
     5    5    6 1   
     6    5   16 1   
     7    6   17 1   
     8    7    8 1   
     9    7   10 1   
    10    8   18 1   
    11    9   19 1   
    12   10   11 1   
    13   10   20 1   
    14   10   21 1   
    15   11   12 1   
    16   11   22 1   
    17   12   13 1   
    18   12   23 1   
    19   12   24 1   
    20   13   14 1   
    21   13   15 1   
    22   13   25 1   
    23   14   26 1   
    24   14   27 1   
    25   14   28 1   
    26   15   29 1   
    27   15   30 1   
    28   15   31 1   
@<TRIPOS>SUBSTRUCTURE
     1 MN7         1 TEMP              0 ****  ****    0 ROOT
