@<TRIPOS>MOLECULE
MN8
   38    40     1     0     0
SMALL
bcc


@<TRIPOS>ATOM
      1 C1          0.2110    0.1880    0.0820 c         1 MN8      0.838100
      2 O1          1.0400   -0.7420    0.2710 o         1 MN8     -0.807800
      3 O2          0.0880    1.2200    0.7860 o         1 MN8     -0.807800
      4 C2         -0.6900    0.0670   -1.1590 cc        1 MN8      0.324800
      5 C3         -0.2000   -0.0170   -2.4590 cd        1 MN8     -0.136700
      6 C4          1.2290   -0.0570   -2.8280 c3        1 MN8     -0.005400
      7 C5          1.5170   -1.1460   -3.8440 c3        1 MN8     -0.083100
      8 C6          1.7020    1.2880   -3.3490 c3        1 MN8     -0.083100
      9 S7         -1.4930   -0.0810   -3.5700 ss        1 MN8     -0.287300
     10 C8         -2.6270   -0.0100   -2.2630 cd        1 MN8      0.372700
     11 N9         -2.0790    0.0610   -1.0560 nc        1 MN8     -0.576000
     12 C10        -4.0940   -0.0250   -2.5680 c3        1 MN8      0.167200
     13 N11        -4.7190   -1.2990   -2.2170 n7        1 MN8     -0.809200
     14 C12        -6.0950   -1.3860   -2.6580 c3        1 MN8      0.216100
     15 C13        -6.8940   -0.1310   -2.4520 ca        1 MN8     -0.078300
     16 C14        -6.2770    1.0760   -2.0850 ca        1 MN8     -0.047300
     17 C15        -4.8090    1.1350   -1.8550 c3        1 MN8     -0.035100
     18 C16        -7.0620    2.2230   -1.9150 ca        1 MN8     -0.132000
     19 C17        -8.4400    2.1720   -2.1080 ca        1 MN8     -0.135000
     20 C18        -9.0500    0.9720   -2.4730 ca        1 MN8     -0.144000
     21 C19        -8.2790   -0.1750   -2.6440 ca        1 MN8     -0.132000
     22 H4          1.8040   -0.2950   -1.8770 hc        1 MN8      0.120700
     23 H51         2.6060   -1.1570   -4.0920 hc        1 MN8      0.026367
     24 H52         0.9410   -0.9750   -4.7850 hc        1 MN8      0.026367
     25 H53         1.2360   -2.1430   -3.4290 hc        1 MN8      0.026367
     26 H61         2.8000    1.2520   -3.5540 hc        1 MN8      0.026367
     27 H62         1.1740    1.5590   -4.2940 hc        1 MN8      0.026367
     28 H63         1.5060    2.0830   -2.5890 hc        1 MN8      0.026367
     29 H10        -4.1920    0.1630   -3.6880 h1        1 MN8      0.011700
     30 HN1        -4.1810   -2.0680   -2.5630 hn        1 MN8      0.374800
     31 H121       -6.1800   -1.6600   -3.7550 h1        1 MN8      0.030200
     32 H122       -6.5710   -2.2220   -2.0670 h1        1 MN8      0.030200
     33 H151       -4.6070    1.0820   -0.7490 hc        1 MN8      0.080700
     34 H152       -4.3860    2.1020   -2.2320 hc        1 MN8      0.080700
     35 H16        -6.5790    3.1680   -1.6230 ha        1 MN8      0.133000
     36 H17        -9.0470    3.0780   -1.9700 ha        1 MN8      0.121000
     37 H18       -10.1370    0.9300   -2.6240 ha        1 MN8      0.119000
     38 H19        -8.7580   -1.1240   -2.9270 ha        1 MN8      0.122000
@<TRIPOS>BOND
     1    1    2 1   
     2    1    3 1   
     3    1    4 1   
     4    4    5 2   
     5    4   11 1   
     6    5    6 1   
     7    5    9 1   
     8    6    7 1   
     9    6    8 1   
    10    6   22 1   
    11    7   23 1   
    12    7   24 1   
    13    7   25 1   
    14    8   26 1   
    15    8   27 1   
    16    8   28 1   
    17    9   10 1   
    18   10   11 2   
    19   10   12 1   
    20   12   13 1   
    21   12   17 1   
    22   12   29 1   
    23   13   14 1   
    24   13   30 1   
    25   14   15 1   
    26   14   31 1   
    27   14   32 1   
    28   15   16 ar  
    29   15   21 ar  
    30   16   17 1   
    31   16   18 ar  
    32   17   33 1   
    33   17   34 1   
    34   18   19 ar  
    35   18   35 1   
    36   19   20 ar  
    37   19   36 1   
    38   20   21 ar  
    39   20   37 1   
    40   21   38 1   
@<TRIPOS>SUBSTRUCTURE
     1 MN8         1 TEMP              0 ****  ****    0 ROOT
