@<TRIPOS>MOLECULE
MN8
   38    40     1     0     0
SMALL
bcc


@<TRIPOS>ATOM
      1 C1          0.2050    0.2340    0.0870 c         1 MN8      0.838100
      2 O1          1.0330   -0.6930    0.2960 o         1 MN8     -0.807800
      3 O2          0.0820    1.2810    0.7690 o         1 MN8     -0.807800
      4 C2         -0.6930    0.0890   -1.1530 cc        1 MN8      0.324800
      5 C3         -0.2000   -0.0210   -2.4500 cd        1 MN8     -0.136700
      6 C4          1.2300   -0.0700   -2.8160 c3        1 MN8     -0.005400
      7 C5          1.5190   -1.1790   -3.8090 c3        1 MN8     -0.083100
      8 C6          1.7060    1.2650   -3.3610 c3        1 MN8     -0.083100
      9 S7         -1.4910   -0.1070   -3.5620 ss        1 MN8     -0.287300
     10 C8         -2.6270   -0.0080   -2.2600 cd        1 MN8      0.372700
     11 N9         -2.0820    0.0880   -1.0530 nc        1 MN8     -0.576000
     12 C10        -4.0940   -0.0280   -2.5680 c3        1 MN8      0.167200
     13 N11        -4.7220   -1.2920   -2.1900 n3        1 MN8     -0.809200
     14 C12        -6.0970   -1.3870   -2.6320 c3        1 MN8      0.216100
     15 C13        -6.8940   -0.1270   -2.4570 ca        1 MN8     -0.078300
     16 C14        -6.2770    1.0870   -2.1150 ca        1 MN8     -0.047300
     17 C15        -4.8090    1.1490   -1.8820 c3        1 MN8     -0.035100
     18 C16        -7.0590    2.2390   -1.9720 ca        1 MN8     -0.132000
     19 C17        -8.4370    2.1860   -2.1670 ca        1 MN8     -0.135000
     20 C18        -9.0480    0.9780   -2.5070 ca        1 MN8     -0.144000
     21 C19        -8.2780   -0.1730   -2.6500 ca        1 MN8     -0.132000
     22 H4          1.8020   -0.2900   -1.8580 hc        1 MN8      0.120700
     23 H51         0.9450   -1.0260   -4.7550 hc        1 MN8      0.026367
     24 H52         2.6080   -1.1960   -4.0540 hc        1 MN8      0.026367
     25 H53         1.2360   -2.1680   -3.3750 hc        1 MN8      0.026367
     26 H61         1.5090    2.0740   -2.6170 hc        1 MN8      0.026367
     27 H62         2.8030    1.2230   -3.5630 hc        1 MN8      0.026367
     28 H63         1.1800    1.5170   -4.3120 hc        1 MN8      0.026367
     29 H10        -4.1890    0.1350   -3.6920 h1        1 MN8      0.011700
     30 HN1        -4.1840   -2.0700   -2.5180 hn        1 MN8      0.374800
     31 H121       -6.1800   -1.6860   -3.7230 h1        1 MN8      0.030200
     32 H122       -6.5760   -2.2090   -2.0240 h1        1 MN8      0.030200
     33 H151       -4.6090    1.1200   -0.7750 hc        1 MN8      0.080200
     34 H152       -4.3830    2.1070   -2.2800 hc        1 MN8      0.080200
     35 H16        -6.5760    3.1890   -1.7000 ha        1 MN8      0.133000
     36 H17        -9.0440    3.0950   -2.0510 ha        1 MN8      0.121000
     37 H18       -10.1360    0.9350   -2.6590 ha        1 MN8      0.119000
     38 H19        -8.7580   -1.1270   -2.9140 ha        1 MN8      0.122000
@<TRIPOS>BOND
     1    1    2 1   
     2    1    3 1   
     3    1    4 1   
     4    4    5 2   
     5    4   11 1   
     6    5    6 1   
     7    5    9 1   
     8    6    7 1   
     9    6    8 1   
    10    6   22 1   
    11    7   23 1   
    12    7   24 1   
    13    7   25 1   
    14    8   26 1   
    15    8   27 1   
    16    8   28 1   
    17    9   10 1   
    18   10   11 2   
    19   10   12 1   
    20   12   13 1   
    21   12   17 1   
    22   12   29 1   
    23   13   14 1   
    24   13   30 1   
    25   14   15 1   
    26   14   31 1   
    27   14   32 1   
    28   15   16 ar  
    29   15   21 ar  
    30   16   17 1   
    31   16   18 ar  
    32   17   33 1   
    33   17   34 1   
    34   18   19 ar  
    35   18   35 1   
    36   19   20 ar  
    37   19   36 1   
    38   20   21 ar  
    39   20   37 1   
    40   21   38 1   
@<TRIPOS>SUBSTRUCTURE
     1 MN8         1 TEMP              0 ****  ****    0 ROOT
