@<TRIPOS>MOLECULE
MN8
   38    40     1     0     0
SMALL
bcc


@<TRIPOS>ATOM
      1 C1          0.2080    0.2320    0.0890 c         1 MN8      0.838100
      2 O1          1.0380   -0.6930    0.2940 o         1 MN8     -0.807800
      3 O2          0.0800    1.2750    0.7760 o         1 MN8     -0.807800
      4 C2         -0.6890    0.0900   -1.1530 cc        1 MN8      0.324800
      5 C3         -0.1940   -0.0130   -2.4500 cd        1 MN8     -0.136700
      6 C4          1.2360   -0.0560   -2.8140 c3        1 MN8     -0.005400
      7 C5          1.5300   -1.1600   -3.8110 c3        1 MN8     -0.083100
      8 C6          1.7090    1.2820   -3.3540 c3        1 MN8     -0.083100
      9 S7         -1.4830   -0.0970   -3.5640 ss        1 MN8     -0.287300
     10 C8         -2.6210   -0.0080   -2.2630 cd        1 MN8      0.372700
     11 N9         -2.0780    0.0840   -1.0550 nc        1 MN8     -0.576000
     12 C10        -4.0880   -0.0310   -2.5730 c3        1 MN8      0.167200
     13 N11        -4.7110   -1.3010   -2.2070 n3        1 MN8     -0.809200
     14 C12        -6.0850   -1.3980   -2.6520 c3        1 MN8      0.216100
     15 C13        -6.8880   -0.1430   -2.4650 ca        1 MN8     -0.078300
     16 C14        -6.2760    1.0710   -2.1110 ca        1 MN8     -0.047300
     17 C15        -4.8080    1.1370   -1.8760 c3        1 MN8     -0.035100
     18 C16        -7.0630    2.2180   -1.9580 ca        1 MN8     -0.132000
     19 C17        -8.4410    2.1610   -2.1550 ca        1 MN8     -0.135000
     20 C18        -9.0460    0.9540   -2.5080 ca        1 MN8     -0.144000
     21 C19        -8.2710   -0.1930   -2.6610 ca        1 MN8     -0.132000
     22 H4          1.8080   -0.2780   -1.8570 hc        1 MN8      0.120700
     23 H51         0.9560   -1.0060   -4.7570 hc        1 MN8      0.026367
     24 H52         2.6200   -1.1730   -4.0550 hc        1 MN8      0.026367
     25 H53         1.2490   -2.1510   -3.3810 hc        1 MN8      0.026367
     26 H61         1.5090    2.0880   -2.6070 hc        1 MN8      0.026367
     27 H62         2.8070    1.2450   -3.5550 hc        1 MN8      0.026367
     28 H63         1.1830    1.5370   -4.3050 hc        1 MN8      0.026367
     29 H10        -4.1830    0.1430   -3.6950 h1        1 MN8      0.011700
     30 HN1        -4.1690   -2.0740   -2.5420 hn        1 MN8      0.374800
     31 H121       -6.1650   -1.6860   -3.7450 h1        1 MN8      0.030200
     32 H122       -6.5610   -2.2280   -2.0520 h1        1 MN8      0.030200
     33 H151       -4.6100    1.0980   -0.7690 hc        1 MN8      0.080700
     34 H152       -4.3860    2.1000   -2.2640 hc        1 MN8      0.080700
     35 H16        -6.5840    3.1670   -1.6760 ha        1 MN8      0.133000
     36 H17        -9.0510    3.0660   -2.0310 ha        1 MN8      0.121000
     37 H18       -10.1330    0.9070   -2.6620 ha        1 MN8      0.119000
     38 H19        -8.7470   -1.1460   -2.9340 ha        1 MN8      0.122000
@<TRIPOS>BOND
     1    1    2 1   
     2    1    3 1   
     3    1    4 1   
     4    4    5 2   
     5    4   11 1   
     6    5    6 1   
     7    5    9 1   
     8    6    7 1   
     9    6    8 1   
    10    6   22 1   
    11    7   23 1   
    12    7   24 1   
    13    7   25 1   
    14    8   26 1   
    15    8   27 1   
    16    8   28 1   
    17    9   10 1   
    18   10   11 2   
    19   10   12 1   
    20   12   13 1   
    21   12   17 1   
    22   12   29 1   
    23   13   14 1   
    24   13   30 1   
    25   14   15 1   
    26   14   31 1   
    27   14   32 1   
    28   15   16 ar  
    29   15   21 ar  
    30   16   17 1   
    31   16   18 ar  
    32   17   33 1   
    33   17   34 1   
    34   18   19 ar  
    35   18   35 1   
    36   19   20 ar  
    37   19   36 1   
    38   20   21 ar  
    39   20   37 1   
    40   21   38 1   
@<TRIPOS>SUBSTRUCTURE
     1 MN8         1 TEMP              0 ****  ****    0 ROOT
