@<TRIPOS>MOLECULE
MN8
   38    35     1     0     0
SMALL
bcc


@<TRIPOS>ATOM
      1 C1          3.1200   -0.1740    2.9440 c1        1 MN8      0.396000
      2 O1          3.3210   -1.2480    3.5740 o         1 MN8     -0.555000
      3 O2          3.4820    0.9270    3.4440 os        1 MN8     -0.533000
      4 C2          2.3750   -0.1970    1.6200 c2        1 MN8     -0.088000
      5 C3          2.9820   -0.1920    0.3050 c1        1 MN8     -0.346000
      6 C4          4.4860   -0.2650    0.0050 c2        1 MN8     -0.051000
      7 C5          4.7550   -1.4090   -0.9830 c3        1 MN8     -0.201000
      8 C6          4.9500    1.0610   -0.6080 c3        1 MN8     -0.201000
      9 S7          1.8580   -0.2170   -0.7300 ss        1 MN8      0.344000
     10 C8          0.5150   -0.2370    0.0410 c1        1 MN8     -0.302000
     11 N9          0.8120   -0.2260    1.4420 n2        1 MN8     -0.082000
     12 C10        -0.9590   -0.2370   -0.6180 c2        1 MN8      0.057000
     13 N11        -1.5730   -1.4910   -0.3160 n3        1 MN8     -0.277000
     14 C12        -2.8770   -1.6650   -0.6740 c3        1 MN8     -0.040000
     15 C13        -3.8260   -0.3850   -0.5360 c2        1 MN8     -0.104000
     16 C14        -3.1990    0.8880   -0.2010 c2        1 MN8     -0.049000
     17 C15        -1.6380    0.9380   -0.1700 c3        1 MN8     -0.163000
     18 C16        -3.9860    2.0140    0.0090 c1        1 MN8     -0.131000
     19 C17        -5.3890    1.9240   -0.1020 c1        1 MN8     -0.139500
     20 C18        -6.0030    0.6760   -0.4300 c1        1 MN8     -0.139500
     21 C19        -5.2080   -0.4690   -0.6450 c1        1 MN8     -0.128000
     22 H4          4.9780   -0.4300    0.8400 ha        1 MN8      0.160000
     23 H51         5.6500   -1.0020   -0.9530 hc        1 MN8      0.065333
     24 H52         4.2370   -1.8960   -0.3050 hc        1 MN8      0.065333
     25 H53         5.3050   -2.2240   -0.9070 hc        1 MN8      0.065333
     26 H61         4.5850    1.8090   -0.0870 hc        1 MN8      0.065333
     27 H62         5.9330    1.1020   -0.5960 hc        1 MN8      0.065333
     28 H63         4.6310    1.1220   -1.5360 hc        1 MN8      0.065333
     29 H10        -0.8580   -0.1760   -1.5940 h4        1 MN8      0.094000
     30 HN1        -1.4740   -1.6730    0.5780 hn        1 MN8      0.176000
     31 H121       -3.2490   -2.3710   -0.1000 h1        1 MN8      0.090500
     32 H122       -2.8900   -1.9410   -1.6180 h1        1 MN8      0.090500
     33 H151       -1.3670    1.0990    0.7600 hc        1 MN8      0.115500
     34 H152       -1.3550    1.6810   -0.7490 hc        1 MN8      0.115500
     35 H16        -3.5650    2.8710    0.2340 ha        1 MN8      0.132000
     36 H17        -5.9440    2.7200    0.0480 ha        1 MN8      0.120500
     37 H18        -6.9800    0.6160   -0.5070 ha        1 MN8      0.120500
     38 H19        -5.6310   -1.3220   -0.8820 ha        1 MN8      0.123000
@<TRIPOS>BOND
     1    1    2 1   
     2    1    4 1   
     3    4    5 1   
     4    4   11 1   
     5    5    9 1   
     6    6    7 1   
     7    6    8 1   
     8    6   22 1   
     9    7   23 1   
    10    7   24 1   
    11    7   25 1   
    12    8   26 1   
    13    8   27 1   
    14    8   28 1   
    15    9   10 1   
    16   10   11 1   
    17   12   13 1   
    18   12   17 1   
    19   12   29 1   
    20   13   14 1   
    21   13   30 1   
    22   14   15 1   
    23   14   31 1   
    24   14   32 1   
    25   15   16 1   
    26   15   21 1   
    27   16   17 1   
    28   16   18 1   
    29   17   33 1   
    30   17   34 1   
    31   18   35 1   
    32   19   20 1   
    33   19   36 1   
    34   20   37 1   
    35   21   38 1   
@<TRIPOS>SUBSTRUCTURE
     1 MN8         1 TEMP              0 ****  ****    0 ROOT
