@<TRIPOS>MOLECULE
MN8
   38    40     1     0     0
SMALL
bcc


@<TRIPOS>ATOM
      1 C1         -2.0800    0.0590    3.2660 c         1 MN8      0.838100
      2 O1         -2.1470   -0.8030    4.1820 o         1 MN8     -0.807800
      3 O2         -2.8950    0.9950    3.0730 o         1 MN8     -0.807800
      4 C2         -0.8560   -0.0150    2.3370 cc        1 MN8      0.324800
      5 C3          0.4570    0.0860    2.7880 cd        1 MN8     -0.136700
      6 C4          0.8630    0.2210    4.2010 c3        1 MN8     -0.005400
      7 C5          1.9980   -0.7220    4.5520 c3        1 MN8     -0.083100
      8 C6          1.2450    1.6530    4.5310 c3        1 MN8     -0.083100
      9 S7          1.5360    0.0170    1.4680 ss        1 MN8     -0.287300
     10 C8          0.2020   -0.1580    0.3790 cd        1 MN8      0.372700
     11 N9         -0.9920   -0.1630    0.9590 nc        1 MN8     -0.576000
     12 C10         0.4710   -0.2800   -1.0910 c3        1 MN8      0.167200
     13 N11         0.2420   -1.6360   -1.5850 n3        1 MN8     -0.809200
     14 C12         0.6560   -1.8070   -2.9610 c3        1 MN8      0.216100
     15 C13         0.2980   -0.6610   -3.8640 ca        1 MN8     -0.078300
     16 C14        -0.1810    0.5540   -3.3480 ca        1 MN8     -0.047300
     17 C15        -0.3800    0.7270   -1.8840 c3        1 MN8     -0.035100
     18 C16        -0.4910    1.5980   -4.2270 ca        1 MN8     -0.132000
     19 C17        -0.3280    1.4380   -5.6000 ca        1 MN8     -0.135000
     20 C18         0.1480    0.2300   -6.1100 ca        1 MN8     -0.144000
     21 C19         0.4590   -0.8160   -5.2440 ca        1 MN8     -0.132000
     22 H4         -0.0420   -0.0620    4.8280 hc        1 MN8      0.120700
     23 H51         2.2730   -0.6040    5.6280 hc        1 MN8      0.026367
     24 H52         1.6880   -1.7800    4.3780 hc        1 MN8      0.026367
     25 H53         2.9010   -0.5080    3.9300 hc        1 MN8      0.026367
     26 H61         2.1420    1.9700    3.9470 hc        1 MN8      0.026367
     27 H62         0.3990    2.3390    4.2890 hc        1 MN8      0.026367
     28 H63         1.4800    1.7420    5.6190 hc        1 MN8      0.026367
     29 H10         1.5610    0.0130   -1.2440 h1        1 MN8      0.011700
     30 HN1         0.6810   -2.3120   -0.9910 hn        1 MN8      0.374800
     31 H121        0.1460   -2.7410   -3.3380 h1        1 MN8      0.030200
     32 H122        1.7730   -1.9720   -3.0580 h1        1 MN8      0.030200
     33 H151       -1.4680    0.5780   -1.6390 hc        1 MN8      0.080200
     34 H152       -0.0980    1.7630   -1.5640 hc        1 MN8      0.080200
     35 H16        -0.8710    2.5490   -3.8220 ha        1 MN8      0.133000
     36 H17        -0.5760    2.2630   -6.2830 ha        1 MN8      0.121000
     37 H18         0.2760    0.1010   -7.1940 ha        1 MN8      0.119000
     38 H19         0.8310   -1.7700   -5.6440 ha        1 MN8      0.122000
@<TRIPOS>BOND
     1    1    2 1   
     2    1    3 1   
     3    1    4 1   
     4    4    5 2   
     5    4   11 1   
     6    5    6 1   
     7    5    9 1   
     8    6    7 1   
     9    6    8 1   
    10    6   22 1   
    11    7   23 1   
    12    7   24 1   
    13    7   25 1   
    14    8   26 1   
    15    8   27 1   
    16    8   28 1   
    17    9   10 1   
    18   10   11 2   
    19   10   12 1   
    20   12   13 1   
    21   12   17 1   
    22   12   29 1   
    23   13   14 1   
    24   13   30 1   
    25   14   15 1   
    26   14   31 1   
    27   14   32 1   
    28   15   16 ar  
    29   15   21 ar  
    30   16   17 1   
    31   16   18 ar  
    32   17   33 1   
    33   17   34 1   
    34   18   19 ar  
    35   18   35 1   
    36   19   20 ar  
    37   19   36 1   
    38   20   21 ar  
    39   20   37 1   
    40   21   38 1   
@<TRIPOS>SUBSTRUCTURE
     1 MN8         1 TEMP              0 ****  ****    0 ROOT
