@<TRIPOS>MOLECULE
MN9
   31    30     1     0     0
SMALL
bcc


@<TRIPOS>ATOM
      1 O1         -0.3460   -0.2330    0.6330 o         1 MN9     -0.504100
      2 C2          1.8390   -0.0540    1.6450 c3        1 MN9     -0.022500
      3 N2          1.1630    0.1280    2.9640 ny        1 MN9     -0.678800
      4 C7          0.4190    1.4600    3.0480 c         1 MN9      0.565100
      5 C           0.8700   -0.2200    0.4730 c         1 MN9      0.575900
      6 O7          1.1130    2.4550    2.9310 o         1 MN9     -0.401100
      7 C8         -1.0490    1.3560    3.2640 c3        1 MN9     -0.192100
      8 C3          2.8100   -1.2710    1.6070 c3        1 MN9      0.121100
      9 O3          3.6340   -0.9790    0.4940 oh        1 MN9     -0.603800
     10 C4          3.6460   -1.4400    2.8930 c3        1 MN9      0.097100
     11 O4          3.9610   -0.1880    3.4690 oh        1 MN9     -0.623800
     12 C5          4.9110   -2.2680    2.6050 c3        1 MN9      0.120100
     13 C6          5.4930   -2.8360    3.9030 c3        1 MN9      0.099400
     14 O6          6.6230   -3.5910    3.5030 oh        1 MN9     -0.607800
     15 O5          4.5210   -3.3010    1.7140 oh        1 MN9     -0.630800
     16 H81C       -1.2810    0.8020    4.2090 hc        1 MN9      0.121367
     17 H82C       -1.5320    0.8290    2.3960 hc        1 MN9      0.121367
     18 H83C       -1.4730    2.3930    3.3390 hc        1 MN9      0.121367
     19 H2          1.8880    0.1140    3.7020 hn        1 MN9      0.470300
     20 HA          2.4600    0.8810    1.4580 hx        1 MN9      0.157700
     21 H3          2.2370   -2.2260    1.4360 h1        1 MN9      0.084700
     22 HB          4.0660   -1.8080    0.2250 ho        1 MN9      0.464000
     23 H4          3.0260   -1.9650    3.6760 h1        1 MN9      0.081700
     24 HC          4.6690    0.2200    2.9490 ho        1 MN9      0.444000
     25 H5          5.6830   -1.6210    2.0970 h1        1 MN9      0.072700
     26 HD          5.2360   -3.9560    1.7040 ho        1 MN9      0.459000
     27 H61C        4.7460   -3.5010    4.4130 h1        1 MN9      0.048700
     28 H62C        5.7880   -1.9980    4.5870 h1        1 MN9      0.048700
     29 H6          7.0340   -3.9380    4.3050 ho        1 MN9      0.432000
     30 H           1.3910   -0.3280   -0.5030 h4        1 MN9      0.090200
     31 H22         0.5020   -0.6390    3.1140 hn        1 MN9      0.470300
@<TRIPOS>BOND
     1    1    5 2   
     2    2    3 1   
     3    2    5 1   
     4    2    8 1   
     5    2   20 1   
     6    3    4 1   
     7    3   19 1   
     8    3   31 1   
     9    4    6 2   
    10    4    7 1   
    11    5   30 1   
    12    7   16 1   
    13    7   17 1   
    14    7   18 1   
    15    8    9 1   
    16    8   10 1   
    17    8   21 1   
    18    9   22 1   
    19   10   11 1   
    20   10   12 1   
    21   10   23 1   
    22   11   24 1   
    23   12   13 1   
    24   12   15 1   
    25   12   25 1   
    26   13   14 1   
    27   13   27 1   
    28   13   28 1   
    29   14   29 1   
    30   15   26 1   
@<TRIPOS>SUBSTRUCTURE
     1 MN9         1 TEMP              0 ****  ****    0 ROOT
