@<TRIPOS>MOLECULE
MN9
   31    30     1     0     0
SMALL
bcc


@<TRIPOS>ATOM
      1 O1         -0.3700   -0.2740    0.6580 o         1 MN9     -0.504100
      2 C2          1.8220   -0.0680    1.6490 c3        1 MN9     -0.022500
      3 N2          1.1560    0.1140    2.9740 n4        1 MN9     -0.678800
      4 C7          0.4000    1.4390    3.0570 c         1 MN9      0.565100
      5 C           0.8440   -0.2500    0.4870 c         1 MN9      0.575900
      6 O7          1.0830    2.4410    2.9290 o         1 MN9     -0.401100
      7 C8         -1.0650    1.3210    3.2870 c3        1 MN9     -0.192100
      8 C3          2.8050   -1.2760    1.6090 c3        1 MN9      0.121100
      9 O3          3.6150   -0.9820    0.4860 oh        1 MN9     -0.603800
     10 C4          3.6540   -1.4290    2.8880 c3        1 MN9      0.096100
     11 O4          3.9620   -0.1710    3.4540 oh        1 MN9     -0.623800
     12 C5          4.9250   -2.2450    2.5920 c3        1 MN9      0.120100
     13 C6          5.5250   -2.8010    3.8880 c3        1 MN9      0.099400
     14 O6          6.6590   -3.5460    3.4820 oh        1 MN9     -0.607800
     15 O5          4.5370   -3.2880    1.7110 oh        1 MN9     -0.630800
     16 H81C       -1.4990    2.3540    3.3600 hc        1 MN9      0.121367
     17 H82C       -1.2830    0.7700    4.2370 hc        1 MN9      0.121367
     18 H83C       -1.5500    0.7850    2.4260 hc        1 MN9      0.121367
     19 H2          0.5050   -0.6590    3.1330 hn        1 MN9      0.470300
     20 HA          2.4320    0.8730    1.4520 hx        1 MN9      0.157700
     21 H3          2.2400   -2.2370    1.4480 h1        1 MN9      0.084700
     22 HB          4.0530   -1.8070    0.2180 ho        1 MN9      0.464000
     23 H4          3.0470   -1.9560    3.6790 h1        1 MN9      0.081700
     24 HC          4.6610    0.2410    2.9250 ho        1 MN9      0.444000
     25 H5          5.6850   -1.5940    2.0730 h1        1 MN9      0.072700
     26 HD          5.2590   -3.9350    1.6980 ho        1 MN9      0.459000
     27 H61C        5.8180   -1.9560    4.5650 h1        1 MN9      0.048700
     28 H62C        4.7900   -3.4700    4.4090 h1        1 MN9      0.048700
     29 H6          7.0820   -3.8840    4.2810 ho        1 MN9      0.432000
     30 H           1.3570   -0.3570   -0.4930 h4        1 MN9      0.090200
     31 H22         1.8880    0.1110    3.7040 hn        1 MN9      0.470300
@<TRIPOS>BOND
     1    1    5 2   
     2    2    3 1   
     3    2    5 1   
     4    2    8 1   
     5    2   20 1   
     6    3    4 1   
     7    3   19 1   
     8    3   31 1   
     9    4    6 2   
    10    4    7 1   
    11    5   30 1   
    12    7   16 1   
    13    7   17 1   
    14    7   18 1   
    15    8    9 1   
    16    8   10 1   
    17    8   21 1   
    18    9   22 1   
    19   10   11 1   
    20   10   12 1   
    21   10   23 1   
    22   11   24 1   
    23   12   13 1   
    24   12   15 1   
    25   12   25 1   
    26   13   14 1   
    27   13   27 1   
    28   13   28 1   
    29   14   29 1   
    30   15   26 1   
@<TRIPOS>SUBSTRUCTURE
     1 MN9         1 TEMP              0 ****  ****    0 ROOT
