@<TRIPOS>MOLECULE
MN9
   31    30     1     0     0
SMALL
bcc


@<TRIPOS>ATOM
      1 O1         -0.3870   -0.3180    0.6700 o         1 MN9     -0.504100
      2 C2          1.8180   -0.0920    1.6310 c3        1 MN9     -0.022500
      3 N2          1.1670    0.1380    2.9560 n4        1 MN9     -0.678800
      4 C7          0.4190    1.4690    3.0040 c         1 MN9      0.565100
      5 C           0.8260   -0.3060    0.4860 c         1 MN9      0.575900
      6 O7          1.1060    2.4620    2.8350 o         1 MN9     -0.401100
      7 C8         -1.0450    1.3680    3.2520 c3        1 MN9     -0.192100
      8 C3          2.7930   -1.3060    1.6210 c3        1 MN9      0.121100
      9 O3          3.5930   -1.0540    0.4800 oh        1 MN9     -0.603800
     10 C4          3.6550   -1.4220    2.8950 c3        1 MN9      0.096100
     11 O4          3.9760   -0.1470    3.4160 oh        1 MN9     -0.623800
     12 C5          4.9180   -2.2540    2.6130 c3        1 MN9      0.120100
     13 C6          5.5300   -2.7690    3.9200 c3        1 MN9      0.099400
     14 O6          6.6550   -3.5340    3.5270 oh        1 MN9     -0.607800
     15 O5          4.5160   -3.3230    1.7710 oh        1 MN9     -0.630800
     16 H81C       -1.4710    2.4050    3.2960 hc        1 MN9      0.121367
     17 H82C       -1.2560    0.8490    4.2220 hc        1 MN9      0.121367
     18 H83C       -1.5420    0.8070    2.4150 hc        1 MN9      0.121367
     19 H2          0.5120   -0.6260    3.1470 hn        1 MN9      0.470300
     20 HA          2.4300    0.8380    1.3970 hx        1 MN9      0.157700
     21 H3          2.2210   -2.2690    1.4980 h1        1 MN9      0.084700
     22 HB          4.0230   -1.8910    0.2350 ho        1 MN9      0.464000
     23 H4          3.0540   -1.9190    3.7090 h1        1 MN9      0.081700
     24 HC          4.6710    0.2430    2.8670 ho        1 MN9      0.444000
     25 H5          5.6770   -1.6240    2.0640 h1        1 MN9      0.072700
     26 HD          5.2340   -3.9740    1.7720 ho        1 MN9      0.459000
     27 H61C        4.7970   -3.4170    4.4710 h1        1 MN9      0.048700
     28 H62C        5.8350   -1.9040    4.5650 h1        1 MN9      0.048700
     29 H6          7.0850   -3.8470    4.3320 ho        1 MN9      0.432000
     30 H           1.3290   -0.4490   -0.4960 h4        1 MN9      0.090200
     31 H22         1.9060    0.1550    3.6790 hn        1 MN9      0.470300
@<TRIPOS>BOND
     1    1    5 2   
     2    2    3 1   
     3    2    5 1   
     4    2    8 1   
     5    2   20 1   
     6    3    4 1   
     7    3   19 1   
     8    3   31 1   
     9    4    6 2   
    10    4    7 1   
    11    5   30 1   
    12    7   16 1   
    13    7   17 1   
    14    7   18 1   
    15    8    9 1   
    16    8   10 1   
    17    8   21 1   
    18    9   22 1   
    19   10   11 1   
    20   10   12 1   
    21   10   23 1   
    22   11   24 1   
    23   12   13 1   
    24   12   15 1   
    25   12   25 1   
    26   13   14 1   
    27   13   27 1   
    28   13   28 1   
    29   14   29 1   
    30   15   26 1   
@<TRIPOS>SUBSTRUCTURE
     1 MN9         1 TEMP              0 ****  ****    0 ROOT
