@<TRIPOS>MOLECULE
MNA
   43    39     1     0     0
SMALL
bcc


@<TRIPOS>ATOM
      1 C1          2.1540   -1.0370    1.2760 c2        1 MNA      0.314000
      2 C2          0.8100   -0.3830    1.3950 cx        1 MNA     -0.016000
      3 C3         -0.0920   -0.9390    2.4480 c3        1 MNA     -0.221000
      4 C4         -0.5070    1.5570    4.8390 c1        1 MNA     -0.087000
      5 C5         -0.4090    1.9370    1.4250 c3        1 MNA     -0.039000
      6 C6          0.6730    1.0200    0.8900 cx        1 MNA     -0.033000
      7 C7          0.8170    3.4720   -2.0010 c1        1 MNA     -0.083000
      8 C8          1.7700    2.4660   -2.5660 c3        1 MNA     -0.079000
      9 C9         -2.1760    7.2070   -2.9720 c2        1 MNA      0.162000
     10 C11        -0.1250    5.6580    0.6380 c3        1 MNA     -0.242000
     11 N5         -0.4360    3.2150    0.7710 n         1 MNA     -0.375000
     12 O1A         2.7440   -1.6480    2.1660 o         1 MNA     -0.295000
     13 O1B         2.8280   -0.9710    0.0960 oh        1 MNA     -0.286000
     14 O2         -1.7130   -0.5340   -2.2150 oh        1 MNA     -0.216000
     15 O4         -0.4570    2.7970    5.2440 oh        1 MNA     -0.216000
     16 O6          0.2050   -0.0990    0.1120 os        1 MNA     -0.308000
     17 O7          0.8460    4.6210   -2.6380 oh        1 MNA     -0.222000
     18 O8          1.6670    1.2380   -1.8790 oh        1 MNA     -0.354000
     19 O9         -1.4310    6.5820   -2.2180 o         1 MNA     -0.319000
     20 O10        -0.2690    4.4470    2.7090 o         1 MNA     -0.425000
     21 H31        -1.0630   -1.2570    1.9960 hc        1 MNA      0.113333
     22 H32         0.3870   -1.8180    2.9450 hc        1 MNA      0.113333
     23 H4         -0.2940   -0.1540    3.2260 hc        1 MNA      0.113333
     24 H5         -0.2560    2.0650    2.5420 h1        1 MNA      0.127500
     25 H6          1.5590    1.5190    0.4360 h1        1 MNA      0.159000
     26 H7         -1.4090    1.4350    1.2720 h1        1 MNA      0.127500
     27 H8          1.5940    2.3120   -3.6670 h1        1 MNA      0.108500
     28 H91        -2.9810    7.8660   -2.5860 h4        1 MNA      0.081500
     29 H92         2.8360    2.7980   -2.4110 h1        1 MNA      0.108500
     30 H111        0.7680    5.5850   -0.0310 hc        1 MNA      0.106667
     31 H112       -1.0310    5.8220    0.0040 hc        1 MNA      0.106667
     32 H113        0.0030    6.5260    1.3280 hc        1 MNA      0.106667
     33 H121       -1.5050    0.2580   -4.0110 ha        1 MNA      0.034000
     34 H122        2.3140   -0.4770   -0.5670 ho        1 MNA      0.256000
     35 H123       -1.2890   -0.5620   -1.3310 ho        1 MNA      0.276500
     36 HN5        -0.5660    0.8920    5.7390 ha        1 MNA      0.034000
     37 HO4        -0.4040    3.3950    4.4660 ho        1 MNA      0.276500
     38 HO7         0.1950    5.2190   -2.2130 ho        1 MNA      0.275000
     39 HO8         0.7630    0.8990   -2.0240 ho        1 MNA      0.245000
     40 HO9        -2.0810    7.1450   -4.0770 h4        1 MNA      0.081500
     41 C10        -0.2660    4.3970    1.4570 c2        1 MNA      0.311000
     42 C12        -1.0130    0.2350   -3.0060 c1        1 MNA     -0.087000
     43 H52        -0.2700    3.2170   -0.2230 hn        1 MNA      0.264000
@<TRIPOS>BOND
     1    1    2 1   
     2    1   12 1   
     3    1   13 1   
     4    2    3 1   
     5    2    6 1   
     6    2   16 1   
     7    3   21 1   
     8    3   22 1   
     9    3   23 1   
    10    4   15 1   
    11    4   36 1   
    12    5    6 1   
    13    5   11 1   
    14    5   24 1   
    15    5   26 1   
    16    6   16 1   
    17    6   25 1   
    18    7    8 1   
    19    7   17 1   
    20    8   18 1   
    21    8   27 1   
    22    8   29 1   
    23    9   19 1   
    24    9   28 1   
    25    9   40 1   
    26   10   30 1   
    27   10   31 1   
    28   10   32 1   
    29   10   41 1   
    30   11   41 1   
    31   11   43 1   
    32   13   34 1   
    33   14   35 1   
    34   14   42 1   
    35   15   37 1   
    36   17   38 1   
    37   18   39 1   
    38   20   41 1   
    39   33   42 1   
@<TRIPOS>SUBSTRUCTURE
     1 MNA         1 TEMP              0 ****  ****    0 ROOT
