@<TRIPOS>MOLECULE
MNA
   42    42     1     0     0
SMALL
bcc


@<TRIPOS>ATOM
      1 C1          2.6340   -0.8720    0.7890 c         1 MNA      0.893600
      2 C2          2.2470    0.5550    0.2640 c3        1 MNA      0.218600
      3 C3          2.3210    0.6720   -1.2600 c3        1 MNA     -0.112400
      4 C4          1.2440   -0.2080   -1.8780 c3        1 MNA      0.122100
      5 C5         -0.1610    0.1640   -1.3260 c3        1 MNA      0.080700
      6 C6         -0.0870    0.0770    0.2290 c3        1 MNA      0.115100
      7 C7         -1.3840    0.5530    0.9130 c3        1 MNA      0.120100
      8 C8         -2.1650   -0.6250    1.5360 c3        1 MNA      0.068100
      9 C9         -3.2960   -0.1090    2.4380 c3        1 MNA      0.114400
     10 C11        -3.3080   -1.2900   -2.9580 c3        1 MNA     -0.178100
     11 N5         -1.1810   -0.6970   -1.8750 n         1 MNA     -0.540900
     12 O1A         2.3000   -1.1680    1.9650 o         1 MNA     -0.812800
     13 O1B         3.2330   -1.6330   -0.0170 o         1 MNA     -0.812800
     14 O2          3.0230    1.6100    0.8000 os        1 MNA     -0.419600
     15 O4          1.2010   -0.0380   -3.2930 oh        1 MNA     -0.617800
     16 O6          0.9300    0.9560    0.6910 os        1 MNA     -0.449600
     17 O7         -1.1420    1.5070    1.9350 oh        1 MNA     -0.617800
     18 O8         -2.7170   -1.4710    0.5420 oh        1 MNA     -0.597800
     19 O9         -2.8500    0.1740    3.7450 oh        1 MNA     -0.611800
     20 O10        -2.7760    0.9290   -2.1970 o         1 MNA     -0.641100
     21 H31         2.1850    1.7370   -1.5720 hc        1 MNA      0.062700
     22 H32         3.3310    0.3160   -1.5890 hc        1 MNA      0.062700
     23 H4          1.4810   -1.2880   -1.6410 h1        1 MNA      0.078700
     24 H5         -0.3940    1.2300   -1.6170 h1        1 MNA      0.096700
     25 H6          0.1580   -0.9780    0.5430 h1        1 MNA      0.084700
     26 H7         -2.0400    1.0900    0.1680 h1        1 MNA      0.082700
     27 H8         -1.4720   -1.2880    2.1270 h1        1 MNA      0.104700
     28 H91        -3.7640    0.8030    1.9810 h1        1 MNA      0.040200
     29 H92        -4.0730   -0.9110    2.5650 h1        1 MNA      0.040200
     30 H111       -4.2360   -0.7820   -3.3150 hc        1 MNA      0.059700
     31 H112       -2.8060   -1.7820   -3.8240 hc        1 MNA      0.059700
     32 H113       -3.5830   -2.0670   -2.2040 hc        1 MNA      0.059700
     33 H121        3.7170    2.4920    2.4690 h1        1 MNA      0.032700
     34 H122        2.2780    1.3730    2.7440 h1        1 MNA      0.032700
     35 H123        3.9270    0.6590    2.4260 h1        1 MNA      0.032700
     36 HN5        -0.9470   -1.6550   -1.9730 hn        1 MNA      0.315500
     37 HO4         2.1100   -0.1380   -3.6000 ho        1 MNA      0.399000
     38 HO7        -0.2700    1.3330    2.3190 ho        1 MNA      0.437000
     39 HO8        -3.2430   -0.9100   -0.0440 ho        1 MNA      0.393000
     40 HO9        -2.1670    0.8550    3.6730 ho        1 MNA      0.420000
     41 C10        -2.3990   -0.2580   -2.3260 c         1 MNA      0.654100
     42 C12         3.2440    1.5150    2.2020 c3        1 MNA      0.133700
@<TRIPOS>BOND
     1    1    2 1   
     2    1   12 1   
     3    1   13 1   
     4    2    3 1   
     5    2   14 1   
     6    2   16 1   
     7    3    4 1   
     8    3   21 1   
     9    3   22 1   
    10    4    5 1   
    11    4   15 1   
    12    4   23 1   
    13    5    6 1   
    14    5   11 1   
    15    5   24 1   
    16    6    7 1   
    17    6   16 1   
    18    6   25 1   
    19    7    8 1   
    20    7   17 1   
    21    7   26 1   
    22    8    9 1   
    23    8   18 1   
    24    8   27 1   
    25    9   19 1   
    26    9   28 1   
    27    9   29 1   
    28   10   30 1   
    29   10   31 1   
    30   10   32 1   
    31   10   41 1   
    32   11   36 1   
    33   11   41 1   
    34   14   42 1   
    35   15   37 1   
    36   17   38 1   
    37   18   39 1   
    38   19   40 1   
    39   20   41 2   
    40   33   42 1   
    41   34   42 1   
    42   35   42 1   
@<TRIPOS>SUBSTRUCTURE
     1 MNA         1 TEMP              0 ****  ****    0 ROOT
