@<TRIPOS>MOLECULE
MNB
   17    17     1     0     0
SMALL
bcc


@<TRIPOS>ATOM
      1 C6          0.7310   -0.1050   -1.1970 ca        1 MNB     -0.126000
      2 C1          0.5150   -0.0350    0.1880 ca        1 MNB     -0.055600
      3 C2         -0.8050   -0.0910    0.6490 ca        1 MNB     -0.139200
      4 C3         -1.8880   -0.1620   -0.2510 ca        1 MNB     -0.098000
      5 C4         -1.6450   -0.2180   -1.6140 ca        1 MNB     -0.148000
      6 C5         -0.3270   -0.1990   -2.0950 ca        1 MNB      0.026900
      7 S5         -0.1230   -0.2900   -3.7830 sh        1 MNB     -0.309700
      8 C10         1.7520    0.1500    1.0810 c         1 MNB      0.915200
      9 O12         2.8230   -0.3680    0.6660 o         1 MNB     -0.799800
     10 O11         1.6160    0.8380    2.1230 o         1 MNB     -0.799800
     11 N7         -1.1300   -0.0830    2.1040 no        1 MNB      0.335200
     12 O9         -1.8850    0.7620    2.5170 o         1 MNB     -0.220000
     13 O8         -0.7220   -0.9610    2.8110 o         1 MNB     -0.220000
     14 HC6         1.7820   -0.0950   -1.5360 ha        1 MNB      0.165000
     15 HC3        -2.9230   -0.1680    0.1230 ha        1 MNB      0.138000
     16 HC4        -2.4850   -0.2770   -2.3210 ha        1 MNB      0.131000
     17 HS5         1.1990   -0.2700   -3.8520 hs        1 MNB      0.202800
@<TRIPOS>BOND
     1    1    2 ar  
     2    1    6 ar  
     3    1   14 1   
     4    2    3 ar  
     5    2    8 1   
     6    3    4 ar  
     7    3   11 1   
     8    4    5 ar  
     9    4   15 1   
    10    5    6 ar  
    11    5   16 1   
    12    6    7 1   
    13    7   17 1   
    14    8    9 1   
    15    8   10 1   
    16   11   12 1   
    17   11   13 1   
@<TRIPOS>SUBSTRUCTURE
     1 MNB         1 TEMP              0 ****  ****    0 ROOT
