@<TRIPOS>MOLECULE
MNB
   17    14     1     0     0
SMALL
bcc


@<TRIPOS>ATOM
      1 C6         -1.0840   -0.0710   -0.8180 c1        1 MNB     -0.068500
      2 C1          0.3020   -0.0650   -0.8070 cg        1 MNB     -0.004200
      3 C2          0.9850    0.1170    0.3850 c1        1 MNB     -0.148300
      4 C3          0.2820    0.2950    1.5660 c1        1 MNB     -0.065500
      5 C4         -1.1040    0.2900    1.5550 c1        1 MNB     -0.065500
      6 C5         -1.7870    0.1070    0.3630 c1        1 MNB      0.025100
      7 S5         -3.5610    0.1390    0.3430 sh        1 MNB     -0.307900
      8 C10         1.0680   -0.2360   -2.0990 c         1 MNB      0.863800
      9 O12         1.3930   -1.3880   -2.4910 o         1 MNB     -0.799800
     10 O11         1.3740    0.7730   -2.7880 o         1 MNB     -0.799800
     11 N7          2.4040    0.1470    0.3920 no        1 MNB      0.344300
     12 O9          2.9970    1.1260   -0.0360 o         1 MNB     -0.220000
     13 O8          3.1060   -0.9150    0.8880 o         1 MNB     -0.220000
     14 HC6        -1.5660   -0.1990   -1.6580 ha        1 MNB      0.107500
     15 HC3         0.7630    0.4240    2.4060 ha        1 MNB      0.077000
     16 HC4        -1.5980    0.4190    2.3860 ha        1 MNB      0.077000
     17 HS5        -3.9740   -0.9620    0.4120 hs        1 MNB      0.202800
@<TRIPOS>BOND
     1    1    6 3   
     2    1   14 1   
     3    2    3 3   
     4    2    8 1   
     5    3   11 1   
     6    4    5 3   
     7    4   15 1   
     8    5   16 1   
     9    6    7 1   
    10    7   17 1   
    11    8    9 1   
    12    8   10 1   
    13   11   12 1   
    14   11   13 1   
@<TRIPOS>SUBSTRUCTURE
     1 MNB         1 TEMP              0 ****  ****    0 ROOT
