@<TRIPOS>MOLECULE
MNB
   17    17     1     0     0
SMALL
bcc


@<TRIPOS>ATOM
      1 C6         -0.0380   -0.1840    0.1200 ca        1 MNB     -0.126000
      2 C1          1.3600   -0.0810    0.0520 ca        1 MNB     -0.055600
      3 C2          2.0690    0.0010    1.2560 ca        1 MNB     -0.139200
      4 C3          1.3990    0.0320    2.4950 ca        1 MNB     -0.098000
      5 C4          0.0170   -0.0610    2.5310 ca        1 MNB     -0.148000
      6 C5         -0.7110   -0.1800    1.3370 ca        1 MNB      0.026900
      7 S5         -2.4030   -0.3060    1.4780 sh        1 MNB     -0.309700
      8 C10         1.9900   -0.0130   -1.3480 c         1 MNB      0.915200
      9 O12         1.3900   -0.6400   -2.2610 o         1 MNB     -0.799800
     10 O11         3.0180    0.6950   -1.4860 o         1 MNB     -0.799800
     11 N7          3.5590    0.0560    1.2870 no        1 MNB      0.335200
     12 O9          4.0860    0.9760    1.8600 o         1 MNB     -0.220000
     13 O8          4.1980   -0.8520    0.8360 o         1 MNB     -0.220000
     14 HC6        -0.5760   -0.2830   -0.8400 ha        1 MNB      0.165000
     15 HC3         1.9670    0.1330    3.4330 ha        1 MNB      0.138000
     16 HC4        -0.5110   -0.0420    3.4950 ha        1 MNB      0.131000
     17 HS5        -2.7280   -0.4200    0.2000 hs        1 MNB      0.202800
@<TRIPOS>BOND
     1    1    2 ar  
     2    1    6 ar  
     3    1   14 1   
     4    2    3 ar  
     5    2    8 1   
     6    3    4 ar  
     7    3   11 1   
     8    4    5 ar  
     9    4   15 1   
    10    5    6 ar  
    11    5   16 1   
    12    6    7 1   
    13    7   17 1   
    14    8    9 1   
    15    8   10 1   
    16   11   12 1   
    17   11   13 1   
@<TRIPOS>SUBSTRUCTURE
     1 MNB         1 TEMP              0 ****  ****    0 ROOT
