@<TRIPOS>MOLECULE
MNB
   17    17     1     0     0
SMALL
bcc


@<TRIPOS>ATOM
      1 C6         -0.0390   -0.1730    0.1180 ca        1 MNB     -0.126000
      2 C1          1.3590   -0.0640    0.0520 ca        1 MNB     -0.055600
      3 C2          2.0690   -0.0040    1.2560 ca        1 MNB     -0.139200
      4 C3          1.4010   -0.0000    2.4970 ca        1 MNB     -0.098000
      5 C4          0.0180   -0.0980    2.5320 ca        1 MNB     -0.148000
      6 C5         -0.7100   -0.1950    1.3360 ca        1 MNB      0.027900
      7 S5         -2.4020   -0.3300    1.4760 sh        1 MNB     -0.309700
      8 C10         1.9880    0.0340   -1.3470 c         1 MNB      0.915200
      9 O12         1.3900   -0.5780   -2.2720 o         1 MNB     -0.799800
     10 O11         3.0130    0.7490   -1.4720 o         1 MNB     -0.799800
     11 N7          3.5590    0.0540    1.2880 no        1 MNB      0.335200
     12 O9          4.0840    0.9640    1.8800 o         1 MNB     -0.220000
     13 O8          4.2000   -0.8420    0.8160 o         1 MNB     -0.220000
     14 HC6        -0.5760   -0.2550   -0.8430 ha        1 MNB      0.165000
     15 HC3         1.9680    0.0840    3.4360 ha        1 MNB      0.138000
     16 HC4        -0.5090   -0.1000    3.4970 ha        1 MNB      0.131000
     17 HS5        -2.7270   -0.4190    0.1960 hs        1 MNB      0.202800
@<TRIPOS>BOND
     1    1    2 ar  
     2    1    6 ar  
     3    1   14 1   
     4    2    3 ar  
     5    2    8 1   
     6    3    4 ar  
     7    3   11 1   
     8    4    5 ar  
     9    4   15 1   
    10    5    6 ar  
    11    5   16 1   
    12    6    7 1   
    13    7   17 1   
    14    8    9 1   
    15    8   10 1   
    16   11   12 1   
    17   11   13 1   
@<TRIPOS>SUBSTRUCTURE
     1 MNB         1 TEMP              0 ****  ****    0 ROOT
