@<TRIPOS>MOLECULE
MNB
   17    17     1     0     0
SMALL
bcc


@<TRIPOS>ATOM
      1 C6         -0.0370   -0.1520    0.1130 ca        1 MNB     -0.126000
      2 C1          1.3630   -0.0600    0.0530 ca        1 MNB     -0.055600
      3 C2          2.0680   -0.0210    1.2610 ca        1 MNB     -0.139200
      4 C3          1.3950   -0.0200    2.4990 ca        1 MNB     -0.098000
      5 C4          0.0110   -0.1010    2.5270 ca        1 MNB     -0.148000
      6 C5         -0.7140   -0.1770    1.3280 ca        1 MNB      0.027900
      7 S5         -2.4070   -0.2910    1.4590 sh        1 MNB     -0.309700
      8 C10         1.9980    0.0430   -1.3420 c         1 MNB      0.915200
      9 O12         1.3960   -0.5510   -2.2750 o         1 MNB     -0.799800
     10 O11         3.0340    0.7450   -1.4560 o         1 MNB     -0.799800
     11 N7          3.5590    0.0180    1.2990 no        1 MNB      0.335200
     12 O9          4.0920    0.9160    1.9010 o         1 MNB     -0.220000
     13 O8          4.1900   -0.8820    0.8220 o         1 MNB     -0.220000
     14 HC6        -0.5720   -0.2170   -0.8510 ha        1 MNB      0.165000
     15 HC3         1.9600    0.0480    3.4410 ha        1 MNB      0.138000
     16 HC4        -0.5200   -0.1040    3.4900 ha        1 MNB      0.131000
     17 HS5        -2.7280   -0.3640    0.1770 hs        1 MNB      0.202800
@<TRIPOS>BOND
     1    1    2 ar  
     2    1    6 ar  
     3    1   14 1   
     4    2    3 ar  
     5    2    8 1   
     6    3    4 ar  
     7    3   11 1   
     8    4    5 ar  
     9    4   15 1   
    10    5    6 ar  
    11    5   16 1   
    12    6    7 1   
    13    7   17 1   
    14    8    9 1   
    15    8   10 1   
    16   11   12 1   
    17   11   13 1   
@<TRIPOS>SUBSTRUCTURE
     1 MNB         1 TEMP              0 ****  ****    0 ROOT
