@<TRIPOS>MOLECULE
MNC
    6     5     1     0     0
SMALL
bcc


@<TRIPOS>ATOM
      1 C           2.6050    0.0150    0.1440 c1        1 MNC      0.434800
      2 N           1.4290   -0.0090    0.0290 n1        1 MNC     -0.851300
      3 C1          0.0410   -0.0380   -0.1080 c3        1 MNC      0.259400
      4 H11        -0.3450   -1.0750    0.0920 h1        1 MNC      0.052700
      5 H12        -0.2510    0.2630   -1.1520 h1        1 MNC      0.052700
      6 H13        -0.4340    0.6730    0.6220 h1        1 MNC      0.052700
@<TRIPOS>BOND
     1    1    2 3   
     2    2    3 1   
     3    3    4 1   
     4    3    5 1   
     5    3    6 1   
@<TRIPOS>SUBSTRUCTURE
     1 MNC         1 TEMP              0 ****  ****    0 ROOT
