@<TRIPOS>MOLECULE
MNC
    6     5     1     0     0
SMALL
bcc


@<TRIPOS>ATOM
      1 C           2.6020    0.0110    0.1740 c1        1 MNC      0.434800
      2 N           1.4280   -0.0110    0.0420 n1        1 MNC     -0.851300
      3 C1          0.0420   -0.0370   -0.1150 c3        1 MNC      0.259400
      4 H11        -0.3480   -1.0750    0.0730 h1        1 MNC      0.052700
      5 H12        -0.2340    0.2700   -1.1610 h1        1 MNC      0.052700
      6 H13        -0.4430    0.6710    0.6120 h1        1 MNC      0.052700
@<TRIPOS>BOND
     1    1    2 3   
     2    2    3 1   
     3    3    4 1   
     4    3    5 1   
     5    3    6 1   
@<TRIPOS>SUBSTRUCTURE
     1 MNC         1 TEMP              0 ****  ****    0 ROOT
