@<TRIPOS>MOLECULE
MNC
    6     5     1     0     0
SMALL
bcc


@<TRIPOS>ATOM
      1 C          -1.3800   -0.0000   -0.0000 c1        1 MNC      0.434800
      2 N          -0.1990   -0.0000    0.0000 n1        1 MNC     -0.851300
      3 C1          1.1960    0.0000    0.0000 c3        1 MNC      0.259400
      4 H11         1.5830   -0.0100    1.0560 h1        1 MNC      0.052700
      5 H12         1.5830   -0.9100   -0.5370 h1        1 MNC      0.052700
      6 H13         1.5830    0.9200   -0.5190 h1        1 MNC      0.052700
@<TRIPOS>BOND
     1    1    2 3   
     2    2    3 1   
     3    3    4 1   
     4    3    5 1   
     5    3    6 1   
@<TRIPOS>SUBSTRUCTURE
     1 MNC         1 TEMP              0 ****  ****    0 ROOT
