@<TRIPOS>MOLECULE
MND
   19    18     1     0     0
SMALL
bcc


@<TRIPOS>ATOM
      1 N          -0.2870    1.2180   -1.0820 n3        1 MND     -0.903800
      2 CA         -0.6470    0.3690    0.0460 c3        1 MND      0.005500
      3 CB          0.0410   -0.9910    0.0220 c3        1 MND     -0.132400
      4 CG          1.5460   -0.9870   -0.1230 c         1 MND      0.659100
      5 OD1         2.1500   -1.9880   -0.5770 o         1 MND     -0.664100
      6 ND2         2.2680    0.1090    0.3260 n         1 MND     -0.558900
      7 CE2         3.6660    0.2380    0.0730 c3        1 MND      0.079300
      8 C          -2.1880    0.1180    0.2100 c         1 MND      0.893600
      9 O          -2.9700    0.7390   -0.5630 o         1 MND     -0.834300
     10 OXT        -2.5460   -0.6720    1.1240 o         1 MND     -0.834300
     11 H          -0.3900    0.6880   -1.9300 hn        1 MND      0.338800
     12 H2         -0.9690    1.9580   -1.1270 hn        1 MND      0.338800
     13 HA         -0.3370    0.9260    0.9790 h1        1 MND      0.039700
     14 HB2        -0.2200   -1.5170    0.9810 hc        1 MND      0.085700
     15 HB3        -0.3700   -1.6100   -0.8200 hc        1 MND      0.085700
     16 HD2         1.7690    0.9580    0.4730 hn        1 MND      0.321500
     17 HE21        3.8700    0.8530   -0.8460 h1        1 MND      0.027033
     18 HE22        4.1530    0.7440    0.9500 h1        1 MND      0.027033
     19 HE23        4.1270   -0.7760   -0.0690 h1        1 MND      0.027033
@<TRIPOS>BOND
     1    1    2 1   
     2    1   11 1   
     3    1   12 1   
     4    2    3 1   
     5    2    8 1   
     6    2   13 1   
     7    3    4 1   
     8    3   14 1   
     9    3   15 1   
    10    4    5 2   
    11    4    6 1   
    12    6    7 1   
    13    6   16 1   
    14    7   17 1   
    15    7   18 1   
    16    7   19 1   
    17    8    9 1   
    18    8   10 1   
@<TRIPOS>SUBSTRUCTURE
     1 MND         1 TEMP              0 ****  ****    0 ROOT
