@<TRIPOS>MOLECULE
MNI
   46    47     1     0     0
SMALL
bcc


@<TRIPOS>ATOM
      1 O1B         0.8730    1.3580   -0.3480 o         1 MNI     -0.463100
      2 C1B         1.5390    0.4110    0.0600 c         1 MNI      0.582700
      3 C2B         2.1630    0.2350    1.3500 ca        1 MNI     -0.301600
      4 C3B         1.9730    1.2720    2.2940 ca        1 MNI     -0.004000
      5 C4B         2.5230    1.2030    3.5530 ca        1 MNI     -0.225500
      6 C5B         3.3110    0.0770    3.9520 ca        1 MNI      0.275600
      7 N5B         3.8620   -0.0030    5.2020 nh        1 MNI     -0.641000
      8 C8B         3.6630    1.0560    6.1570 c3        1 MNI      0.186600
      9 C9B         4.6510   -1.1460    5.5820 c3        1 MNI      0.186600
     10 C6B         3.4970   -0.9640    2.9840 ca        1 MNI     -0.225500
     11 C7B         2.9380   -0.8790    1.7290 ca        1 MNI     -0.004000
     12 N1B         1.7210   -0.7270   -0.9370 ny        1 MNI     -0.674800
     13 C1A         1.0530   -0.4850   -2.2480 c3        1 MNI      0.113800
     14 C2A         1.3630   -1.6390   -3.2230 c3        1 MNI      0.145500
     15 N5A         0.7340   -1.4220   -4.5240 n7        1 MNI     -0.790200
     16 C5M         1.6370   -1.9160   -5.5700 c3        1 MNI      0.088500
     17 C6A         1.1010   -3.1210   -6.3640 c3        1 MNI      0.106400
     18 O6A        -0.2510   -2.9470   -6.7210 oh        1 MNI     -0.585800
     19 C4A         3.0020   -2.2790   -4.9160 c3        1 MNI      0.107100
     20 O4A         4.0890   -1.6190   -5.5260 oh        1 MNI     -0.586800
     21 C3A         2.8950   -1.7280   -3.4790 c3        1 MNI      0.114100
     22 O3A         3.4390   -2.5590   -2.4740 oh        1 MNI     -0.637800
     23 H3B         1.3680    2.1510    2.0060 ha        1 MNI      0.144000
     24 H4B         2.3470    2.0350    4.2540 ha        1 MNI      0.160000
     25 H8B1        2.5670    1.1870    6.3700 h1        1 MNI      0.060867
     26 H8B2        4.1880    0.8140    7.1180 h1        1 MNI      0.060867
     27 H8B3        4.0750    2.0230    5.7570 h1        1 MNI      0.060867
     28 H9B1        5.5440   -1.2450    4.9060 h1        1 MNI      0.060867
     29 H9B2        5.0140   -1.0320    6.6380 h1        1 MNI      0.060867
     30 H9B3        4.0350   -2.0840    5.5150 h1        1 MNI      0.060867
     31 H6B         4.0960   -1.8530    3.2390 ha        1 MNI      0.160000
     32 H7B         3.1230   -1.7140    1.0330 ha        1 MNI      0.144000
     33 HN1B        1.3500   -1.5870   -0.5210 hn        1 MNI      0.458300
     34 H1A1       -0.0560   -0.3970   -2.0710 hx        1 MNI      0.121200
     35 H1A2        1.4190    0.4990   -2.6590 hx        1 MNI      0.121200
     36 H2A         1.0260   -2.6090   -2.7450 h1        1 MNI      0.056700
     37 HN5A       -0.1650   -1.8690   -4.5780 hn        1 MNI      0.399800
     38 H5M         1.7850   -1.0500   -6.2810 h1        1 MNI      0.093700
     39 H6A1        1.1050   -4.0550   -5.7370 h1        1 MNI      0.060200
     40 H6A2        1.7460   -3.2750   -7.2680 h1        1 MNI      0.060200
     41 HO6A       -0.2950   -2.2390   -7.3770 ho        1 MNI      0.415000
     42 H4A         3.1730   -3.3900   -4.9130 h1        1 MNI      0.064700
     43 HO4A        4.1140   -1.8970   -6.4510 ho        1 MNI      0.426000
     44 H3A         3.3890   -0.7170   -3.4300 h1        1 MNI      0.079700
     45 HO3A        4.2860   -2.8930   -2.7990 ho        1 MNI      0.446000
     46 H1B2        2.7280   -0.8750   -1.0950 hn        1 MNI      0.458300
@<TRIPOS>BOND
     1    1    2 2   
     2    2    3 1   
     3    2   12 1   
     4    3    4 ar  
     5    3   11 ar  
     6    4    5 ar  
     7    4   23 1   
     8    5    6 ar  
     9    5   24 1   
    10    6    7 1   
    11    6   10 ar  
    12    7    8 1   
    13    7    9 1   
    14    8   25 1   
    15    8   26 1   
    16    8   27 1   
    17    9   28 1   
    18    9   29 1   
    19    9   30 1   
    20   10   11 ar  
    21   10   31 1   
    22   11   32 1   
    23   12   13 1   
    24   12   33 1   
    25   12   46 1   
    26   13   14 1   
    27   13   34 1   
    28   13   35 1   
    29   14   15 1   
    30   14   21 1   
    31   14   36 1   
    32   15   16 1   
    33   15   37 1   
    34   16   17 1   
    35   16   19 1   
    36   16   38 1   
    37   17   18 1   
    38   17   39 1   
    39   17   40 1   
    40   18   41 1   
    41   19   20 1   
    42   19   21 1   
    43   19   42 1   
    44   20   43 1   
    45   21   22 1   
    46   21   44 1   
    47   22   45 1   
@<TRIPOS>SUBSTRUCTURE
     1 MNI         1 TEMP              0 ****  ****    0 ROOT
