@<TRIPOS>MOLECULE
MNI
   45    46     1     0     0
SMALL
bcc


@<TRIPOS>ATOM
      1 O1B        -1.0410    0.1960    3.2450 o         1 MNI     -0.606100
      2 C1B        -1.1000    1.4050    3.5490 c         1 MNI      0.666700
      3 C2B        -1.0030    1.8660    4.9580 ca        1 MNI     -0.195600
      4 C3B        -1.5950    1.0940    5.9630 ca        1 MNI     -0.054000
      5 C4B        -1.5210    1.4810    7.2940 ca        1 MNI     -0.205000
      6 C5B        -0.8250    2.6590    7.6690 ca        1 MNI      0.190600
      7 N5B        -0.6750    3.0170    9.0170 nh        1 MNI     -0.662000
      8 C8B        -1.5230    2.3710    9.9840 c3        1 MNI      0.189100
      9 C9B        -0.2620    4.3630    9.3130 c3        1 MNI      0.189100
     10 C6B        -0.2240    3.4260    6.6380 ca        1 MNI     -0.205000
     11 C7B        -0.3120    3.0300    5.3100 ca        1 MNI     -0.054000
     12 N1B        -1.3320    2.3770    2.5790 n         1 MNI     -0.545900
     13 C1A        -1.1130    2.1040    1.1860 c3        1 MNI      0.091000
     14 C2A         0.3250    2.4660    0.7290 c3        1 MNI      0.098500
     15 N5A         0.5260    2.2050   -0.6990 n3        1 MNI     -0.791200
     16 C5M         1.2320    3.3390   -1.3000 c3        1 MNI      0.077500
     17 C6A         2.5470    2.9890   -2.0100 c3        1 MNI      0.113400
     18 O6A         2.3240    2.3970   -3.2720 oh        1 MNI     -0.590800
     19 C4A         1.4830    4.4140   -0.2050 c3        1 MNI      0.098100
     20 O4A         1.0320    5.6890   -0.6110 oh        1 MNI     -0.578800
     21 C3A         0.6140    3.9710    0.9920 c3        1 MNI      0.127100
     22 O3A         1.2200    4.1780    2.2450 oh        1 MNI     -0.587800
     23 H3B        -2.1210    0.1650    5.6870 ha        1 MNI      0.147000
     24 H4B        -2.0080    0.8490    8.0510 ha        1 MNI      0.137500
     25 H8B1       -1.3380    2.8030   11.0020 h1        1 MNI      0.039533
     26 H8B2       -1.2730    1.2760   10.0170 h1        1 MNI      0.039533
     27 H8B3       -2.6140    2.4830    9.7380 h1        1 MNI      0.039533
     28 H9B1        0.7960    4.5070    8.9620 h1        1 MNI      0.039533
     29 H9B2       -0.2900    4.5390   10.4200 h1        1 MNI      0.039533
     30 H9B3       -0.9130    5.1300    8.8110 h1        1 MNI      0.039533
     31 H6B         0.3300    4.3470    6.8720 ha        1 MNI      0.137500
     32 H7B         0.1880    3.6400    4.5380 ha        1 MNI      0.147000
     33 HN1B       -1.1980    3.3260    2.8540 hn        1 MNI      0.305500
     34 H1A1       -1.2970    1.0100    0.9890 h1        1 MNI      0.077700
     35 H1A2       -1.8550    2.7080    0.5900 h1        1 MNI      0.077700
     36 H2A         1.0430    1.8540    1.3550 h1        1 MNI      0.041700
     37 HN5A        1.0340    1.3500   -0.8250 hn        1 MNI      0.360800
     38 H5M         0.5260    3.7680   -2.0730 h1        1 MNI      0.095700
     39 H6A1        3.1890    2.3190   -1.3760 h1        1 MNI      0.047700
     40 H6A2        3.1130    3.9320   -2.2410 h1        1 MNI      0.047700
     41 HO6A        1.7610    1.6240   -3.1400 ho        1 MNI      0.407000
     42 H4A         2.5690    4.4640    0.0790 h1        1 MNI      0.043700
     43 HO4A        1.5080    5.9100   -1.4220 ho        1 MNI      0.407000
     44 H3A        -0.3290    4.5840    1.0280 h1        1 MNI      0.112700
     45 HO3A        2.0720    3.7250    2.2470 ho        1 MNI      0.402000
@<TRIPOS>BOND
     1    1    2 2   
     2    2    3 1   
     3    2   12 1   
     4    3    4 ar  
     5    3   11 ar  
     6    4    5 ar  
     7    4   23 1   
     8    5    6 ar  
     9    5   24 1   
    10    6    7 1   
    11    6   10 ar  
    12    7    8 1   
    13    7    9 1   
    14    8   25 1   
    15    8   26 1   
    16    8   27 1   
    17    9   28 1   
    18    9   29 1   
    19    9   30 1   
    20   10   11 ar  
    21   10   31 1   
    22   11   32 1   
    23   12   13 1   
    24   12   33 1   
    25   13   14 1   
    26   13   34 1   
    27   13   35 1   
    28   14   15 1   
    29   14   21 1   
    30   14   36 1   
    31   15   16 1   
    32   15   37 1   
    33   16   17 1   
    34   16   19 1   
    35   16   38 1   
    36   17   18 1   
    37   17   39 1   
    38   17   40 1   
    39   18   41 1   
    40   19   20 1   
    41   19   21 1   
    42   19   42 1   
    43   20   43 1   
    44   21   22 1   
    45   21   44 1   
    46   22   45 1   
@<TRIPOS>SUBSTRUCTURE
     1 MNI         1 TEMP              0 ****  ****    0 ROOT
