@<TRIPOS>MOLECULE
MNI
   46    47     1     0     0
SMALL
bcc


@<TRIPOS>ATOM
      1 O1B         0.8140    1.3680   -0.3050 o         1 MNI     -0.462100
      2 C1B         1.4970    0.4250    0.0820 c         1 MNI      0.581700
      3 C2B         2.1340    0.2370    1.3640 ca        1 MNI     -0.301600
      4 C3B         1.9590    1.2690    2.3160 ca        1 MNI     -0.004000
      5 C4B         2.5230    1.1900    3.5690 ca        1 MNI     -0.225500
      6 C5B         3.3080    0.0570    3.9530 ca        1 MNI      0.275600
      7 N5B         3.8740   -0.0330    5.1950 nh        1 MNI     -0.641000
      8 C8B         3.6920    1.0220    6.1590 c3        1 MNI      0.186600
      9 C9B         4.6610   -1.1820    5.5600 c3        1 MNI      0.186600
     10 C6B         3.4770   -0.9800    2.9770 ca        1 MNI     -0.225500
     11 C7B         2.9060   -0.8840    1.7280 ca        1 MNI     -0.004000
     12 N1B         1.6890   -0.6930   -0.9350 n4        1 MNI     -0.674800
     13 C1A         1.0560   -0.4140   -2.2560 c3        1 MNI      0.113800
     14 C2A         1.3570   -1.5600   -3.2440 c3        1 MNI      0.145500
     15 N5A         0.7810   -1.2940   -4.5590 n3        1 MNI     -0.790200
     16 C5M         1.6750   -1.8470   -5.5810 c3        1 MNI      0.133500
     17 C6A         1.1310   -3.0700   -6.3390 c3        1 MNI      0.106400
     18 O6A        -0.1440   -2.7230   -6.8430 oh        1 MNI     -0.597800
     19 C4A         3.0230   -2.2290   -4.9000 c3        1 MNI      0.104100
     20 O4A         4.1320   -1.5740   -5.4750 oh        1 MNI     -0.587800
     21 C3A         2.8920   -1.6960   -3.4570 c3        1 MNI      0.114100
     22 O3A         3.3790   -2.5590   -2.4500 oh        1 MNI     -0.638800
     23 H3B         1.3550    2.1530    2.0410 ha        1 MNI      0.144000
     24 H4B         2.3590    2.0180    4.2770 ha        1 MNI      0.160000
     25 H8B1        2.5990    1.1560    6.3850 h1        1 MNI      0.060533
     26 H8B2        4.1040    1.9880    5.7590 h1        1 MNI      0.060533
     27 H8B3        4.2270    0.7720    7.1130 h1        1 MNI      0.060533
     28 H9B1        5.5450   -1.2830    4.8720 h1        1 MNI      0.060533
     29 H9B2        5.0380   -1.0750    6.6120 h1        1 MNI      0.060533
     30 H9B3        4.0390   -2.1160    5.4960 h1        1 MNI      0.060533
     31 H6B         4.0730   -1.8740    3.2200 ha        1 MNI      0.160000
     32 H7B         3.0760   -1.7170    1.0270 ha        1 MNI      0.144000
     33 HN1B        1.2970   -1.5570   -0.5480 hn        1 MNI      0.458300
     34 H1A1        1.4560    0.5670   -2.6430 hx        1 MNI      0.121700
     35 H1A2       -0.0550   -0.2990   -2.1010 hx        1 MNI      0.121700
     36 H2A         0.9720   -2.5250   -2.7940 h1        1 MNI      0.053700
     37 HN5A       -0.1500   -1.6550   -4.6460 hn        1 MNI      0.403800
     38 H5M         1.8420   -1.0130   -6.3250 h1        1 MNI      0.106700
     39 H6A1        1.0340   -3.9580   -5.6570 h1        1 MNI      0.035700
     40 H6A2        1.8390   -3.3230   -7.1720 h1        1 MNI      0.035700
     41 HO6A       -0.3810   -3.3900   -7.5000 ho        1 MNI      0.423000
     42 H4A         3.1870   -3.3410   -4.9070 h1        1 MNI      0.062700
     43 HO4A        4.1310   -1.7780   -6.4200 ho        1 MNI      0.427000
     44 H3A         3.4170   -0.7020   -3.3780 h1        1 MNI      0.079700
     45 HO3A        4.2230   -2.9180   -2.7580 ho        1 MNI      0.446000
     46 H1B2        2.6970   -0.8510   -1.0730 hn        1 MNI      0.458300
@<TRIPOS>BOND
     1    1    2 2   
     2    2    3 1   
     3    2   12 1   
     4    3    4 ar  
     5    3   11 ar  
     6    4    5 ar  
     7    4   23 1   
     8    5    6 ar  
     9    5   24 1   
    10    6    7 1   
    11    6   10 ar  
    12    7    8 1   
    13    7    9 1   
    14    8   25 1   
    15    8   26 1   
    16    8   27 1   
    17    9   28 1   
    18    9   29 1   
    19    9   30 1   
    20   10   11 ar  
    21   10   31 1   
    22   11   32 1   
    23   12   13 1   
    24   12   33 1   
    25   12   46 1   
    26   13   14 1   
    27   13   34 1   
    28   13   35 1   
    29   14   15 1   
    30   14   21 1   
    31   14   36 1   
    32   15   16 1   
    33   15   37 1   
    34   16   17 1   
    35   16   19 1   
    36   16   38 1   
    37   17   18 1   
    38   17   39 1   
    39   17   40 1   
    40   18   41 1   
    41   19   20 1   
    42   19   21 1   
    43   19   42 1   
    44   20   43 1   
    45   21   22 1   
    46   21   44 1   
    47   22   45 1   
@<TRIPOS>SUBSTRUCTURE
     1 MNI         1 TEMP              0 ****  ****    0 ROOT
