@<TRIPOS>MOLECULE
MNI
   47    48     1     0     0
SMALL
bcc


@<TRIPOS>ATOM
      1 O1B        -0.1000    1.1610   -0.0480 o         1 MNI     -0.376100
      2 C1B         1.0930    0.9000   -0.0910 c         1 MNI      0.553700
      3 C2B         1.9190    0.4390    1.0440 ca        1 MNI     -0.150600
      4 C3B         1.6020    0.9610    2.3080 ca        1 MNI     -0.049500
      5 C4B         2.2870    0.5240    3.4410 ca        1 MNI     -0.103000
      6 C5B         3.2900   -0.4530    3.3090 ca        1 MNI      0.016600
      7 N5B         4.0100   -0.9460    4.4980 n4        1 MNI     -0.561800
      8 C8B         4.7610    0.1520    5.1740 c3        1 MNI      0.085100
      9 C9B         3.0800   -1.6210    5.4510 c3        1 MNI      0.085100
     10 C6B         3.6060   -0.9790    2.0430 ca        1 MNI     -0.103000
     11 C7B         2.9180   -0.5300    0.9140 ca        1 MNI     -0.049500
     12 N1B         1.7850    1.1170   -1.4150 n4        1 MNI     -0.669800
     13 C1A         1.0580    0.4770   -2.5630 c3        1 MNI      0.082800
     14 C2A         1.5960   -0.9420   -2.8330 c3        1 MNI      0.153500
     15 N5A         0.8440   -1.7250   -3.8010 n3        1 MNI     -0.784200
     16 C5M         1.7670   -2.2500   -4.8190 c3        1 MNI      0.125500
     17 C6A         1.5050   -3.7350   -5.1180 c3        1 MNI      0.145400
     18 O6A         0.3550   -3.7640   -5.9410 oh        1 MNI     -0.596800
     19 C4A         3.2160   -2.0350   -4.2980 c3        1 MNI      0.112100
     20 O4A         4.0980   -1.6030   -5.3080 oh        1 MNI     -0.590800
     21 C3A         3.0780   -0.8620   -3.3030 c3        1 MNI      0.096100
     22 O3A         3.8930   -0.9540   -2.1500 oh        1 MNI     -0.662800
     23 H3B         0.7960    1.7120    2.4160 ha        1 MNI      0.197000
     24 H4B         2.0180    0.9500    4.4240 ha        1 MNI      0.182000
     25 H8B1        5.4650    0.6290    4.4400 hx        1 MNI      0.115200
     26 H8B2        4.0410    0.9210    5.5620 hx        1 MNI      0.115200
     27 H8B3        5.3430   -0.2830    6.0320 hx        1 MNI      0.115200
     28 H9B1        2.5440   -2.4540    4.9220 hx        1 MNI      0.115200
     29 H9B2        3.6800   -2.0370    6.3070 hx        1 MNI      0.115200
     30 H9B3        2.3330   -0.8800    5.8420 hx        1 MNI      0.115200
     31 H6B         4.3860   -1.7510    1.9140 ha        1 MNI      0.182000
     32 H7B         3.1700   -0.9820   -0.0670 ha        1 MNI      0.197000
     33 HN1B        2.7500    0.7490   -1.3770 hn        1 MNI      0.477300
     34 H1A1       -0.0450    0.4470   -2.3210 hx        1 MNI      0.127200
     35 H1A2        1.2070    1.1320   -3.4700 hx        1 MNI      0.127200
     36 H2A         1.5560   -1.5300   -1.8650 h1        1 MNI      0.077700
     37 HN5A        0.0810   -1.2280   -4.2190 hn        1 MNI      0.399800
     38 H5M         1.6500   -1.6900   -5.7970 h1        1 MNI      0.086700
     39 H6A1        2.3900   -4.1470   -5.6760 h1        1 MNI      0.040200
     40 H6A2        1.3430   -4.3290   -4.1810 h1        1 MNI      0.040200
     41 HO6A        0.1230   -4.6930   -6.0750 ho        1 MNI      0.427000
     42 H4A         3.6120   -2.9560   -3.7930 h1        1 MNI      0.072700
     43 HO4A        4.0970   -2.2750   -6.0060 ho        1 MNI      0.440000
     44 H3A         3.3070    0.1050   -3.8330 h1        1 MNI      0.076700
     45 HO3A        4.7710   -1.2380   -2.4410 ho        1 MNI      0.458000
     46 H5B1        4.6980   -1.6480    4.1800 hn        1 MNI      0.463800
     47 H1B2        1.8250    2.1310   -1.5830 hn        1 MNI      0.477300
@<TRIPOS>BOND
     1    1    2 2   
     2    2    3 1   
     3    2   12 1   
     4    3    4 ar  
     5    3   11 ar  
     6    4    5 ar  
     7    4   23 1   
     8    5    6 ar  
     9    5   24 1   
    10    6    7 1   
    11    6   10 ar  
    12    7    8 1   
    13    7    9 1   
    14    7   46 1   
    15    8   25 1   
    16    8   26 1   
    17    8   27 1   
    18    9   28 1   
    19    9   29 1   
    20    9   30 1   
    21   10   11 ar  
    22   10   31 1   
    23   11   32 1   
    24   12   13 1   
    25   12   33 1   
    26   12   47 1   
    27   13   14 1   
    28   13   34 1   
    29   13   35 1   
    30   14   15 1   
    31   14   21 1   
    32   14   36 1   
    33   15   16 1   
    34   15   37 1   
    35   16   17 1   
    36   16   19 1   
    37   16   38 1   
    38   17   18 1   
    39   17   39 1   
    40   17   40 1   
    41   18   41 1   
    42   19   20 1   
    43   19   21 1   
    44   19   42 1   
    45   20   43 1   
    46   21   22 1   
    47   21   44 1   
    48   22   45 1   
@<TRIPOS>SUBSTRUCTURE
     1 MNI         1 TEMP              0 ****  ****    0 ROOT
