@<TRIPOS>MOLECULE
MNK
   36    37     1     0     0
SMALL
bcc


@<TRIPOS>ATOM
      1 C1         -0.0660   -0.2660    0.0350 cc        1 MNK     -0.006100
      2 O1         -0.5930   -0.3060   -1.2490 oh        1 MNK     -0.508100
      3 C2          1.3560   -0.6000    0.1020 c         1 MNK      0.528500
      4 O2          1.8850   -1.2500   -0.8270 o         1 MNK     -0.589100
      5 C3          2.1910   -0.0540    1.1700 cc        1 MNK      0.017900
      6 O3          3.5390    0.0650    0.8800 oh        1 MNK     -0.503100
      7 C4          1.8200    0.3670    2.4050 cd        1 MNK     -0.108000
      8 C5          0.5360    0.2980    3.0260 cd        1 MNK     -0.065200
      9 C6         -0.6890    0.1440    2.4270 cd        1 MNK     -0.049200
     10 C7         -0.9540    0.1030    1.0140 cd        1 MNK     -0.025200
     11 C8          0.5970    0.4200    4.5160 c3        1 MNK     -0.064900
     12 C9         -1.8590    0.0400    3.3640 c3        1 MNK     -0.040200
     13 C10        -3.1930   -0.2390    2.6930 c3        1 MNK     -0.029500
     14 C11        -3.3620    0.7460    1.5500 c3        1 MNK     -0.071400
     15 C12        -2.3190    0.4620    0.4980 c3        1 MNK     -0.043200
     16 C13        -4.3290   -0.1720    3.6660 c2        1 MNK     -0.113400
     17 C14        -5.1760   -1.1980    3.8070 c2        1 MNK     -0.220000
     18 C15        -4.4790    1.0710    4.4620 c3        1 MNK     -0.061900
     19 H4          2.6400    0.7600    3.0420 ha        1 MNK      0.153000
     20 H8          0.2280   -0.5210    4.9960 hc        1 MNK      0.048700
     21 H8A        -0.0410    1.2700    4.8670 hc        1 MNK      0.048700
     22 H8B         1.6380    0.6010    4.8780 hc        1 MNK      0.048700
     23 H9         -1.6570   -0.7820    4.1060 hc        1 MNK      0.057700
     24 H9A        -1.9370    1.0030    3.9430 hc        1 MNK      0.057700
     25 H10        -3.1570   -1.2800    2.2540 hc        1 MNK      0.059700
     26 H11        -4.3840    0.6520    1.1010 hc        1 MNK      0.049200
     27 H11A       -3.2580    1.7960    1.9300 hc        1 MNK      0.049200
     28 H12        -2.6750   -0.3840   -0.1570 hc        1 MNK      0.068200
     29 H12A       -2.2060    1.3570   -0.1740 hc        1 MNK      0.068200
     30 H14        -5.0790   -2.1290    3.2340 ha        1 MNK      0.114000
     31 H14A       -6.0230   -1.1670    4.5050 ha        1 MNK      0.114000
     32 H15        -4.3210    1.9740    3.8220 hc        1 MNK      0.042367
     33 H15A       -5.4960    1.1380    4.9200 hc        1 MNK      0.042367
     34 H15B       -3.7240    1.0900    5.2890 hc        1 MNK      0.042367
     35 H17         0.0320   -0.7810   -1.8240 ho        1 MNK      0.442000
     36 H18         3.7190   -0.4290    0.0620 ho        1 MNK      0.443000
@<TRIPOS>BOND
     1    1    2 1   
     2    1    3 1   
     3    1   10 2   
     4    2   35 1   
     5    3    4 2   
     6    3    5 1   
     7    5    6 1   
     8    5    7 2   
     9    6   36 1   
    10    7    8 1   
    11    7   19 1   
    12    8    9 2   
    13    8   11 1   
    14    9   10 1   
    15    9   12 1   
    16   10   15 1   
    17   11   20 1   
    18   11   21 1   
    19   11   22 1   
    20   12   13 1   
    21   12   23 1   
    22   12   24 1   
    23   13   14 1   
    24   13   16 1   
    25   13   25 1   
    26   14   15 1   
    27   14   26 1   
    28   14   27 1   
    29   15   28 1   
    30   15   29 1   
    31   16   17 2   
    32   16   18 1   
    33   17   30 1   
    34   17   31 1   
    35   18   32 1   
    36   18   33 1   
    37   18   34 1   
@<TRIPOS>SUBSTRUCTURE
     1 MNK         1 TEMP              0 ****  ****    0 ROOT
