@<TRIPOS>MOLECULE
MNK
   36    37     1     0     0
SMALL
bcc


@<TRIPOS>ATOM
      1 C1          1.4750    1.2770   -0.2190 cc        1 MNK     -0.006100
      2 O1          1.5910    2.6610   -0.1990 oh        1 MNK     -0.508100
      3 C2          2.7210    0.5820   -0.5380 c         1 MNK      0.528500
      4 O2          3.6380    1.1920   -1.1310 o         1 MNK     -0.589100
      5 C3          2.9580   -0.7700   -0.0370 cc        1 MNK      0.017900
      6 O3          4.2840   -1.1330    0.1160 oh        1 MNK     -0.503100
      7 C4          2.0500   -1.7160    0.3110 cd        1 MNK     -0.108000
      8 C5          0.6280   -1.6790    0.1900 cd        1 MNK     -0.065200
      9 C6         -0.1840   -0.5810    0.0560 cd        1 MNK     -0.049200
     10 C7          0.2270    0.7970    0.0900 cd        1 MNK     -0.025200
     11 C8         -0.0010   -3.0370    0.2260 c3        1 MNK     -0.064900
     12 C9         -1.6470   -0.8760   -0.1180 c3        1 MNK     -0.039200
     13 C10        -2.5330    0.3420   -0.3320 c3        1 MNK     -0.029500
     14 C11        -2.1730    1.3840    0.7110 c3        1 MNK     -0.072400
     15 C12        -0.7640    1.8630    0.4620 c3        1 MNK     -0.042200
     16 C13        -3.9800   -0.0430   -0.2840 c2        1 MNK     -0.113400
     17 C14        -4.6900   -0.2000   -1.4070 c2        1 MNK     -0.221000
     18 C15        -4.5860   -0.2300    1.0570 c3        1 MNK     -0.060900
     19 H4          2.4750   -2.6730    0.6810 ha        1 MNK      0.153000
     20 H8          0.7580   -3.8450    0.3720 hc        1 MNK      0.048700
     21 H8A        -0.7400   -3.1050    1.0650 hc        1 MNK      0.048700
     22 H8B        -0.5370   -3.2420   -0.7350 hc        1 MNK      0.048700
     23 H9         -1.7720   -1.5620   -1.0010 hc        1 MNK      0.057700
     24 H9A        -2.0100   -1.4310    0.7910 hc        1 MNK      0.057700
     25 H10        -2.3080    0.7720   -1.3510 hc        1 MNK      0.059700
     26 H11        -2.8800    2.2520    0.6560 hc        1 MNK      0.049200
     27 H11A       -2.2620    0.9410    1.7370 hc        1 MNK      0.049200
     28 H12        -0.3760    2.3870    1.3790 hc        1 MNK      0.068200
     29 H12A       -0.7730    2.6310   -0.3630 hc        1 MNK      0.068200
     30 H14        -5.7500   -0.4830   -1.3950 ha        1 MNK      0.114000
     31 H14A       -4.2570   -0.0530   -2.4050 ha        1 MNK      0.114000
     32 H15        -3.9510   -0.9030    1.6860 hc        1 MNK      0.042367
     33 H15A       -4.6690    0.7570    1.5790 hc        1 MNK      0.042367
     34 H15B       -5.6080   -0.6750    0.9830 hc        1 MNK      0.042367
     35 H17         2.4270    2.9060   -0.6310 ho        1 MNK      0.442000
     36 H18         4.8350   -0.4680   -0.3310 ho        1 MNK      0.443000
@<TRIPOS>BOND
     1    1    2 1   
     2    1    3 1   
     3    1   10 2   
     4    2   35 1   
     5    3    4 2   
     6    3    5 1   
     7    5    6 1   
     8    5    7 2   
     9    6   36 1   
    10    7    8 1   
    11    7   19 1   
    12    8    9 2   
    13    8   11 1   
    14    9   10 1   
    15    9   12 1   
    16   10   15 1   
    17   11   20 1   
    18   11   21 1   
    19   11   22 1   
    20   12   13 1   
    21   12   23 1   
    22   12   24 1   
    23   13   14 1   
    24   13   16 1   
    25   13   25 1   
    26   14   15 1   
    27   14   26 1   
    28   14   27 1   
    29   15   28 1   
    30   15   29 1   
    31   16   17 2   
    32   16   18 1   
    33   17   30 1   
    34   17   31 1   
    35   18   32 1   
    36   18   33 1   
    37   18   34 1   
@<TRIPOS>SUBSTRUCTURE
     1 MNK         1 TEMP              0 ****  ****    0 ROOT
