@<TRIPOS>MOLECULE
MNK
   36    33     1     0     0
SMALL
bcc


@<TRIPOS>ATOM
      1 C1          1.3420    1.5140   -2.0890 c1        1 MNK     -0.034000
      2 O1          0.6430    2.5340   -2.7600 o         1 MNK     -0.262000
      3 C2          2.8640    1.4980   -2.1040 c2        1 MNK      0.259000
      4 O2          3.5420    1.5240   -3.1120 o         1 MNK     -0.330000
      5 C3          3.4250    1.4500   -0.6860 c2        1 MNK     -0.014000
      6 O3          3.9530    2.6140   -0.0980 oh        1 MNK     -0.256000
      7 C4          3.4230    0.1380    0.0900 c1        1 MNK     -0.112000
      8 C5          2.1390   -0.3790    0.6980 c1        1 MNK     -0.059000
      9 C6          0.8020    0.1380    0.1960 c1        1 MNK     -0.052000
     10 C7          0.5760    0.4020   -1.3810 c2        1 MNK     -0.024000
     11 C8          2.1870   -1.3540    1.8530 c3        1 MNK     -0.185000
     12 C9         -0.3690    0.0350    1.0220 c2        1 MNK     -0.123000
     13 C10        -1.6380   -0.7260    0.2300 c3        1 MNK     -0.074000
     14 C11        -1.8700   -0.1900   -0.9440 c3        1 MNK     -0.150000
     15 C12        -0.6140   -0.1660   -1.9870 c3        1 MNK     -0.129000
     16 C13        -2.9650   -0.6910    1.1200 c2        1 MNK     -0.106000
     17 C14        -3.4350    0.4840    1.5830 c1        1 MNK     -0.222000
     18 C15        -3.6940   -1.9770    1.4430 c3        1 MNK     -0.183000
     19 H4          4.2560   -0.3550    0.2170 ha        1 MNK      0.154000
     20 H8          1.7720   -0.9470    2.6420 hc        1 MNK      0.088000
     21 H8A         1.7010   -2.1700    1.6130 hc        1 MNK      0.088000
     22 H8B         3.1210   -1.5770    2.0540 hc        1 MNK      0.088000
     23 H9         -0.5250    0.9000    1.4550 ha        1 MNK      0.097000
     24 H9A        -0.1940   -0.5200    1.8080 ha        1 MNK      0.097000
     25 H10        -1.4800   -1.6890    0.1690 hc        1 MNK      0.097000
     26 H11        -2.6050   -0.6840   -1.3640 hc        1 MNK      0.089500
     27 H11A       -2.1650    0.7340   -0.8030 hc        1 MNK      0.089500
     28 H12        -0.9440    0.1080   -2.8660 hc        1 MNK      0.108000
     29 H12A       -0.3260   -1.0790   -2.1980 hc        1 MNK      0.108000
     30 H14        -2.9640    1.3160    1.3750 DU        1 MNK      0.113000
     31 H14A       -4.2470    0.5060    2.1280 ha        1 MNK      0.115000
     32 H15        -4.6610   -1.8310    1.3710 hc        1 MNK      0.082000
     33 H15A       -3.4210   -2.6740    0.8110 hc        1 MNK      0.082000
     34 H15B       -3.4730   -2.2570    2.3550 hc        1 MNK      0.082000
     35 H17         1.0280    2.6900   -3.5460 ho        1 MNK      0.237000
     36 H18         4.8180    2.6790   -0.2930 ho        1 MNK      0.239000
@<TRIPOS>BOND
     1    1    3 1   
     2    1   10 1   
     3    2   35 1   
     4    3    4 1   
     5    3    5 1   
     6    5    6 1   
     7    5    7 1   
     8    6   36 1   
     9    7   19 1   
    10    8    9 1   
    11    8   11 1   
    12    9   10 1   
    13   10   15 1   
    14   11   20 1   
    15   11   21 1   
    16   11   22 1   
    17   12   13 1   
    18   12   23 1   
    19   12   24 1   
    20   13   14 1   
    21   13   16 1   
    22   13   25 1   
    23   14   15 1   
    24   14   26 1   
    25   14   27 1   
    26   15   28 1   
    27   15   29 1   
    28   16   17 1   
    29   16   18 1   
    30   17   31 1   
    31   18   32 1   
    32   18   33 1   
    33   18   34 1   
@<TRIPOS>SUBSTRUCTURE
     1 MNK         1 TEMP              0 ****  ****    0 ROOT
