@<TRIPOS>MOLECULE
MNK
   36    37     1     0     0
SMALL
bcc


@<TRIPOS>ATOM
      1 C1         -0.0600   -0.2500    0.0250 cc        1 MNK     -0.006100
      2 O1         -0.5890   -0.2810   -1.2580 oh        1 MNK     -0.508100
      3 C2          1.3620   -0.5820    0.0880 c         1 MNK      0.528500
      4 O2          1.8910   -1.2240   -0.8460 o         1 MNK     -0.589100
      5 C3          2.1970   -0.0430    1.1590 cc        1 MNK      0.017900
      6 O3          3.5450    0.0800    0.8690 oh        1 MNK     -0.503100
      7 C4          1.8270    0.3680    2.3980 cd        1 MNK     -0.108000
      8 C5          0.5450    0.2930    3.0200 cd        1 MNK     -0.065200
      9 C6         -0.6810    0.1410    2.4210 cd        1 MNK     -0.049200
     10 C7         -0.9480    0.1110    1.0080 cd        1 MNK     -0.025200
     11 C8          0.6070    0.4040    4.5110 c3        1 MNK     -0.064900
     12 C9         -1.8500    0.0290    3.3590 c3        1 MNK     -0.040200
     13 C10        -3.1840   -0.2470    2.6870 c3        1 MNK     -0.029500
     14 C11        -3.3560    0.7470    1.5520 c3        1 MNK     -0.071400
     15 C12        -2.3140    0.4720    0.4970 c3        1 MNK     -0.043200
     16 C13        -4.3190   -0.1890    3.6620 c2        1 MNK     -0.113400
     17 C14        -5.1640   -1.2170    3.7970 c2        1 MNK     -0.220000
     18 C15        -4.4700    1.0490    4.4670 c3        1 MNK     -0.061900
     19 H4          2.6480    0.7580    3.0370 ha        1 MNK      0.153000
     20 H8         -0.0320    1.2500    4.8690 hc        1 MNK      0.048700
     21 H8A         0.2390   -0.5420    4.9840 hc        1 MNK      0.048700
     22 H8B         1.6480    0.5840    4.8730 hc        1 MNK      0.048700
     23 H9         -1.6460   -0.7980    4.0940 hc        1 MNK      0.057700
     24 H9A        -1.9280    0.9870    3.9450 hc        1 MNK      0.057700
     25 H10        -3.1480   -1.2840    2.2400 hc        1 MNK      0.059700
     26 H11        -4.3790    0.6550    1.1030 hc        1 MNK      0.049200
     27 H11A       -3.2520    1.7940    1.9400 hc        1 MNK      0.049200
     28 H12        -2.2030    1.3720   -0.1690 hc        1 MNK      0.068200
     29 H12A       -2.6690   -0.3690   -0.1640 hc        1 MNK      0.068200
     30 H14        -5.0660   -2.1440    3.2180 ha        1 MNK      0.114000
     31 H14A       -6.0100   -1.1920    4.4960 ha        1 MNK      0.114000
     32 H15        -5.4870    1.1110    4.9270 hc        1 MNK      0.042367
     33 H15A       -4.3160    1.9560    3.8320 hc        1 MNK      0.042367
     34 H15B       -3.7140    1.0650    5.2920 hc        1 MNK      0.042367
     35 H17         0.0360   -0.7500   -1.8380 ho        1 MNK      0.442000
     36 H18         3.7250   -0.4080    0.0460 ho        1 MNK      0.443000
@<TRIPOS>BOND
     1    1    2 1   
     2    1    3 1   
     3    1   10 2   
     4    2   35 1   
     5    3    4 2   
     6    3    5 1   
     7    5    6 1   
     8    5    7 2   
     9    6   36 1   
    10    7    8 1   
    11    7   19 1   
    12    8    9 2   
    13    8   11 1   
    14    9   10 1   
    15    9   12 1   
    16   10   15 1   
    17   11   20 1   
    18   11   21 1   
    19   11   22 1   
    20   12   13 1   
    21   12   23 1   
    22   12   24 1   
    23   13   14 1   
    24   13   16 1   
    25   13   25 1   
    26   14   15 1   
    27   14   26 1   
    28   14   27 1   
    29   15   28 1   
    30   15   29 1   
    31   16   17 2   
    32   16   18 1   
    33   17   30 1   
    34   17   31 1   
    35   18   32 1   
    36   18   33 1   
    37   18   34 1   
@<TRIPOS>SUBSTRUCTURE
     1 MNK         1 TEMP              0 ****  ****    0 ROOT
