@<TRIPOS>MOLECULE
MNL
   27    26     1     0     0
SMALL
bcc


@<TRIPOS>ATOM
      1 N          -1.4030   -0.7400   -0.8560 n3        1 MNL     -0.806200
      2 CA         -0.3200    0.2430   -0.7750 c3        1 MNL      0.026500
      3 C           0.5690    0.3260   -2.0630 c         1 MNL      0.890600
      4 O           1.2220    1.3910   -2.2420 o         1 MNL     -0.843800
      5 OXT         0.5860   -0.6670   -2.8460 o         1 MNL     -0.843800
      6 CB          0.6230   -0.0320    0.4010 c3        1 MNL     -0.053400
      7 CG         -0.0150    0.1880    1.7660 c3        1 MNL     -0.067700
      8 CD          0.7840   -0.5490    2.8350 c3        1 MNL     -0.077400
      9 CE          0.0930   -0.5690    4.1740 c3        1 MNL     -0.088100
     10 CM1        -2.4330   -0.3460   -1.7860 c3        1 MNL      0.154100
     11 CM4        -0.1020    1.6670    2.0850 c3        1 MNL     -0.082100
     12 H          -0.9940   -1.6030   -1.1810 hn        1 MNL      0.353800
     13 HA         -0.7860    1.2590   -0.6290 h1        1 MNL      0.041700
     14 HB2         1.5040    0.6540    0.2830 hc        1 MNL      0.044200
     15 HB3         1.0040   -1.0850    0.3290 hc        1 MNL      0.044200
     16 HG         -1.0580   -0.2360    1.7530 hc        1 MNL      0.059700
     17 HD2         1.7940   -0.0710    2.9380 hc        1 MNL      0.032700
     18 HD3         0.9510   -1.6070    2.4970 hc        1 MNL      0.032700
     19 HE1         0.6660   -1.1980    4.8980 hc        1 MNL      0.021367
     20 HE2         0.0110    0.4620    4.5960 hc        1 MNL      0.021367
     21 HE3        -0.9370   -0.9900    4.0790 hc        1 MNL      0.021367
     22 HM11       -3.1930   -1.1690   -1.8510 h1        1 MNL      0.015367
     23 HM12       -2.9410    0.5780   -1.4040 h1        1 MNL      0.015367
     24 HM13       -2.0460   -0.1330   -2.8210 h1        1 MNL      0.015367
     25 HM41        0.9190    2.1060    2.1990 hc        1 MNL      0.024367
     26 HM42       -0.6250    2.2080    1.2600 hc        1 MNL      0.024367
     27 HM43       -0.6670    1.8340    3.0330 hc        1 MNL      0.024367
@<TRIPOS>BOND
     1    1    2 1   
     2    1   10 1   
     3    1   12 1   
     4    2    3 1   
     5    2    6 1   
     6    2   13 1   
     7    3    4 1   
     8    3    5 1   
     9    6    7 1   
    10    6   14 1   
    11    6   15 1   
    12    7    8 1   
    13    7   11 1   
    14    7   16 1   
    15    8    9 1   
    16    8   17 1   
    17    8   18 1   
    18    9   19 1   
    19    9   20 1   
    20    9   21 1   
    21   10   22 1   
    22   10   23 1   
    23   10   24 1   
    24   11   25 1   
    25   11   26 1   
    26   11   27 1   
@<TRIPOS>SUBSTRUCTURE
     1 MNL         1 TEMP              0 ****  ****    0 ROOT
