@<TRIPOS>MOLECULE
MNM
   24    24     1     0     0
SMALL
bcc


@<TRIPOS>ATOM
      1 C1         -0.1310    0.0030    0.0470 c3        1 MNM      0.120100
      2 C2          1.4100    0.1750    0.0180 c3        1 MNM      0.336300
      3 C3         -0.5200   -1.3230    0.7200 c3        1 MNM      0.115100
      4 O4         -0.6650    0.0660   -1.2580 oh        1 MNM     -0.601800
      5 O5          1.8620   -0.7460   -0.9900 oh        1 MNM     -0.646800
      6 N6          2.0190   -0.0260    1.3180 n3        1 MNM     -0.837200
      7 O7         -1.9300   -1.4200    0.8530 oh        1 MNM     -0.602800
      8 C8          0.0940   -1.3950    2.1180 c3        1 MNM     -0.061700
      9 C9         -0.2470   -2.7300    2.7700 c3        1 MNM      0.134400
     10 C10         1.6150   -1.2320    2.0160 c3        1 MNM      0.165800
     11 O11         0.2460   -2.6940    4.1010 oh        1 MNM     -0.606800
     12 HC1        -0.5980    0.8700    0.5930 h1        1 MNM      0.100700
     13 HC2         1.6530    1.2290   -0.3130 h2        1 MNM      0.063700
     14 HC3        -0.1530   -2.1810    0.0870 h1        1 MNM      0.048700
     15 HO4        -0.1890   -0.5780   -1.8020 ho        1 MNM      0.421000
     16 HO5         2.7240   -0.4480   -1.2980 ho        1 MNM      0.407000
     17 HN6         3.0180    0.0110    1.2480 hn        1 MNM      0.370800
     18 HO7        -2.3080   -1.1090    0.0190 ho        1 MNM      0.417000
     19 HC8        -0.3330   -0.5700    2.7510 hc        1 MNM      0.086700
     20 HC91       -1.3610   -2.8720    2.7630 h1        1 MNM      0.035700
     21 HC92        0.2380   -3.5790    2.2170 h1        1 MNM      0.035700
     22 H1          2.0360   -2.1580    1.5250 h1        1 MNM      0.048200
     23 H10         2.0310   -1.1750    3.0620 h1        1 MNM      0.048200
     24 H11        -0.1580   -3.4370    4.5620 ho        1 MNM      0.402000
@<TRIPOS>BOND
     1    1    2 1   
     2    1    3 1   
     3    1    4 1   
     4    1   12 1   
     5    2    5 1   
     6    2    6 1   
     7    2   13 1   
     8    3    7 1   
     9    3    8 1   
    10    3   14 1   
    11    4   15 1   
    12    5   16 1   
    13    6   10 1   
    14    6   17 1   
    15    7   18 1   
    16    8    9 1   
    17    8   10 1   
    18    8   19 1   
    19    9   11 1   
    20    9   20 1   
    21    9   21 1   
    22   10   22 1   
    23   10   23 1   
    24   11   24 1   
@<TRIPOS>SUBSTRUCTURE
     1 MNM         1 TEMP              0 ****  ****    0 ROOT
