@<TRIPOS>MOLECULE
MNM
   24    24     1     0     0
SMALL
bcc


@<TRIPOS>ATOM
      1 C1         -0.1230    0.0230    0.0650 c3        1 MNM      0.120100
      2 C2          1.4200    0.1640    0.0150 c3        1 MNM      0.336300
      3 C3         -0.5300   -1.3010    0.7320 c3        1 MNM      0.115100
      4 O4         -0.6740    0.1070   -1.2330 oh        1 MNM     -0.601800
      5 O5          1.8400   -0.7560   -1.0070 oh        1 MNM     -0.646800
      6 N6          2.0430   -0.0600    1.3050 n3        1 MNM     -0.837200
      7 O7         -1.9390   -1.3710    0.8830 oh        1 MNM     -0.602800
      8 C8          0.1030   -1.3970    2.1200 c3        1 MNM     -0.061700
      9 C9         -0.2560   -2.7310    2.7660 c3        1 MNM      0.134400
     10 C10         1.6250   -1.2630    1.9980 c3        1 MNM      0.165800
     11 O11         0.2570   -2.7160    4.0900 oh        1 MNM     -0.606800
     12 HC1        -0.5660    0.8940    0.6240 h1        1 MNM      0.100700
     13 HC2         1.6790    1.2160   -0.3100 h2        1 MNM      0.063700
     14 HC3        -0.1880   -2.1600    0.0860 h1        1 MNM      0.048700
     15 HO4        -0.2180   -0.5410   -1.7890 ho        1 MNM      0.421000
     16 HO5         2.7040   -0.4730   -1.3240 ho        1 MNM      0.407000
     17 HN6         3.0410   -0.0420    1.2220 hn        1 MNM      0.370800
     18 HO7        -2.3220   -1.0450    0.0570 ho        1 MNM      0.417000
     19 HC8        -0.2990   -0.5700    2.7660 hc        1 MNM      0.086700
     20 HC91       -1.3730   -2.8510    2.7730 h1        1 MNM      0.035700
     21 HC92        0.2040   -3.5840    2.1980 h1        1 MNM      0.035700
     22 H1          2.0560   -1.2230    3.0390 h1        1 MNM      0.048200
     23 H10         2.0210   -2.1940    1.4940 h1        1 MNM      0.048200
     24 H11        -0.1550   -3.4560    4.5510 ho        1 MNM      0.402000
@<TRIPOS>BOND
     1    1    2 1   
     2    1    3 1   
     3    1    4 1   
     4    1   12 1   
     5    2    5 1   
     6    2    6 1   
     7    2   13 1   
     8    3    7 1   
     9    3    8 1   
    10    3   14 1   
    11    4   15 1   
    12    5   16 1   
    13    6   10 1   
    14    6   17 1   
    15    7   18 1   
    16    8    9 1   
    17    8   10 1   
    18    8   19 1   
    19    9   11 1   
    20    9   20 1   
    21    9   21 1   
    22   10   22 1   
    23   10   23 1   
    24   11   24 1   
@<TRIPOS>SUBSTRUCTURE
     1 MNM         1 TEMP              0 ****  ****    0 ROOT
