@<TRIPOS>MOLECULE
MNM
   24    24     1     0     0
SMALL
bcc


@<TRIPOS>ATOM
      1 C1         -1.3560    0.4720   -0.5740 c3        1 MNM      0.120100
      2 C2         -1.6060   -1.0480   -0.4040 c3        1 MNM      0.336300
      3 C3         -0.0940    0.9080    0.1890 c3        1 MNM      0.115100
      4 O4         -2.4750    1.2140   -0.1350 oh        1 MNM     -0.601800
      5 O5         -2.0810   -1.1930    0.9460 oh        1 MNM     -0.646800
      6 N6         -0.4310   -1.8440   -0.7060 n3        1 MNM     -0.837200
      7 O7          0.1970    2.2730   -0.0680 oh        1 MNM     -0.602800
      8 C8          1.1010    0.0730   -0.2690 c3        1 MNM     -0.061700
      9 C9          2.3450    0.4670    0.5200 c3        1 MNM      0.134400
     10 C10         0.7950   -1.4150   -0.0620 c3        1 MNM      0.165800
     11 O11         3.4420   -0.2520   -0.0240 oh        1 MNM     -0.606800
     12 HC1        -1.2560    0.7200   -1.6680 h1        1 MNM      0.100700
     13 HC2        -2.4250   -1.3650   -1.1170 h2        1 MNM      0.063700
     14 HC3        -0.2660    0.7720    1.2950 h1        1 MNM      0.048700
     15 HO4        -2.6820    0.9280    0.7660 ho        1 MNM      0.421000
     16 HO5        -2.5710   -2.0200    1.0000 ho        1 MNM      0.407000
     17 HN6        -0.6020   -2.8120   -0.5080 hn        1 MNM      0.370800
     18 HO7        -0.6460    2.7470   -0.0300 ho        1 MNM      0.417000
     19 HC8         1.2940    0.2720   -1.3590 hc        1 MNM      0.086700
     20 HC91        2.2280    0.2020    1.6060 h1        1 MNM      0.035700
     21 HC92        2.5090    1.5740    0.4250 h1        1 MNM      0.035700
     22 H1          1.6410   -2.0110   -0.5090 h1        1 MNM      0.048200
     23 H10         0.7760   -1.6190    1.0490 h1        1 MNM      0.048200
     24 H11         4.2400    0.1580    0.3280 ho        1 MNM      0.402000
@<TRIPOS>BOND
     1    1    2 1   
     2    1    3 1   
     3    1    4 1   
     4    1   12 1   
     5    2    5 1   
     6    2    6 1   
     7    2   13 1   
     8    3    7 1   
     9    3    8 1   
    10    3   14 1   
    11    4   15 1   
    12    5   16 1   
    13    6   10 1   
    14    6   17 1   
    15    7   18 1   
    16    8    9 1   
    17    8   10 1   
    18    8   19 1   
    19    9   11 1   
    20    9   20 1   
    21    9   21 1   
    22   10   22 1   
    23   10   23 1   
    24   11   24 1   
@<TRIPOS>SUBSTRUCTURE
     1 MNM         1 TEMP              0 ****  ****    0 ROOT
