@<TRIPOS>MOLECULE
MNM
   24    24     1     0     0
SMALL
bcc


@<TRIPOS>ATOM
      1 C1         -0.1210    0.0090    0.0480 c3        1 MNM      0.120100
      2 C2          1.4220    0.1620    0.0130 c3        1 MNM      0.336300
      3 C3         -0.5240   -1.3120    0.7230 c3        1 MNM      0.115100
      4 O4         -0.6580    0.0760   -1.2560 oh        1 MNM     -0.601800
      5 O5          1.8600   -0.7660   -0.9950 oh        1 MNM     -0.646800
      6 N6          2.0320   -0.0450    1.3120 n7        1 MNM     -0.837200
      7 O7         -1.9350   -1.3920    0.8610 oh        1 MNM     -0.602800
      8 C8          0.0940   -1.3900    2.1190 c3        1 MNM     -0.061700
      9 C9         -0.2610   -2.7200    2.7740 c3        1 MNM      0.134400
     10 C10         1.6170   -1.2450    2.0120 c3        1 MNM      0.165800
     11 O11         0.2380   -2.6880    4.1030 oh        1 MNM     -0.606800
     12 HC1        -0.5760    0.8810    0.5940 h1        1 MNM      0.100700
     13 HC2         1.6760    1.2120   -0.3200 h2        1 MNM      0.063700
     14 HC3        -0.1690   -2.1750    0.0900 h1        1 MNM      0.048700
     15 HO4        -0.1920   -0.5740   -1.8010 ho        1 MNM      0.421000
     16 HO5         2.7240   -0.4780   -1.3060 ho        1 MNM      0.407000
     17 HN6         3.0320   -0.0200    1.2390 hn        1 MNM      0.370800
     18 HO7        -2.3110   -1.0770    0.0270 ho        1 MNM      0.417000
     19 HC8        -0.3210   -0.5590    2.7530 hc        1 MNM      0.086700
     20 HC91        0.2120   -3.5750    2.2200 h1        1 MNM      0.035700
     21 HC92       -1.3770   -2.8480    2.7710 h1        1 MNM      0.035700
     22 H1          2.0250   -2.1770    1.5210 h1        1 MNM      0.048200
     23 H10         2.0370   -1.1920    3.0570 h1        1 MNM      0.048200
     24 H11        -0.1730   -3.4260    4.5670 ho        1 MNM      0.402000
@<TRIPOS>BOND
     1    1    2 1   
     2    1    3 1   
     3    1    4 1   
     4    1   12 1   
     5    2    5 1   
     6    2    6 1   
     7    2   13 1   
     8    3    7 1   
     9    3    8 1   
    10    3   14 1   
    11    4   15 1   
    12    5   16 1   
    13    6   10 1   
    14    6   17 1   
    15    7   18 1   
    16    8    9 1   
    17    8   10 1   
    18    8   19 1   
    19    9   11 1   
    20    9   20 1   
    21    9   21 1   
    22   10   22 1   
    23   10   23 1   
    24   11   24 1   
@<TRIPOS>SUBSTRUCTURE
     1 MNM         1 TEMP              0 ****  ****    0 ROOT
