@<TRIPOS>MOLECULE
MNN
   17    17     1     0     0
SMALL
bcc


@<TRIPOS>ATOM
      1 C1          0.0400   -0.0070   -0.0130 ca        1 MNN     -0.099300
      2 C2          1.4290   -0.1840   -0.0160 ca        1 MNN     -0.101000
      3 C3          2.1280   -0.2050    1.1890 ca        1 MNN     -0.133000
      4 C4          1.4480   -0.0430    2.3970 ca        1 MNN     -0.116000
      5 C5          0.0660    0.1390    2.3990 ca        1 MNN     -0.133000
      6 C6         -0.6410    0.1560    1.1960 ca        1 MNN     -0.101000
      7 C7         -0.6950    0.0120   -1.3240 c3        1 MNN      0.265500
      8 C8         -0.9990   -1.3510   -1.7710 c1        1 MNN      0.171700
      9 N9         -1.2330   -2.4320   -2.1270 n1        1 MNN     -0.348800
     10 O10        -1.8900    0.7660   -1.1580 oh        1 MNN     -0.576800
     11 H2          1.9680   -0.3090   -0.9670 ha        1 MNN      0.143000
     12 H3          3.2190   -0.3480    1.1860 ha        1 MNN      0.135500
     13 H4          2.0040   -0.0590    3.3460 ha        1 MNN      0.134000
     14 H5         -0.4720    0.2690    3.3500 ha        1 MNN      0.135500
     15 H6         -1.7320    0.3050    1.1910 ha        1 MNN      0.143000
     16 H7         -0.0510    0.5020   -2.1170 h1        1 MNN      0.067700
     17 H10        -2.3280    0.7930   -2.0180 ho        1 MNN      0.413000
@<TRIPOS>BOND
     1    1    2 ar  
     2    1    6 ar  
     3    1    7 1   
     4    2    3 ar  
     5    2   11 1   
     6    3    4 ar  
     7    3   12 1   
     8    4    5 ar  
     9    4   13 1   
    10    5    6 ar  
    11    5   14 1   
    12    6   15 1   
    13    7    8 1   
    14    7   10 1   
    15    7   16 1   
    16    8    9 3   
    17   10   17 1   
@<TRIPOS>SUBSTRUCTURE
     1 MNN         1 TEMP              0 ****  ****    0 ROOT
