@<TRIPOS>MOLECULE
MNN
   17    17     1     0     0
SMALL
bcc


@<TRIPOS>ATOM
      1 C1         -0.0780   -0.0510    0.2670 ca        1 MNN     -0.132300
      2 C2         -0.9590   -0.9190    0.9190 ca        1 MNN     -0.108000
      3 C3         -2.3160   -0.9060    0.5970 ca        1 MNN     -0.127000
      4 C4         -2.7980   -0.0260   -0.3720 ca        1 MNN     -0.114000
      5 C5         -1.9200    0.8410   -1.0240 ca        1 MNN     -0.127000
      6 C6         -0.5630    0.8290   -0.7060 ca        1 MNN     -0.108000
      7 C7          1.3820   -0.0600    0.6280 c3        1 MNN      0.260500
      8 C8          2.1980   -0.3650   -0.5510 c1        1 MNN      0.176700
      9 N9          2.8530   -0.6210   -1.4760 n1        1 MNN     -0.351800
     10 O10         1.7970    1.1560    1.2250 oh        1 MNN     -0.570800
     11 H2         -0.5840   -1.6130    1.6870 ha        1 MNN      0.135500
     12 H3         -3.0060   -1.5910    1.1120 ha        1 MNN      0.138000
     13 H4         -3.8690   -0.0170   -0.6240 ha        1 MNN      0.137000
     14 H5         -2.2970    1.5340   -1.7910 ha        1 MNN      0.138000
     15 H6          0.1300    1.5060   -1.2280 ha        1 MNN      0.135500
     16 H7          1.5960   -0.8380    1.4250 h1        1 MNN      0.107700
     17 H10         1.5120    1.8810    0.6540 ho        1 MNN      0.411000
@<TRIPOS>BOND
     1    1    2 ar  
     2    1    6 ar  
     3    1    7 1   
     4    2    3 ar  
     5    2   11 1   
     6    3    4 ar  
     7    3   12 1   
     8    4    5 ar  
     9    4   13 1   
    10    5    6 ar  
    11    5   14 1   
    12    6   15 1   
    13    7    8 1   
    14    7   10 1   
    15    7   16 1   
    16    8    9 3   
    17   10   17 1   
@<TRIPOS>SUBSTRUCTURE
     1 MNN         1 TEMP              0 ****  ****    0 ROOT
