@<TRIPOS>MOLECULE
MNN
   17    17     1     0     0
SMALL
bcc


@<TRIPOS>ATOM
      1 C1         -0.0380   -0.0030    0.0050 ca        1 MNN     -0.099300
      2 C2          1.3570   -0.1160   -0.0080 ca        1 MNN     -0.101000
      3 C3          2.0620   -0.1500    1.1940 ca        1 MNN     -0.133000
      4 C4          1.3800   -0.0670    2.4090 ca        1 MNN     -0.116000
      5 C5         -0.0100    0.0510    2.4210 ca        1 MNN     -0.133000
      6 C6         -0.7210    0.0820    1.2210 ca        1 MNN     -0.101000
      7 C7         -0.7780    0.0320   -1.3030 c3        1 MNN      0.265500
      8 C8         -1.0200   -1.3250   -1.8020 c1        1 MNN      0.171700
      9 N9         -1.2040   -2.4010   -2.2000 n1        1 MNN     -0.348800
     10 O10        -2.0060    0.7220   -1.1050 oh        1 MNN     -0.576800
     11 H2          1.8980   -0.1800   -0.9640 ha        1 MNN      0.143000
     12 H3          3.1580   -0.2430    1.1830 ha        1 MNN      0.135500
     13 H4          1.9390   -0.0940    3.3550 ha        1 MNN      0.134000
     14 H5         -0.5490    0.1200    3.3770 ha        1 MNN      0.135500
     15 H6         -1.8180    0.1810    1.2240 ha        1 MNN      0.143000
     16 H7         -0.1610    0.5820   -2.0770 h1        1 MNN      0.067700
     17 H10        -2.4490    0.7620   -1.9620 ho        1 MNN      0.413000
@<TRIPOS>BOND
     1    1    2 ar  
     2    1    6 ar  
     3    1    7 1   
     4    2    3 ar  
     5    2   11 1   
     6    3    4 ar  
     7    3   12 1   
     8    4    5 ar  
     9    4   13 1   
    10    5    6 ar  
    11    5   14 1   
    12    6   15 1   
    13    7    8 1   
    14    7   10 1   
    15    7   16 1   
    16    8    9 3   
    17   10   17 1   
@<TRIPOS>SUBSTRUCTURE
     1 MNN         1 TEMP              0 ****  ****    0 ROOT
