@<TRIPOS>MOLECULE
MNN
   17    17     1     0     0
SMALL
bcc


@<TRIPOS>ATOM
      1 C1         -0.0300   -0.0490   -0.0620 ca        1 MNN     -0.131300
      2 C2          1.3450    0.2000   -0.0280 ca        1 MNN     -0.108000
      3 C3          2.0180    0.2250    1.1940 ca        1 MNN     -0.127000
      4 C4          1.3230    0.0040    2.3820 ca        1 MNN     -0.114000
      5 C5         -0.0500   -0.2450    2.3490 ca        1 MNN     -0.127000
      6 C6         -0.7260   -0.2730    1.1310 ca        1 MNN     -0.108000
      7 C7         -0.7530   -0.0610   -1.3810 c3        1 MNN      0.260500
      8 C8         -1.3990   -1.3590   -1.5980 c1        1 MNN      0.176700
      9 N9         -1.9020   -2.3890   -1.7870 n1        1 MNN     -0.351800
     10 O10        -1.6940    0.9930   -1.4890 oh        1 MNN     -0.570800
     11 H2          1.8980    0.3790   -0.9630 ha        1 MNN      0.135500
     12 H3          3.1010    0.4210    1.2170 ha        1 MNN      0.138000
     13 H4          1.8550    0.0240    3.3440 ha        1 MNN      0.137000
     14 H5         -0.6000   -0.4230    3.2850 ha        1 MNN      0.138000
     15 H6         -1.8070   -0.4790    1.1050 ha        1 MNN      0.135500
     16 H7         -0.0350    0.1320   -2.2370 h1        1 MNN      0.107700
     17 H10        -2.2570    0.9720   -0.7040 ho        1 MNN      0.411000
@<TRIPOS>BOND
     1    1    2 ar  
     2    1    6 ar  
     3    1    7 1   
     4    2    3 ar  
     5    2   11 1   
     6    3    4 ar  
     7    3   12 1   
     8    4    5 ar  
     9    4   13 1   
    10    5    6 ar  
    11    5   14 1   
    12    6   15 1   
    13    7    8 1   
    14    7   10 1   
    15    7   16 1   
    16    8    9 3   
    17   10   17 1   
@<TRIPOS>SUBSTRUCTURE
     1 MNN         1 TEMP              0 ****  ****    0 ROOT
