@<TRIPOS>MOLECULE
MNO
   70    72     1     0     0
SMALL
bcc


@<TRIPOS>ATOM
      1 C1          0.0960   -0.6170   -5.6810 ca        1 MNO     -0.054000
      2 C2         -0.2080   -0.4050   -4.3540 ca        1 MNO     -0.144600
      3 C3         -1.5520   -0.4830   -3.9040 ca        1 MNO     -0.111000
      4 C4         -2.5600   -0.7580   -4.7940 ca        1 MNO     -0.118000
      5 C5         -2.2780   -0.9630   -6.1720 ca        1 MNO     -0.022000
      6 C6         -0.9340   -0.8940   -6.6190 ca        1 MNO     -0.050000
      7 C7         -0.6480   -1.1070   -7.9960 ca        1 MNO     -0.109000
      8 C8         -1.6620   -1.3740   -8.8830 ca        1 MNO     -0.128000
      9 C9         -3.0040   -1.4400   -8.4370 ca        1 MNO     -0.116000
     10 C10        -3.3080   -1.2400   -7.1130 ca        1 MNO     -0.122000
     11 C11         0.9010   -0.1230   -3.4000 c         1 MNO      0.675700
     12 O1          1.9970   -0.7190   -3.4670 o         1 MNO     -0.616100
     13 N1          0.6930    0.8760   -2.4630 n         1 MNO     -0.550900
     14 C12         1.6430    1.1240   -1.4110 c3        1 MNO      0.048700
     15 C13         1.2730    0.2950   -0.1520 c         1 MNO      0.662100
     16 O2          0.1640    0.4320    0.4070 o         1 MNO     -0.638100
     17 C14         1.7630    2.6170   -1.0270 c3        1 MNO     -0.060700
     18 C16         0.4370    3.2670   -0.6990 c3        1 MNO     -0.105100
     19 C17         2.7340    2.7600    0.1270 c3        1 MNO     -0.105100
     20 N2          2.1750   -0.6270    0.3320 n         1 MNO     -0.458800
     21 C18         1.9170   -1.3990    1.5330 c3        1 MNO      0.047700
     22 C19         1.9300   -0.5500    2.8230 c         1 MNO      0.645100
     23 O3          2.3780    0.6070    2.8810 o         1 MNO     -0.580100
     24 C20         3.0140   -2.4860    1.6190 c3        1 MNO     -0.088400
     25 C21         3.9700   -2.2270    0.4590 c3        1 MNO     -0.088400
     26 C22         3.4210   -1.0090   -0.3030 c3        1 MNO      0.087000
     27 N3          1.3390   -1.1520    3.9340 n         1 MNO     -0.560900
     28 C24         0.0240   -0.4290    5.9080 c3        1 MNO     -0.158400
     29 C25        -0.9050    0.4560    5.1010 c         1 MNO      0.702100
     30 N4         -1.6560   -0.1230    4.0840 n         1 MNO     -0.662300
     31 O5         -1.0060    1.6710    5.3420 o         1 MNO     -0.577100
     32 C26         1.4040   -0.5290    5.2340 c3        1 MNO     -0.026300
     33 S1         -2.8620    0.5690    3.1780 s6        1 MNO      1.467600
     34 O4         -3.2410   -0.4000    2.2260 o         1 MNO     -0.647800
     35 O7         -3.8940    1.0390    4.0050 o         1 MNO     -0.647800
     36 C15        -2.1060    1.8650    2.4220 c3        1 MNO     -0.392300
     37 C27         2.3270   -1.2340    6.2250 c         1 MNO      0.546900
     38 H1          1.1430   -0.5800   -6.0250 ha        1 MNO      0.153000
     39 H3         -1.7820   -0.3460   -2.8360 ha        1 MNO      0.143000
     40 H4         -3.6050   -0.8270   -4.4530 ha        1 MNO      0.141000
     41 H7          0.3990   -1.0540   -8.3320 ha        1 MNO      0.137000
     42 H8         -1.4450   -1.5390   -9.9490 ha        1 MNO      0.136000
     43 H9         -3.7990   -1.6560   -9.1680 ha        1 MNO      0.135000
     44 H10        -4.3480   -1.2920   -6.7570 ha        1 MNO      0.137000
     45 HN1        -0.2240    1.2380   -2.3310 hn        1 MNO      0.324500
     46 H12         2.6610    0.8070   -1.7960 h1        1 MNO      0.095700
     47 H14         2.1990    3.1440   -1.9250 hc        1 MNO      0.058700
     48 H161        0.6110    4.2820   -0.2660 hc        1 MNO      0.046533
     49 H162       -0.1870    3.3870   -1.6170 hc        1 MNO      0.046533
     50 H163       -0.1320    2.6570    0.0460 hc        1 MNO      0.046533
     51 H171        2.3340    2.2710    1.0520 hc        1 MNO      0.046533
     52 H172        3.7150    2.2880   -0.1250 hc        1 MNO      0.046533
     53 H173        2.9060    3.8410    0.3460 hc        1 MNO      0.046533
     54 H18         0.8900   -1.8630    1.4380 h1        1 MNO      0.087700
     55 H201        2.5450   -3.4960    1.5320 hc        1 MNO      0.062200
     56 H202        3.5530   -2.4380    2.5970 hc        1 MNO      0.062200
     57 H211        4.0220   -3.1140   -0.2190 hc        1 MNO      0.060700
     58 H212        5.0020   -2.0160    0.8310 hc        1 MNO      0.060700
     59 H221        3.2360   -1.2610   -1.3860 h1        1 MNO      0.065200
     60 H222        4.1520   -0.1530   -0.2540 h1        1 MNO      0.065200
     61 HN3         1.2740   -2.1450    3.9380 hn        1 MNO      0.311500
     62 H241       -0.4200   -1.4470    6.0590 hc        1 MNO      0.081200
     63 H242        0.1540    0.0500    6.9150 hc        1 MNO      0.081200
     64 HN4        -1.4120   -1.0690    3.8810 hn        1 MNO      0.338500
     65 H26         1.8050    0.5270    5.1010 h1        1 MNO      0.126700
     66 H151       -2.8460    2.4900    1.8610 h1        1 MNO      0.137700
     67 H152       -1.5890    2.5600    3.1340 h1        1 MNO      0.137700
     68 H153       -1.3300    1.5540    1.6700 h1        1 MNO      0.137700
     69 H27         2.4950   -0.6660    7.1660 h4        1 MNO      0.017200
     70 O6          2.8450   -2.3290    6.0140 o         1 MNO     -0.516100
@<TRIPOS>BOND
     1    1    2 ar  
     2    1    6 ar  
     3    1   38 1   
     4    2    3 ar  
     5    2   11 1   
     6    3    4 ar  
     7    3   39 1   
     8    4    5 ar  
     9    4   40 1   
    10    5    6 ar  
    11    5   10 ar  
    12    6    7 ar  
    13    7    8 ar  
    14    7   41 1   
    15    8    9 ar  
    16    8   42 1   
    17    9   10 ar  
    18    9   43 1   
    19   10   44 1   
    20   11   12 2   
    21   11   13 1   
    22   13   14 1   
    23   13   45 1   
    24   14   15 1   
    25   14   17 1   
    26   14   46 1   
    27   15   16 2   
    28   15   20 1   
    29   17   18 1   
    30   17   19 1   
    31   17   47 1   
    32   18   48 1   
    33   18   49 1   
    34   18   50 1   
    35   19   51 1   
    36   19   52 1   
    37   19   53 1   
    38   20   21 1   
    39   20   26 1   
    40   21   22 1   
    41   21   24 1   
    42   21   54 1   
    43   22   23 2   
    44   22   27 1   
    45   24   25 1   
    46   24   55 1   
    47   24   56 1   
    48   25   26 1   
    49   25   57 1   
    50   25   58 1   
    51   26   59 1   
    52   26   60 1   
    53   27   32 1   
    54   27   61 1   
    55   28   29 1   
    56   28   32 1   
    57   28   62 1   
    58   28   63 1   
    59   29   30 1   
    60   29   31 2   
    61   30   33 1   
    62   30   64 1   
    63   32   37 1   
    64   32   65 1   
    65   33   34 2   
    66   33   35 2   
    67   33   36 1   
    68   36   66 1   
    69   36   67 1   
    70   36   68 1   
    71   37   69 1   
    72   37   70 2   
@<TRIPOS>SUBSTRUCTURE
     1 MNO         1 TEMP              0 ****  ****    0 ROOT
