@<TRIPOS>MOLECULE
MNO
   70    67     1     0     0
SMALL
bcc


@<TRIPOS>ATOM
      1 C1         -6.2120   -1.3240    0.9880 c1        1 MNO     -0.085500
      2 C2         -4.9680   -0.9800    1.4920 c1        1 MNO     -0.124000
      3 C3         -4.5620   -1.4630    2.7530 c1        1 MNO     -0.112000
      4 C4         -5.4010   -2.2780    3.4870 c1        1 MNO     -0.085500
      5 C5         -6.6870   -2.6360    2.9690 c1        1 MNO     -0.035500
      6 C6         -7.0840   -2.1710    1.7480 c1        1 MNO     -0.035500
      7 C7         -8.3410   -2.5330    1.2330 c2        1 MNO     -0.115500
      8 C8         -9.1770   -3.3610    1.9620 c1        1 MNO     -0.121500
      9 C9         -8.7720   -3.8360    3.2070 c1        1 MNO     -0.121500
     10 C10        -7.5370   -3.4800    3.7140 c2        1 MNO     -0.115500
     11 C11        -4.0000   -0.1860    0.5790 c2        1 MNO      0.347000
     12 O1         -4.3350    0.1100   -0.5240 o         1 MNO     -0.368000
     13 N1         -2.7710    0.3030    1.0990 n         1 MNO     -0.354000
     14 C12        -1.9450    1.1160    0.2920 c3        1 MNO      0.019000
     15 C13        -0.4850    0.6990    0.4710 c2        1 MNO      0.285000
     16 O2          0.0880    0.9580    1.4800 o         1 MNO     -0.410000
     17 C14        -2.1140    2.5670    0.6940 c3        1 MNO     -0.105000
     18 C16        -3.0780    3.2530   -0.2580 c3        1 MNO     -0.216500
     19 C17        -2.6470    2.6370    2.0670 c3        1 MNO     -0.216500
     20 N2          0.1950   -0.1280   -0.5870 n         1 MNO     -0.316000
     21 C18         1.6190   -0.7140   -0.5290 c3        1 MNO      0.010000
     22 C19         2.5620    0.3210   -0.6230 c2        1 MNO      0.298000
     23 O3          2.1850    1.4900   -0.8600 o         1 MNO     -0.359000
     24 C20         1.6240   -1.7070   -1.7430 c3        1 MNO     -0.165000
     25 C21         0.4260   -1.8130   -2.1030 c3        1 MNO     -0.168000
     26 C22        -0.2850   -0.4810   -1.7060 c3        1 MNO     -0.033000
     27 N3          3.9660    0.0480   -0.3610 n         1 MNO     -0.381000
     28 C24         6.3110    0.5340   -0.0630 c3        1 MNO     -0.195000
     29 C25         7.4080    1.4870   -0.5470 c2        1 MNO      0.339000
     30 N4          8.5070    0.9720   -1.3560 n         1 MNO     -0.860000
     31 O5          7.4400    2.6230   -0.1420 o         1 MNO     -0.348000
     32 C26         4.9180    1.0670   -0.5030 c3        1 MNO     -0.037000
     33 S1          8.7840    1.5880   -2.8570 s4        1 MNO      2.033800
     34 O4          7.6440    1.4270   -3.6980 o         1 MNO     -0.529400
     35 O7          8.9050    3.0060   -2.8200 o         1 MNO     -0.529400
     36 C15        10.2500    0.8250   -3.5870 c2        1 MNO     -0.956000
     37 O6          5.0340    2.7210   -2.2290 o         1 MNO     -0.304000
     38 C27         4.9770    1.5080   -1.9500 c2        1 MNO      0.182000
     39 H1         -6.4870   -1.0000    0.1310 ha        1 MNO      0.146500
     40 H3         -3.6890   -1.2210    3.1060 ha        1 MNO      0.141000
     41 H4         -5.1290   -2.5950    4.3150 ha        1 MNO      0.146500
     42 H7         -8.6270   -2.1960    0.3510 ha        1 MNO      0.137000
     43 H8        -10.0700   -3.6160    1.5950 ha        1 MNO      0.136000
     44 H9         -9.3950   -4.4550    3.7530 ha        1 MNO      0.136000
     45 H10        -7.2510   -3.8140    4.5870 ha        1 MNO      0.137000
     46 HN1        -2.5260    0.1130    1.9680 hn        1 MNO      0.236000
     47 H12        -2.1990    1.0080   -0.6410 h1        1 MNO      0.144000
     48 H14        -1.2500    3.0160    0.6570 hc        1 MNO      0.102000
     49 H161       -2.8830    2.9700   -1.1890 hc        1 MNO      0.083167
     50 H162       -2.9730    4.2360   -0.1830 hc        1 MNO      0.083167
     51 H163       -4.0170    2.9980   -0.0210 hc        1 MNO      0.083167
     52 H171       -3.5930    2.4390    2.0550 hc        1 MNO      0.083167
     53 H172       -2.5070    3.5260    2.4220 hc        1 MNO      0.083167
     54 H173       -2.2010    2.0050    2.6120 hc        1 MNO      0.083167
     55 H18         1.8930   -1.1450    0.2710 h1        1 MNO      0.125000
     56 H201        2.1640   -1.3440   -2.4730 hc        1 MNO      0.115000
     57 H202        1.9850   -2.6090   -1.4570 hc        1 MNO      0.115000
     58 H211        0.3780   -1.9430   -3.0760 hc        1 MNO      0.102000
     59 H212        0.0190   -2.5390   -1.6590 hc        1 MNO      0.102000
     60 H221       -1.2910   -0.6360   -1.6240 h1        1 MNO      0.097500
     61 H222       -0.1080    0.2040   -2.3750 h1        1 MNO      0.097500
     62 HN3         4.2180   -0.7700   -0.0070 hn        1 MNO      0.258000
     63 H241        6.3410    0.4710    0.9160 hc        1 MNO      0.130500
     64 H242        6.4620   -0.3840   -0.4650 hc        1 MNO      0.130500
     65 HN4         9.1010    0.3630   -0.9920 hn        1 MNO      0.275000
     66 H26         4.6730    1.8100    0.0460 h1        1 MNO      0.158000
     67 H151       11.0110    1.4570   -3.5390 ha        1 MNO      0.166000
     68 H152       10.0720    0.6060   -4.5080 ha        1 MNO      0.166000
     69 H153       10.4680    0.0290   -3.1050 ha        1 MNO      0.166000
     70 H27         4.9720    0.8480   -2.6590 h4        1 MNO      0.121000
@<TRIPOS>BOND
     1    1    6 1   
     2    1   39 1   
     3    2    3 1   
     4    2   11 1   
     5    3   40 1   
     6    4    5 1   
     7    4   41 1   
     8    5   10 1   
     9    6    7 1   
    10    7    8 1   
    11    7   42 1   
    12    8   43 1   
    13    9   10 1   
    14    9   44 1   
    15   10   45 1   
    16   11   12 1   
    17   11   13 1   
    18   13   14 1   
    19   13   46 1   
    20   14   15 1   
    21   14   17 1   
    22   14   47 1   
    23   15   16 1   
    24   15   20 1   
    25   17   18 1   
    26   17   19 1   
    27   17   48 1   
    28   18   49 1   
    29   18   50 1   
    30   18   51 1   
    31   19   52 1   
    32   19   53 1   
    33   19   54 1   
    34   20   21 1   
    35   20   26 1   
    36   21   22 1   
    37   21   24 1   
    38   21   55 1   
    39   22   23 1   
    40   22   27 1   
    41   24   25 1   
    42   24   56 1   
    43   24   57 1   
    44   25   26 1   
    45   25   58 1   
    46   25   59 1   
    47   26   60 1   
    48   26   61 1   
    49   27   32 1   
    50   27   62 1   
    51   28   29 1   
    52   28   32 1   
    53   28   63 1   
    54   28   64 1   
    55   29   30 1   
    56   29   31 1   
    57   30   33 1   
    58   30   65 1   
    59   32   38 1   
    60   32   66 1   
    61   33   34 1   
    62   33   35 1   
    63   36   67 1   
    64   36   68 1   
    65   36   69 1   
    66   37   38 1   
    67   38   70 1   
@<TRIPOS>SUBSTRUCTURE
     1 MNO         1 TEMP              0 ****  ****    0 ROOT
