@<TRIPOS>MOLECULE
MNO
   70    69     1     0     0
SMALL
bcc


@<TRIPOS>ATOM
      1 C1         -5.4100    1.3080    2.8950 c1        1 MNO     -0.190000
      2 C2          1.5330    0.6360    0.1840 c2        1 MNO     -0.173000
      3 C3          1.3230   -0.0070    1.3430 c2        1 MNO     -0.016000
      4 C4          0.1540    0.1340    2.1020 c1        1 MNO     -0.138000
      5 C5         -0.8420    0.2440    2.7650 c1        1 MNO     -0.091000
      6 C6         -5.0220    0.8630    3.9390 c1        1 MNO     -0.141000
      7 C7         -4.6200    0.3480    5.1780 c2        1 MNO     -0.048000
      8 C8         -3.4100   -0.1440    5.5010 c2        1 MNO     -0.114000
      9 C9         -2.2320   -0.2610    4.6780 c2        1 MNO     -0.106000
     10 C10        -2.0130    0.3890    3.5180 c2        1 MNO     -0.052000
     11 C11         2.7800    0.5220   -0.6160 c2        1 MNO      0.329000
     12 O1          3.2290    1.5080   -1.2440 o         1 MNO     -0.390000
     13 N1          3.4370   -0.6790   -0.6600 n         1 MNO     -0.427000
     14 C12         5.4050    0.9410   -3.7340 cx        1 MNO     -0.247000
     15 C13         6.0120   -0.4050   -3.6210 c2        1 MNO      0.274000
     16 O2          5.7680   -1.1550   -2.6690 o         1 MNO     -0.296000
     17 C14         5.0030    1.6260   -5.0280 cx        1 MNO     -0.113000
     18 C16         6.1750    2.1330   -4.2430 cx        1 MNO     -0.190000
     19 C17         5.1790    1.0250   -6.3780 c3        1 MNO     -0.216000
     20 N2          6.9530   -0.8840   -4.6820 n4        1 MNO      0.111000
     21 C18         8.2740   -1.4060   -4.1170 c3        1 MNO     -0.119000
     22 C19         9.3720   -0.3460   -4.1410 c2        1 MNO      0.277000
     23 O3          9.2100    0.7800   -4.6720 o         1 MNO     -0.411000
     24 C20         8.6530   -2.6350   -4.9630 c3        1 MNO     -0.156000
     25 C21         7.4180   -2.9710   -5.8080 c3        1 MNO     -0.053000
     26 C22         6.4100   -1.9290   -5.5000 c2        1 MNO     -0.639000
     27 N3         10.5640   -0.6720   -3.5460 n         1 MNO     -0.268000
     28 C24        12.4620   -0.7960    0.9680 c3        1 MNO     -0.244000
     29 C25        11.9890   -1.7690   -0.0760 c2        1 MNO      0.340000
     30 N4         11.0050   -2.6960    0.2730 n         1 MNO     -0.863000
     31 O5         12.4380   -1.7830   -1.2370 o         1 MNO     -0.361000
     32 C26        11.6520    0.2090   -3.5120 c2        1 MNO     -0.249000
     33 S1         10.2570   -3.7670   -0.7410 s6        1 MNO      2.823000
     34 O4          9.3200   -4.4720    0.0340 o         1 MNO     -0.927500
     35 O7          9.7770   -3.1020   -1.8850 o         1 MNO     -0.927500
     36 C15        11.5060   -4.8050   -1.1990 c3        1 MNO     -0.959000
     37 C27        11.6660    1.4090   -4.0810 c1        1 MNO      0.240000
     38 H1         -5.7530    1.7000    1.9720 ha        1 MNO      0.227000
     39 H3          0.8000    1.3390   -0.2450 ha        1 MNO      0.163000
     40 H4          2.0800   -0.6870    1.7800 ha        1 MNO      0.140000
     41 H7         -2.7620    1.0870    3.0950 ha        1 MNO      0.155000
     42 H8         -5.4190    0.3550    5.9480 ha        1 MNO      0.140000
     43 H9         -3.2740   -0.5300    6.5300 ha        1 MNO      0.129000
     44 H10        -1.4590   -0.9430    5.0780 ha        1 MNO      0.130000
     45 HN1         3.0420   -1.4880   -0.2550 hn        1 MNO      0.236000
     46 H12         4.2380   -0.7790   -1.2400 hn        1 MNO      0.236000
     47 H14         4.7200    1.1110   -2.8640 hc        1 MNO      0.183000
     48 H161        4.0540    2.2040   -4.9500 hc        1 MNO      0.128000
     49 H162        6.0800    3.0790   -3.6780 hc        1 MNO      0.134000
     50 H163        7.2000    1.9980   -4.6420 hc        1 MNO      0.134000
     51 H171        6.2270    1.1530   -6.7480 hc        1 MNO      0.095667
     52 H172        4.4990    1.5290   -7.1090 hc        1 MNO      0.095667
     53 H173        4.9390   -0.0690   -6.3750 hc        1 MNO      0.095667
     54 H18         7.1720   -0.0820   -5.2890 hn        1 MNO      0.248000
     55 H201        8.0920   -1.7300   -3.0500 hx        1 MNO      0.162000
     56 H202        9.5310   -2.4110   -5.6160 hc        1 MNO      0.094000
     57 H211        8.9260   -3.4740   -4.2770 hc        1 MNO      0.094000
     58 H212        7.6850   -2.9550   -6.8970 hc        1 MNO      0.061000
     59 H221        7.0410   -4.0000   -5.5740 hc        1 MNO      0.061000
     60 H222        5.3690   -2.2050   -5.3300 hx        1 MNO      0.127000
     61 HN3        10.6870   -1.5610   -3.1080 hn        1 MNO      0.274000
     62 H241       13.2860   -0.1750    0.5390 hc        1 MNO      0.119333
     63 H242       12.8430   -1.3370    1.8670 hc        1 MNO      0.119333
     64 HN4        10.7140   -2.6540    1.2260 hn        1 MNO      0.257000
     65 H26        11.6220   -0.1250    1.2730 hc        1 MNO      0.119333
     66 H151       12.3830   -4.2750   -1.6540 h1        1 MNO      0.169667
     67 H152       11.9080   -5.4260   -0.3610 h1        1 MNO      0.169667
     68 H153       11.1540   -5.5320   -1.9770 h1        1 MNO      0.169667
     69 H27        12.5430   -0.1600   -2.9730 h4        1 MNO      0.202000
     70 O6         11.7650    2.5000   -4.5430 o         1 MNO     -0.136000
@<TRIPOS>BOND
     1    1    6 1   
     2    1   38 1   
     3    2    3 1   
     4    2   11 1   
     5    2   39 1   
     6    3    4 1   
     7    3   40 1   
     8    4    5 1   
     9    5   10 1   
    10    6    7 1   
    11    7    8 1   
    12    7   42 1   
    13    8    9 1   
    14    8   43 1   
    15    9   10 1   
    16    9   44 1   
    17   10   41 1   
    18   11   12 1   
    19   11   13 1   
    20   13   45 1   
    21   13   46 1   
    22   14   15 1   
    23   14   17 1   
    24   14   18 1   
    25   14   47 1   
    26   15   16 1   
    27   15   20 1   
    28   17   18 1   
    29   17   19 1   
    30   17   48 1   
    31   18   49 1   
    32   18   50 1   
    33   19   51 1   
    34   19   52 1   
    35   19   53 1   
    36   20   21 1   
    37   20   26 1   
    38   20   54 1   
    39   21   22 1   
    40   21   24 1   
    41   21   55 1   
    42   22   23 1   
    43   22   27 1   
    44   24   25 1   
    45   24   56 1   
    46   24   57 1   
    47   25   26 1   
    48   25   58 1   
    49   25   59 1   
    50   26   60 1   
    51   27   32 1   
    52   27   61 1   
    53   28   29 1   
    54   28   62 1   
    55   28   63 1   
    56   28   65 1   
    57   29   30 1   
    58   29   31 1   
    59   30   33 1   
    60   30   64 1   
    61   32   37 1   
    62   32   69 1   
    63   33   34 1   
    64   33   35 1   
    65   33   36 1   
    66   36   66 1   
    67   36   67 1   
    68   36   68 1   
    69   37   70 1   
@<TRIPOS>SUBSTRUCTURE
     1 MNO         1 TEMP              0 ****  ****    0 ROOT
