@<TRIPOS>MOLECULE
MNP
   19    19     1     0     0
SMALL
bcc


@<TRIPOS>ATOM
      1 C1          0.1260   -0.6410   -0.2030 c         1 MNP      0.919600
      2 C2          1.4530    0.1270    0.0330 c3        1 MNP     -0.185100
      3 C1'         1.8970    0.1220    1.4460 ca        1 MNP     -0.022300
      4 C2'         2.3810    1.2920    2.0410 ca        1 MNP     -0.093000
      5 C3'         2.8280    1.2600    3.3730 ca        1 MNP     -0.187200
      6 N3'         3.3550    2.4940    3.9980 no        1 MNP      0.313200
      7 O3'         3.7140    2.4690    5.1500 o         1 MNP     -0.239500
      8 O4'         3.4270    3.5090    3.3530 o         1 MNP     -0.239500
      9 C4'         2.7840    0.0740    4.1240 ca        1 MNP     -0.102000
     10 C5'         2.2890   -1.0790    3.5220 ca        1 MNP     -0.155000
     11 C6'         1.8490   -1.0620    2.2000 ca        1 MNP     -0.078000
     12 O1          0.1070   -1.8820    0.0370 o         1 MNP     -0.832800
     13 O2         -0.8470    0.0180   -0.6550 o         1 MNP     -0.832800
     14 H21         2.2370   -0.3770   -0.5920 hc        1 MNP      0.046200
     15 H22         1.3280    1.1760   -0.3370 hc        1 MNP      0.046200
     16 H2'         2.4080    2.2340    1.4680 ha        1 MNP      0.159000
     17 H4'         3.1320    0.0610    5.1680 ha        1 MNP      0.147000
     18 H5'         2.2390   -2.0120    4.1030 ha        1 MNP      0.130000
     19 H6'         1.4230   -1.9680    1.7190 ha        1 MNP      0.206000
@<TRIPOS>BOND
     1    1    2 1   
     2    1   12 1   
     3    1   13 1   
     4    2    3 1   
     5    2   14 1   
     6    2   15 1   
     7    3    4 ar  
     8    3   11 ar  
     9    4    5 ar  
    10    4   16 1   
    11    5    6 1   
    12    5    9 ar  
    13    6    7 1   
    14    6    8 1   
    15    9   10 ar  
    16    9   17 1   
    17   10   11 ar  
    18   10   18 1   
    19   11   19 1   
@<TRIPOS>SUBSTRUCTURE
     1 MNP         1 TEMP              0 ****  ****    0 ROOT
