@<TRIPOS>MOLECULE
MNP
   19    19     1     0     0
SMALL
bcc


@<TRIPOS>ATOM
      1 C1          0.0900    0.0430    3.2310 c         1 MNP      0.919600
      2 C2         -0.1640   -0.9510    2.0680 c3        1 MNP     -0.185100
      3 C1'         0.3430   -0.4730    0.7610 ca        1 MNP     -0.022300
      4 C2'        -0.4340   -0.6130   -0.3950 ca        1 MNP     -0.093000
      5 C3'         0.0770   -0.1830   -1.6310 ca        1 MNP     -0.187200
      6 N3'        -0.7380   -0.3450   -2.8570 no        1 MNP      0.313200
      7 O3'        -0.3050    0.0480   -3.9120 o         1 MNP     -0.239500
      8 O4'        -1.8180   -0.8730   -2.7910 o         1 MNP     -0.239500
      9 C4'         1.3520    0.3980   -1.7260 ca        1 MNP     -0.102000
     10 C5'         2.1080    0.5410   -0.5660 ca        1 MNP     -0.155000
     11 C6'         1.6160    0.1130    0.6640 ca        1 MNP     -0.078000
     12 O1          1.2890    0.3070    3.5360 o         1 MNP     -0.832800
     13 O2         -0.9190    0.5010    3.8290 o         1 MNP     -0.832800
     14 H21         0.3640   -1.9050    2.3320 hc        1 MNP      0.046200
     15 H22        -1.2630   -1.1600    2.0120 hc        1 MNP      0.046200
     16 H2'        -1.4430   -1.0540   -0.3330 ha        1 MNP      0.159000
     17 H4'         1.7410    0.7350   -2.6990 ha        1 MNP      0.147000
     18 H5'         3.1040    1.0050   -0.6250 ha        1 MNP      0.130000
     19 H6'         2.1960    0.2500    1.6010 ha        1 MNP      0.206000
@<TRIPOS>BOND
     1    1    2 1   
     2    1   12 1   
     3    1   13 1   
     4    2    3 1   
     5    2   14 1   
     6    2   15 1   
     7    3    4 ar  
     8    3   11 ar  
     9    4    5 ar  
    10    4   16 1   
    11    5    6 1   
    12    5    9 ar  
    13    6    7 1   
    14    6    8 1   
    15    9   10 ar  
    16    9   17 1   
    17   10   11 ar  
    18   10   18 1   
    19   11   19 1   
@<TRIPOS>SUBSTRUCTURE
     1 MNP         1 TEMP              0 ****  ****    0 ROOT
