@<TRIPOS>MOLECULE
MNP
   19    19     1     0     0
SMALL
bcc


@<TRIPOS>ATOM
      1 C1          0.1340   -0.6580   -0.2010 c         1 MNP      0.919600
      2 C2          1.4750    0.0850    0.0310 c3        1 MNP     -0.185100
      3 C1'         1.9010    0.1070    1.4490 ca        1 MNP     -0.022300
      4 C2'         2.4050    1.2810    2.0200 ca        1 MNP     -0.093000
      5 C3'         2.8340    1.2750    3.3580 ca        1 MNP     -0.187200
      6 N3'         3.3810    2.5120    3.9580 no        1 MNP      0.313200
      7 O3'         3.7250    2.5090    5.1140 o         1 MNP     -0.239500
      8 O4'         3.4850    3.5070    3.2870 o         1 MNP     -0.239500
      9 C4'         2.7540    0.1100    4.1390 ca        1 MNP     -0.102000
     10 C5'         2.2390   -1.0470    3.5620 ca        1 MNP     -0.155000
     11 C6'         1.8170   -1.0550    2.2340 ca        1 MNP     -0.078000
     12 O1          0.0830   -1.8920    0.0710 o         1 MNP     -0.832800
     13 O2         -0.8180    0.0100   -0.6840 o         1 MNP     -0.832800
     14 H21         2.2540   -0.4540   -0.5700 hc        1 MNP      0.046200
     15 H22         1.3790    1.1260   -0.3680 hc        1 MNP      0.046200
     16 H2'         2.4600    2.2070    1.4230 ha        1 MNP      0.159000
     17 H4'         3.0880    0.1170    5.1880 ha        1 MNP      0.147000
     18 H5'         2.1610   -1.9630    4.1660 ha        1 MNP      0.130000
     19 H6'         1.3760   -1.9630    1.7710 ha        1 MNP      0.206000
@<TRIPOS>BOND
     1    1    2 1   
     2    1   12 1   
     3    1   13 1   
     4    2    3 1   
     5    2   14 1   
     6    2   15 1   
     7    3    4 ar  
     8    3   11 ar  
     9    4    5 ar  
    10    4   16 1   
    11    5    6 1   
    12    5    9 ar  
    13    6    7 1   
    14    6    8 1   
    15    9   10 ar  
    16    9   17 1   
    17   10   11 ar  
    18   10   18 1   
    19   11   19 1   
@<TRIPOS>SUBSTRUCTURE
     1 MNP         1 TEMP              0 ****  ****    0 ROOT
