@<TRIPOS>MOLECULE
MNP
   19    19     1     0     0
SMALL
bcc


@<TRIPOS>ATOM
      1 C1          0.1180   -0.5940   -0.2140 c         1 MNP      0.919600
      2 C2          1.4270    0.1990    0.0350 c3        1 MNP     -0.185100
      3 C1'         1.8920    0.1470    1.4400 ca        1 MNP     -0.022300
      4 C2'         2.3540    1.3040    2.0780 ca        1 MNP     -0.093000
      5 C3'         2.8210    1.2280    3.4010 ca        1 MNP     -0.187200
      6 N3'         3.3240    2.4490    4.0710 no        1 MNP      0.313200
      7 O3'         3.7010    2.3840    5.2150 o         1 MNP     -0.239500
      8 O4'         3.3600    3.4910    3.4670 o         1 MNP     -0.239500
      9 C4'         2.8210    0.0110    4.1010 ca        1 MNP     -0.102000
     10 C5'         2.3470   -1.1290    3.4580 ca        1 MNP     -0.155000
     11 C6'         1.8880   -1.0690    2.1440 ca        1 MNP     -0.078000
     12 O1          0.1360   -1.8450   -0.0280 o         1 MNP     -0.832800
     13 O2         -0.8800    0.0560   -0.6250 o         1 MNP     -0.832800
     14 H21         2.2140   -0.2560   -0.6220 hc        1 MNP      0.046200
     15 H22         1.2680    1.2590   -0.2880 hc        1 MNP      0.046200
     16 H2'         2.3460    2.2690    1.5450 ha        1 MNP      0.159000
     17 H4'         3.1840   -0.0370    5.1390 ha        1 MNP      0.147000
     18 H5'         2.3310   -2.0870    3.9990 ha        1 MNP      0.130000
     19 H6'         1.4790   -1.9640    1.6310 ha        1 MNP      0.206000
@<TRIPOS>BOND
     1    1    2 1   
     2    1   12 1   
     3    1   13 1   
     4    2    3 1   
     5    2   14 1   
     6    2   15 1   
     7    3    4 ar  
     8    3   11 ar  
     9    4    5 ar  
    10    4   16 1   
    11    5    6 1   
    12    5    9 ar  
    13    6    7 1   
    14    6    8 1   
    15    9   10 ar  
    16    9   17 1   
    17   10   11 ar  
    18   10   18 1   
    19   11   19 1   
@<TRIPOS>SUBSTRUCTURE
     1 MNP         1 TEMP              0 ****  ****    0 ROOT
