@<TRIPOS>MOLECULE
MNS
   32    33     1     0     0
SMALL
bcc


@<TRIPOS>ATOM
      1 C1         -0.1740    0.2030   -0.0060 ca        1 MNS     -0.596500
      2 C2          1.2330    0.2590    0.0660 ca        1 MNS      0.062000
      3 C3          1.9120    0.1260    1.2660 ca        1 MNS     -0.203000
      4 C4          1.2020   -0.0290    2.4520 ca        1 MNS      0.060000
      5 C4A        -0.2080   -0.0550    2.4620 ca        1 MNS     -0.118000
      6 C5         -0.9570   -0.2010    3.6980 ca        1 MNS      0.238600
      7 C6         -2.3390   -0.4310    3.6110 ca        1 MNS     -0.225000
      8 C7         -2.9930   -0.4180    2.3780 ca        1 MNS      0.010000
      9 C8         -2.3040   -0.1840    1.2010 ca        1 MNS     -0.276000
     10 C8A        -0.9080    0.0020    1.2160 ca        1 MNS      0.125000
     11 N          -0.2960   -0.1870    4.9280 nh        1 MNS     -0.660000
     12 CM1         0.5450    0.9430    5.2570 c3        1 MNS      0.172100
     13 CM2        -0.9670   -0.7750    6.0640 c3        1 MNS      0.172100
     14 S          -0.8500    0.4100   -1.4270 sy        1 MNS      1.500200
     15 O1S        -2.0890    1.0060   -1.5040 o         1 MNS     -0.577800
     16 O2S         0.0440    0.5610   -2.4710 o         1 MNS     -0.577800
     17 N3S        -1.3770   -1.4340   -1.7200 nz        1 MNS     -0.781500
     18 H2          1.8150    0.4160   -0.8660 ha        1 MNS      0.173000
     19 H3          3.0150    0.1480    1.2810 ha        1 MNS      0.175000
     20 H4          1.7750   -0.1580    3.3890 ha        1 MNS      0.172000
     21 H6         -2.9410   -0.5920    4.5210 ha        1 MNS      0.165000
     22 H7         -4.0870   -0.5670    2.3510 ha        1 MNS      0.159000
     23 H8         -2.8840   -0.0940    0.2710 ha        1 MNS      0.143000
     24 HM11        1.5280    0.5550    5.6380 h1        1 MNS      0.056367
     25 HM12        0.0730    1.5710    6.0620 h1        1 MNS      0.056367
     26 HM13        0.7230    1.5960    4.3630 h1        1 MNS      0.056367
     27 HM21       -1.3920   -1.7730    5.7770 h1        1 MNS      0.056367
     28 HM22       -1.7910   -0.1220    6.4620 h1        1 MNS      0.056367
     29 HM23       -0.2050   -0.9270    6.8760 h1        1 MNS      0.056367
     30 HN31       -2.3610   -1.4840   -1.9680 hn        1 MNS      0.451133
     31 HN32       -1.2330   -1.9980   -0.8880 hn        1 MNS      0.451133
     32 H3S3       -0.8390   -1.8410   -2.4800 hn        1 MNS      0.451133
@<TRIPOS>BOND
     1    1    2 ar  
     2    1   10 ar  
     3    1   14 1   
     4    2    3 ar  
     5    2   18 1   
     6    3    4 ar  
     7    3   19 1   
     8    4    5 ar  
     9    4   20 1   
    10    5    6 ar  
    11    5   10 ar  
    12    6    7 ar  
    13    6   11 1   
    14    7    8 ar  
    15    7   21 1   
    16    8    9 ar  
    17    8   22 1   
    18    9   10 ar  
    19    9   23 1   
    20   11   12 1   
    21   11   13 1   
    22   12   24 1   
    23   12   25 1   
    24   12   26 1   
    25   13   27 1   
    26   13   28 1   
    27   13   29 1   
    28   14   15 2   
    29   14   16 2   
    30   14   17 1   
    31   17   30 1   
    32   17   31 1   
    33   17   32 1   
@<TRIPOS>SUBSTRUCTURE
     1 MNS         1 TEMP              0 ****  ****    0 ROOT
