@<TRIPOS>MOLECULE
MNS
   33    34     1     0     0
SMALL
bcc


@<TRIPOS>ATOM
      1 C1         -0.2300   -0.0190   -0.0350 ca        1 MNS     -0.494500
      2 C2          1.1570   -0.1810   -0.0720 ca        1 MNS      0.053000
      3 C3          1.9190   -0.3260    1.0970 ca        1 MNS     -0.126000
      4 C4          1.3050   -0.2740    2.3280 ca        1 MNS     -0.028000
      5 C4A        -0.1010   -0.0870    2.4420 ca        1 MNS     -0.051000
      6 C5         -0.7770    0.0160    3.7090 ca        1 MNS     -0.012400
      7 C6         -2.1570    0.1260    3.7730 ca        1 MNS     -0.067000
      8 C7         -2.9130    0.1650    2.5820 ca        1 MNS     -0.058000
      9 C8         -2.2940    0.1130    1.3590 ca        1 MNS     -0.136000
     10 C8A        -0.8780    0.0000    1.2480 ca        1 MNS      0.084000
     11 N          -0.0170    0.0240    4.9760 n4        1 MNS     -0.558800
     12 CM1        -0.2570    1.2860    5.7400 c3        1 MNS      0.084600
     13 CM2        -0.3410   -1.1710    5.8090 c3        1 MNS      0.084600
     14 S          -0.9500    0.2720   -1.4750 sy        1 MNS      1.467200
     15 O1S        -2.2070    0.8240   -1.4270 o         1 MNS     -0.545300
     16 O2S        -0.0430    0.5730   -2.4680 o         1 MNS     -0.545300
     17 N3S        -1.3800   -1.5150   -1.9520 n4        1 MNS     -0.797500
     18 H2          1.6980   -0.1740   -1.0440 ha        1 MNS      0.197000
     19 H3          3.0130   -0.4690    1.0170 ha        1 MNS      0.199000
     20 H4          1.9540   -0.3930    3.2120 ha        1 MNS      0.151000
     21 H6         -2.7010    0.1950    4.7330 ha        1 MNS      0.179000
     22 H7         -4.0140    0.2540    2.6530 ha        1 MNS      0.197000
     23 H8         -2.9320    0.1850    0.4590 ha        1 MNS      0.185000
     24 HM11       -1.3280    1.3350    6.0720 hx        1 MNS      0.114367
     25 HM12        0.4140    1.2920    6.6430 hx        1 MNS      0.114367
     26 HM13       -0.0250    2.1680    5.0850 hx        1 MNS      0.114367
     27 HM21       -1.4250   -1.1470    6.1010 hx        1 MNS      0.114367
     28 HM22       -0.1310   -2.1040    5.2210 hx        1 MNS      0.114367
     29 HM23        0.2960   -1.1500    6.7360 hx        1 MNS      0.114367
     30 HN31       -1.1200   -2.2030   -1.2510 hn        1 MNS      0.466800
     31 HN32       -0.9060   -1.7700   -2.8230 hn        1 MNS      0.466800
     32 HN1         0.9890   -0.0100    4.7620 hn        1 MNS      0.453800
     33 H3S3       -2.3840   -1.6100   -2.1210 hn        1 MNS      0.466800
@<TRIPOS>BOND
     1    1    2 ar  
     2    1   10 ar  
     3    1   14 1   
     4    2    3 ar  
     5    2   18 1   
     6    3    4 ar  
     7    3   19 1   
     8    4    5 ar  
     9    4   20 1   
    10    5    6 ar  
    11    5   10 ar  
    12    6    7 ar  
    13    6   11 1   
    14    7    8 ar  
    15    7   21 1   
    16    8    9 ar  
    17    8   22 1   
    18    9   10 ar  
    19    9   23 1   
    20   11   12 1   
    21   11   13 1   
    22   11   32 1   
    23   12   24 1   
    24   12   25 1   
    25   12   26 1   
    26   13   27 1   
    27   13   28 1   
    28   13   29 1   
    29   14   15 2   
    30   14   16 2   
    31   14   17 1   
    32   17   30 1   
    33   17   31 1   
    34   17   33 1   
@<TRIPOS>SUBSTRUCTURE
     1 MNS         1 TEMP              0 ****  ****    0 ROOT
