@<TRIPOS>MOLECULE
MNS
   32    33     1     0     0
SMALL
bcc


@<TRIPOS>ATOM
      1 C1         -0.1720    0.2040   -0.0050 ca        1 MNS     -0.596500
      2 C2          1.2350    0.2590    0.0680 ca        1 MNS      0.062000
      3 C3          1.9130    0.1230    1.2680 ca        1 MNS     -0.203000
      4 C4          1.2010   -0.0320    2.4540 ca        1 MNS      0.060000
      5 C4A        -0.2080   -0.0560    2.4630 ca        1 MNS     -0.118000
      6 C5         -0.9580   -0.2020    3.6980 ca        1 MNS      0.238600
      7 C6         -2.3410   -0.4300    3.6100 ca        1 MNS     -0.225000
      8 C7         -2.9940   -0.4140    2.3770 ca        1 MNS      0.010000
      9 C8         -2.3040   -0.1810    1.2000 ca        1 MNS     -0.276000
     10 C8A        -0.9070    0.0030    1.2160 ca        1 MNS      0.125000
     11 N          -0.2980   -0.1900    4.9290 nh        1 MNS     -0.660000
     12 CM1         0.5440    0.9390    5.2590 c3        1 MNS      0.172100
     13 CM2        -0.9710   -0.7790    6.0640 c3        1 MNS      0.172100
     14 S          -0.8470    0.4130   -1.4270 sy        1 MNS      1.500200
     15 O1S        -2.0850    1.0120   -1.5040 o         1 MNS     -0.577800
     16 O2S         0.0480    0.5650   -2.4700 o         1 MNS     -0.577800
     17 N3S        -1.3760   -1.4290   -1.7210 n4        1 MNS     -0.781500
     18 H2          1.8180    0.4160   -0.8630 ha        1 MNS      0.173000
     19 H3          3.0150    0.1440    1.2840 ha        1 MNS      0.175000
     20 H4          1.7740   -0.1620    3.3910 ha        1 MNS      0.172000
     21 H6         -2.9440   -0.5910    4.5190 ha        1 MNS      0.165000
     22 H7         -4.0880   -0.5620    2.3490 ha        1 MNS      0.159000
     23 H8         -2.8830   -0.0890    0.2690 ha        1 MNS      0.143000
     24 HM11        1.5260    0.5480    5.6410 h1        1 MNS      0.056367
     25 HM12        0.0720    1.5660    6.0650 h1        1 MNS      0.056367
     26 HM13        0.7230    1.5930    4.3660 h1        1 MNS      0.056367
     27 HM21       -1.3980   -1.7750    5.7750 h1        1 MNS      0.056367
     28 HM22       -0.2100   -0.9320    6.8760 h1        1 MNS      0.056367
     29 HM23       -1.7940   -0.1240    6.4610 h1        1 MNS      0.056367
     30 HN31       -1.2340   -1.9930   -0.8890 hn        1 MNS      0.451133
     31 HN32       -0.8380   -1.8360   -2.4810 hn        1 MNS      0.451133
     32 H3S3       -2.3600   -1.4780   -1.9710 hn        1 MNS      0.451133
@<TRIPOS>BOND
     1    1    2 ar  
     2    1   10 ar  
     3    1   14 1   
     4    2    3 ar  
     5    2   18 1   
     6    3    4 ar  
     7    3   19 1   
     8    4    5 ar  
     9    4   20 1   
    10    5    6 ar  
    11    5   10 ar  
    12    6    7 ar  
    13    6   11 1   
    14    7    8 ar  
    15    7   21 1   
    16    8    9 ar  
    17    8   22 1   
    18    9   10 ar  
    19    9   23 1   
    20   11   12 1   
    21   11   13 1   
    22   12   24 1   
    23   12   25 1   
    24   12   26 1   
    25   13   27 1   
    26   13   28 1   
    27   13   29 1   
    28   14   15 2   
    29   14   16 2   
    30   14   17 1   
    31   17   30 1   
    32   17   31 1   
    33   17   32 1   
@<TRIPOS>SUBSTRUCTURE
     1 MNS         1 TEMP              0 ****  ****    0 ROOT
