@<TRIPOS>MOLECULE
MNS
   31    32     1     0     0
SMALL
bcc


@<TRIPOS>ATOM
      1 C1         -0.4630   -0.1580   -1.3120 ca        1 MNS     -0.379500
      2 C2         -1.8400   -0.2250   -1.2100 ca        1 MNS      0.005000
      3 C3         -2.4910   -0.1480    0.0350 ca        1 MNS     -0.179000
      4 C4         -1.7550   -0.0090    1.1870 ca        1 MNS     -0.035000
      5 C4A        -0.3350    0.0370    1.1430 ca        1 MNS     -0.063000
      6 C5          0.4550    0.1720    2.3460 ca        1 MNS      0.141600
      7 C6          1.8370    0.2620    2.2370 ca        1 MNS     -0.187000
      8 C7          2.4680    0.1880    0.9800 ca        1 MNS     -0.080000
      9 C8          1.7350    0.0300   -0.1680 ca        1 MNS     -0.175000
     10 C8A         0.3140   -0.0340   -0.1200 ca        1 MNS      0.073000
     11 N          -0.2150    0.2570    3.6030 nh        1 MNS     -0.644000
     12 CM1        -0.7190   -1.0080    4.0960 c3        1 MNS      0.164600
     13 CM2         0.4670    1.0300    4.6160 c3        1 MNS      0.164600
     14 S           0.2070   -0.2160   -2.8720 sy        1 MNS      1.523200
     15 O1S         1.3030   -1.1010   -2.9000 o         1 MNS     -0.659800
     16 O2S        -0.8400   -0.4830   -3.7870 o         1 MNS     -0.659800
     17 N3S         0.7210    1.2840   -3.0980 n3        1 MNS     -1.024700
     18 H2         -2.4550   -0.3400   -2.1240 ha        1 MNS      0.164000
     19 H3         -3.5900   -0.1920    0.0720 ha        1 MNS      0.142000
     20 H4         -2.2760    0.0800    2.1550 ha        1 MNS      0.151000
     21 H6          2.4700    0.3810    3.1300 ha        1 MNS      0.138000
     22 H7          3.5670    0.2400    0.9350 ha        1 MNS      0.137000
     23 H8          2.2580   -0.0890   -1.1310 ha        1 MNS      0.151000
     24 HM11       -1.4990   -0.7900    4.8730 h1        1 MNS      0.039033
     25 HM12       -1.1870   -1.5850    3.2570 h1        1 MNS      0.039033
     26 HM13        0.0840   -1.6420    4.5630 h1        1 MNS      0.039033
     27 HM21        0.8390    1.9880    4.1680 h1        1 MNS      0.039033
     28 HM22       -0.2770    1.2680    5.4220 h1        1 MNS      0.039033
     29 HM23        1.3340    0.4880    5.0840 h1        1 MNS      0.039033
     30 HN31        0.1990    1.9680   -3.5850 hn        1 MNS      0.447300
     31 HN32        1.5850    1.6280   -2.7640 hn        1 MNS      0.447300
@<TRIPOS>BOND
     1    1    2 ar  
     2    1   10 ar  
     3    1   14 1   
     4    2    3 ar  
     5    2   18 1   
     6    3    4 ar  
     7    3   19 1   
     8    4    5 ar  
     9    4   20 1   
    10    5    6 ar  
    11    5   10 ar  
    12    6    7 ar  
    13    6   11 1   
    14    7    8 ar  
    15    7   21 1   
    16    8    9 ar  
    17    8   22 1   
    18    9   10 ar  
    19    9   23 1   
    20   11   12 1   
    21   11   13 1   
    22   12   24 1   
    23   12   25 1   
    24   12   26 1   
    25   13   27 1   
    26   13   28 1   
    27   13   29 1   
    28   14   15 2   
    29   14   16 2   
    30   14   17 1   
    31   17   30 1   
    32   17   31 1   
@<TRIPOS>SUBSTRUCTURE
     1 MNS         1 TEMP              0 ****  ****    0 ROOT
