@<TRIPOS>MOLECULE
MNU
   40    41     1     0     0
SMALL
bcc


@<TRIPOS>ATOM
      1 P           3.7740   -0.8480   -4.0130 p5        1 MNU      1.426800
      2 OP2         3.0980   -0.1920   -5.3500 oh        1 MNU     -0.779400
      3 OP1         5.1580   -1.1370   -4.4480 o         1 MNU     -0.842500
      4 O5'         3.8230    0.5170   -3.0870 os        1 MNU     -0.585200
      5 C5'         2.6460    0.8960   -2.4410 c3        1 MNU      0.185400
      6 C4'         2.8020    0.7180   -0.9220 c3        1 MNU      0.088100
      7 O4'         2.3120    1.8700   -0.2200 os        1 MNU     -0.438600
      8 C1'         1.0950    1.5650    0.5030 c3        1 MNU      0.293500
      9 N1          0.0540    2.5310    0.2220 n         1 MNU     -0.310400
     10 C6         -0.8290    2.3390   -0.8100 c1        1 MNU     -0.080900
     11 C2          0.0330    3.7070    1.0220 c         1 MNU      0.722100
     12 O2          0.7950    3.9000    2.0100 o         1 MNU     -0.711100
     13 N3         -0.9240    4.6840    0.7160 n         1 MNU     -0.593500
     14 C4         -1.8600    4.5390   -0.3410 c         1 MNU      0.681300
     15 O4         -2.6560    5.5000   -0.5030 o         1 MNU     -0.721100
     16 C5         -1.7830    3.3070   -1.0870 ce        1 MNU     -0.533500
     17 C7         -2.7900    3.0840   -2.1650 c3        1 MNU      0.273000
     18 N8         -2.3370    2.3450   -3.3340 n3        1 MNU     -0.823200
     19 C9         -1.4770    3.1080   -4.2040 c3        1 MNU      0.155100
     20 C2'         0.7240    0.0860    0.1640 c3        1 MNU      0.084100
     21 O2'         0.2280   -0.5870    1.2960 oh        1 MNU     -0.589800
     22 C3'         2.0470   -0.5050   -0.3740 c3        1 MNU      0.069100
     23 O3'         2.7610   -1.1290    0.6850 oh        1 MNU     -0.608800
     24 OP3         2.8270   -1.7820   -3.3730 o         1 MNU     -0.842500
     25 H5'         2.4690    1.9890   -2.6480 h1        1 MNU      0.048700
     26 H5''        1.7780    0.2920   -2.8230 h1        1 MNU      0.048700
     27 H4'         3.8980    0.6650   -0.6700 h1        1 MNU      0.068700
     28 H1'         1.3730    1.6580    1.5980 h2        1 MNU      0.061700
     29 H6          3.7570    0.1460   -5.9440 ho        1 MNU      0.419000
     30 HN3        -0.9260    5.5100    1.2660 hn        1 MNU      0.301500
     31 H71        -3.2000    4.0790   -2.5010 h1        1 MNU      0.019700
     32 H72        -3.6520    2.4880   -1.7420 h1        1 MNU      0.019700
     33 HN8        -1.8360    1.5300   -3.0150 hn        1 MNU      0.372800
     34 H91        -1.1320    2.4470   -5.0430 h1        1 MNU      0.015033
     35 H92        -0.5700    3.5310   -3.6910 h1        1 MNU      0.015033
     36 H93        -2.0600    3.9640   -4.6380 h1        1 MNU      0.015033
     37 H2'        -0.0980    0.0410   -0.6050 h1        1 MNU      0.146700
     38 HO2'        0.9800   -0.8080    1.8610 ho        1 MNU      0.389000
     39 H3'         1.8990   -1.3090   -1.1470 h1        1 MNU      0.155700
     40 HO3'        3.1560   -0.4240    1.2120 ho        1 MNU      0.386000
@<TRIPOS>BOND
     1    1    2 1   
     2    1    3 1   
     3    1    4 1   
     4    1   24 1   
     5    2   29 1   
     6    4    5 1   
     7    5    6 1   
     8    5   25 1   
     9    5   26 1   
    10    6    7 1   
    11    6   22 1   
    12    6   27 1   
    13    7    8 1   
    14    8    9 1   
    15    8   20 1   
    16    8   28 1   
    17    9   10 2   
    18    9   11 1   
    19   10   16 2   
    20   11   12 2   
    21   11   13 1   
    22   13   14 1   
    23   13   30 1   
    24   14   15 2   
    25   14   16 1   
    26   16   17 1   
    27   17   18 1   
    28   17   31 1   
    29   17   32 1   
    30   18   19 1   
    31   18   33 1   
    32   19   34 1   
    33   19   35 1   
    34   19   36 1   
    35   20   21 1   
    36   20   22 1   
    37   20   37 1   
    38   21   38 1   
    39   22   23 1   
    40   22   39 1   
    41   23   40 1   
@<TRIPOS>SUBSTRUCTURE
     1 MNU         1 TEMP              0 ****  ****    0 ROOT
