@<TRIPOS>MOLECULE
MNV
   23    22     1     0     0
SMALL
bcc


@<TRIPOS>ATOM
      1 N           1.6390   -0.1900    0.2850 n3        1 MNV     -0.837200
      2 CN          2.3830    0.7530    1.0790 c3        1 MNV      0.147100
      3 CA          0.3120    0.2810   -0.0930 c3        1 MNV      0.105500
      4 CB         -0.2640   -0.4200   -1.3430 c3        1 MNV     -0.066700
      5 CG1        -1.6380    0.1400   -1.6520 c3        1 MNV     -0.097600
      6 CG2         0.6440   -0.2380   -2.5420 c3        1 MNV     -0.097600
      7 C          -0.6720    0.0930    1.0850 c         1 MNV      0.657100
      8 O          -1.3580    1.0530    1.4910 o         1 MNV     -0.624100
      9 NT         -0.8050   -1.1530    1.6390 n         1 MNV     -0.653000
     10 H           2.1590   -0.4590   -0.5280 hn        1 MNV      0.369800
     11 HN1         3.3520    0.2750    1.3780 h1        1 MNV      0.036033
     12 HN2         2.6090    1.7170    0.5450 h1        1 MNV      0.036033
     13 HN3         1.7970    0.9980    2.0040 h1        1 MNV      0.036033
     14 HA          0.3150    1.3970   -0.3020 h1        1 MNV      0.062700
     15 HB         -0.3610   -1.5210   -1.1290 hc        1 MNV      0.058700
     16 HG11       -2.0920   -0.4170   -2.5070 hc        1 MNV      0.041033
     17 HG12       -2.3140    0.0460   -0.7670 hc        1 MNV      0.041033
     18 HG13       -1.5690    1.2200   -1.9270 hc        1 MNV      0.041033
     19 HG21        0.9860    0.8220   -2.6230 hc        1 MNV      0.041033
     20 HG22        1.5410   -0.9010   -2.4790 hc        1 MNV      0.041033
     21 HG23        0.0940   -0.5010   -3.4790 hc        1 MNV      0.041033
     22 HNT1       -1.3700   -1.2640    2.4450 hn        1 MNV      0.311000
     23 HNT2       -0.1520   -1.8630    1.4250 hn        1 MNV      0.311000
@<TRIPOS>BOND
     1    1    2 1   
     2    1    3 1   
     3    1   10 1   
     4    2   11 1   
     5    2   12 1   
     6    2   13 1   
     7    3    4 1   
     8    3    7 1   
     9    3   14 1   
    10    4    5 1   
    11    4    6 1   
    12    4   15 1   
    13    5   16 1   
    14    5   17 1   
    15    5   18 1   
    16    6   19 1   
    17    6   20 1   
    18    6   21 1   
    19    7    8 2   
    20    7    9 1   
    21    9   22 1   
    22    9   23 1   
@<TRIPOS>SUBSTRUCTURE
     1 MNV         1 TEMP              0 ****  ****    0 ROOT
