@<TRIPOS>MOLECULE
MNX
   27    29     1     0     0
SMALL
bcc


@<TRIPOS>ATOM
      1 C1          3.2390   -0.1500   -0.0300 ca        1 MNX      0.236100
      2 C2          1.8280   -0.0450   -0.0050 ca        1 MNX     -0.304600
      3 C3          1.0980   -1.2480    0.0680 ca        1 MNX      0.178100
      4 C4          1.7080   -2.5060    0.1150 ca        1 MNX     -0.187000
      5 C5          3.1010   -2.5680    0.0890 ca        1 MNX     -0.033000
      6 C6          3.8670   -1.4130    0.0180 ca        1 MNX     -0.202000
      7 O13        -0.2890   -1.2920    0.0990 os        1 MNX     -0.178200
      8 C14        -0.9800   -0.1070    0.0570 ca        1 MNX      0.263100
      9 C15        -0.3480    1.1540   -0.0170 ca        1 MNX     -0.328600
     10 C16         1.1150    1.2270   -0.0510 c         1 MNX      0.635300
     11 C22        -1.1680    2.3070   -0.0550 ca        1 MNX      0.280100
     12 C23        -2.5780    2.1930   -0.0200 ca        1 MNX     -0.223000
     13 C24        -3.1750    0.9520    0.0520 ca        1 MNX      0.021000
     14 C25        -2.3910   -0.2190    0.0920 ca        1 MNX     -0.271200
     15 O16         1.7120    2.3230   -0.1160 o         1 MNX     -0.619100
     16 O1          4.0980    0.9040   -0.0980 oh        1 MNX     -0.491100
     17 O22        -0.7190    3.5840   -0.1260 oh        1 MNX     -0.481100
     18 N25        -3.0640   -1.5320    0.1690 no        1 MNX      0.334200
     19 O2B        -4.2680   -1.5560    0.1950 o         1 MNX     -0.205000
     20 O2A        -2.4050   -2.5350    0.2030 o         1 MNX     -0.205000
     21 HC4         1.0880   -3.4130    0.1720 ha        1 MNX      0.173000
     22 HC5         3.5980   -3.5510    0.1260 ha        1 MNX      0.150000
     23 HC6         4.9660   -1.4570   -0.0030 ha        1 MNX      0.164000
     24 HC23       -3.1820    3.1130   -0.0510 ha        1 MNX      0.174000
     25 HC24       -4.2780    0.8650    0.0790 ha        1 MNX      0.182000
     26 HO1         3.6110    1.7460   -0.1290 ho        1 MNX      0.464000
     27 HO22        0.2550    3.6210   -0.1480 ho        1 MNX      0.475000
@<TRIPOS>BOND
     1    1    2 ar  
     2    1    6 ar  
     3    1   16 1   
     4    2    3 ar  
     5    2   10 1   
     6    3    4 ar  
     7    3    7 1   
     8    4    5 ar  
     9    4   21 1   
    10    5    6 ar  
    11    5   22 1   
    12    6   23 1   
    13    7    8 1   
    14    8    9 ar  
    15    8   14 ar  
    16    9   10 1   
    17    9   11 ar  
    18   10   15 2   
    19   11   12 ar  
    20   11   17 1   
    21   12   13 ar  
    22   12   24 1   
    23   13   14 ar  
    24   13   25 1   
    25   14   18 1   
    26   16   26 1   
    27   17   27 1   
    28   18   19 1   
    29   18   20 1   
@<TRIPOS>SUBSTRUCTURE
     1 MNX         1 TEMP              0 ****  ****    0 ROOT
