@<TRIPOS>MOLECULE
MNX
   27    29     1     0     0
SMALL
bcc


@<TRIPOS>ATOM
      1 C1         -0.0360    0.1420    0.0080 ca        1 MNX      0.208100
      2 C2          1.3550   -0.1110   -0.0220 ca        1 MNX     -0.242600
      3 C3          2.0070   -0.2370    1.2140 ca        1 MNX      0.169100
      4 C4          1.3370   -0.1230    2.4420 ca        1 MNX     -0.183000
      5 C5         -0.0320    0.1260    2.4290 ca        1 MNX     -0.038000
      6 C6         -0.7230    0.2590    1.2270 ca        1 MNX     -0.253000
      7 O13         3.3700   -0.4860    1.3340 os        1 MNX     -0.182200
      8 C14         4.1040   -0.6120    0.1790 ca        1 MNX      0.250100
      9 C15         3.5430   -0.5020   -1.1040 ca        1 MNX     -0.268600
     10 C16         2.1010   -0.2390   -1.2810 c         1 MNX      0.609300
     11 C22         4.3970   -0.6500   -2.2200 ca        1 MNX      0.251100
     12 C23         5.7730   -0.9020   -2.0540 ca        1 MNX     -0.275000
     13 C24         6.3100   -1.0070   -0.7830 ca        1 MNX      0.023000
     14 C25         5.4900   -0.8650    0.3520 ca        1 MNX     -0.264200
     15 O16         1.5800   -0.1370   -2.3950 o         1 MNX     -0.484100
     16 O1         -0.6700    0.2650   -1.1970 oh        1 MNX     -0.453100
     17 O22         3.8300   -0.5400   -3.4530 oh        1 MNX     -0.436100
     18 N25         6.0950   -0.9840    1.6950 no        1 MNX      0.333200
     19 O2B         7.2780   -1.1990    1.7720 o         1 MNX     -0.206500
     20 O2A         5.4060   -0.8640    2.6700 o         1 MNX     -0.206500
     21 HC4         1.8990   -0.2310    3.3810 ha        1 MNX      0.170000
     22 HC5        -0.5740    0.2180    3.3830 ha        1 MNX      0.146000
     23 HC6        -1.8040    0.4550    1.2290 ha        1 MNX      0.144000
     24 HC23        6.4200   -1.0140   -2.9360 ha        1 MNX      0.155000
     25 HC24        7.3900   -1.2040   -0.6500 ha        1 MNX      0.179000
     26 HO1        -1.6110    0.4340   -1.0280 ho        1 MNX      0.423000
     27 HO22        4.5230   -0.6610   -4.1240 ho        1 MNX      0.430000
@<TRIPOS>BOND
     1    1    2 ar  
     2    1    6 ar  
     3    1   16 1   
     4    2    3 ar  
     5    2   10 1   
     6    3    4 ar  
     7    3    7 1   
     8    4    5 ar  
     9    4   21 1   
    10    5    6 ar  
    11    5   22 1   
    12    6   23 1   
    13    7    8 1   
    14    8    9 ar  
    15    8   14 ar  
    16    9   10 1   
    17    9   11 ar  
    18   10   15 2   
    19   11   12 ar  
    20   11   17 1   
    21   12   13 ar  
    22   12   24 1   
    23   13   14 ar  
    24   13   25 1   
    25   14   18 1   
    26   16   26 1   
    27   17   27 1   
    28   18   19 1   
    29   18   20 1   
@<TRIPOS>SUBSTRUCTURE
     1 MNX         1 TEMP              0 ****  ****    0 ROOT
