@<TRIPOS>MOLECULE
MNX
   27    23     1     0     0
SMALL
bcc


@<TRIPOS>ATOM
      1 C1         -2.9330    0.0160    0.2460 c1        1 MNX      0.214600
      2 C2         -1.5270   -0.0160    0.2180 cg        1 MNX     -0.250200
      3 C3         -0.8140   -0.0170    1.3980 c1        1 MNX      0.154600
      4 C4         -1.4940    0.0120    2.6300 c1        1 MNX     -0.061500
      5 C5         -2.8840    0.0440    2.6560 c1        1 MNX     -0.061500
      6 C6         -3.6040    0.0450    1.4630 c1        1 MNX     -0.142500
      7 O13         0.5800   -0.0200    1.3710 os        1 MNX     -0.147200
      8 C14         1.2550   -0.0200    0.1510 c1        1 MNX      0.240600
      9 C15         0.5440   -0.0180   -1.0310 cg        1 MNX     -0.220200
     10 C16        -0.8520   -0.0160   -1.0040 c         1 MNX      0.519500
     11 C22         1.2260   -0.0050   -2.2610 c1        1 MNX      0.240600
     12 C23         2.6160    0.0070   -2.2860 c1        1 MNX     -0.061500
     13 C24         3.3340    0.0050   -1.0920 c1        1 MNX     -0.061500
     14 C25         2.6620   -0.0080    0.1240 c1        1 MNX     -0.276300
     15 O16        -1.4790    0.0210   -2.0440 o         1 MNX     -0.550100
     16 O1         -3.7370    0.2050   -0.8930 oh        1 MNX     -0.477600
     17 O22         0.7300   -0.2740   -3.5500 oh        1 MNX     -0.420600
     18 N25         3.5140   -0.0400    1.2590 no        1 MNX      0.342300
     19 O2B         3.4400    0.9510    2.1960 o         1 MNX     -0.204000
     20 O2A         4.3210   -0.9480    1.3920 o         1 MNX     -0.204000
     21 HC4        -0.9900    0.0110    3.4660 ha        1 MNX      0.106250
     22 HC5        -3.3550    0.0640    3.5110 ha        1 MNX      0.106250
     23 HC6        -4.5800    0.0670    1.4830 ha        1 MNX      0.104500
     24 HC23        3.0890    0.0160   -3.1400 ha        1 MNX      0.106250
     25 HC24        4.3110    0.0130   -1.1100 ha        1 MNX      0.106250
     26 HO1        -4.1180   -0.5660   -1.1190 ho        1 MNX      0.464000
     27 HO22        0.7470    0.4700   -4.0360 ho        1 MNX      0.432000
@<TRIPOS>BOND
     1    1    6 3   
     2    1   16 1   
     3    2    3 3   
     4    2   10 1   
     5    3    7 1   
     6    4    5 3   
     7    4   21 1   
     8    5   22 1   
     9    6   23 1   
    10    7    8 1   
    11    8   14 3   
    12    9   10 1   
    13    9   11 3   
    14   10   15 2   
    15   11   17 1   
    16   12   13 3   
    17   12   24 1   
    18   13   25 1   
    19   14   18 1   
    20   16   26 1   
    21   17   27 1   
    22   18   19 1   
    23   18   20 1   
@<TRIPOS>SUBSTRUCTURE
     1 MNX         1 TEMP              0 ****  ****    0 ROOT
