@<TRIPOS>MOLECULE
MNY
   32    34     1     0     0
SMALL
bcc


@<TRIPOS>ATOM
      1 C1          0.0210   -0.0940   -0.0150 ca        1 MNY      0.207100
      2 C2          1.4230   -0.0630   -0.0230 ca        1 MNY     -0.182600
      3 C3          2.1270   -0.0640    1.2110 ca        1 MNY     -0.182600
      4 C4          1.4070   -0.0970    2.4150 ca        1 MNY      0.207100
      5 C5         -0.0190   -0.1330    2.4060 ca        1 MNY     -0.121000
      6 C6         -0.6970   -0.1320    1.2170 ca        1 MNY     -0.121000
      7 C13         3.5800   -0.0710    1.2350 c         1 MNY      0.604300
      8 C14         4.2980    0.2820   -0.0370 ca        1 MNY     -0.074600
      9 C15         3.6020    0.2840   -1.2560 ca        1 MNY     -0.074600
     10 C16         2.1410   -0.0680   -1.2850 c         1 MNY      0.604300
     11 C22         4.2960    0.6100   -2.4490 ca        1 MNY      0.026600
     12 C23         5.6570    0.9470   -2.4210 ca        1 MNY     -0.076000
     13 C24         6.3470    0.9450   -1.2120 ca        1 MNY     -0.076000
     14 C25         5.6780    0.6070   -0.0260 ca        1 MNY      0.026600
     15 O16         1.6110   -0.3330   -2.3760 o         1 MNY     -0.532100
     16 O13         4.2480   -0.3390    2.2460 o         1 MNY     -0.532100
     17 O1         -0.6130   -0.0680   -1.2190 oh        1 MNY     -0.452100
     18 N22         3.6080    0.5980   -3.7420 n4        1 MNY     -0.716000
     19 N25         6.4420    0.5920    1.2230 n4        1 MNY     -0.716000
     20 O4          2.1210   -0.0740    3.5720 oh        1 MNY     -0.452100
     21 HC5        -0.5620   -0.1670    3.3670 ha        1 MNY      0.185000
     22 HC6        -1.8020   -0.1640    1.1960 ha        1 MNY      0.185000
     23 HC23        6.2130    1.2130   -3.3420 ha        1 MNY      0.197000
     24 HC24        7.4230    1.2110   -1.2210 ha        1 MNY      0.197000
     25 HO1        -1.5750   -0.1370   -1.0780 ho        1 MNY      0.461000
     26 H221        2.8320    1.2800   -3.7270 hn        1 MNY      0.491133
     27 H222        3.1810   -0.3380   -3.8910 hn        1 MNY      0.491133
     28 H251        6.3520   -0.3440    1.6650 hn        1 MNY      0.491133
     29 H252        6.0350    1.2740    1.8850 hn        1 MNY      0.491133
     30 HO4         1.5110   -0.1430    4.3290 ho        1 MNY      0.461000
     31 H223        4.2540    0.8180   -4.5090 hn        1 MNY      0.491133
     32 H253        7.4300    0.8110    1.0580 hn        1 MNY      0.491133
@<TRIPOS>BOND
     1    1    2 ar  
     2    1    6 ar  
     3    1   17 1   
     4    2    3 ar  
     5    2   10 1   
     6    3    4 ar  
     7    3    7 1   
     8    4    5 ar  
     9    4   20 1   
    10    5    6 ar  
    11    5   21 1   
    12    6   22 1   
    13    7    8 1   
    14    7   16 2   
    15    8    9 ar  
    16    8   14 ar  
    17    9   10 1   
    18    9   11 ar  
    19   10   15 2   
    20   11   12 ar  
    21   11   18 1   
    22   12   13 ar  
    23   12   23 1   
    24   13   14 ar  
    25   13   24 1   
    26   14   19 1   
    27   17   25 1   
    28   18   26 1   
    29   18   27 1   
    30   18   31 1   
    31   19   28 1   
    32   19   29 1   
    33   19   32 1   
    34   20   30 1   
@<TRIPOS>SUBSTRUCTURE
     1 MNY         1 TEMP              0 ****  ****    0 ROOT
