@<TRIPOS>MOLECULE
MNY
   30    32     1     0     0
SMALL
bcc


@<TRIPOS>ATOM
      1 C1          1.3960    0.2160   -2.4630 ca        1 MNY      0.159100
      2 C2          0.7080   -0.0840   -1.2840 ca        1 MNY     -0.190600
      3 C3         -0.7080   -0.0830   -1.2840 ca        1 MNY     -0.190600
      4 C4         -1.3980    0.2170   -2.4620 ca        1 MNY      0.159100
      5 C5         -0.6880    0.5680   -3.6410 ca        1 MNY     -0.114000
      6 C6          0.6860    0.5680   -3.6420 ca        1 MNY     -0.114000
      7 C13        -1.4100   -0.4230   -0.0310 c         1 MNY      0.616300
      8 C14        -0.7080   -0.1140    1.2290 ca        1 MNY     -0.170600
      9 C15         0.7090   -0.1140    1.2290 ca        1 MNY     -0.170600
     10 C16         1.4100   -0.4230   -0.0320 c         1 MNY      0.616300
     11 C22         1.4300    0.1720    2.4070 ca        1 MNY      0.172600
     12 C23         0.6860    0.4410    3.5970 ca        1 MNY     -0.139000
     13 C24        -0.6830    0.4410    3.5970 ca        1 MNY     -0.139000
     14 C25        -1.4290    0.1730    2.4080 ca        1 MNY      0.172600
     15 O16         2.5430   -0.9400   -0.0630 o         1 MNY     -0.587100
     16 O13        -2.5430   -0.9390   -0.0610 o         1 MNY     -0.587100
     17 O1          2.7570    0.2300   -2.6080 oh        1 MNY     -0.499100
     18 N22         2.8130    0.3010    2.4480 nh        1 MNY     -0.829200
     19 N25        -2.8120    0.3020    2.4500 nh        1 MNY     -0.829200
     20 O4         -2.7590    0.2320   -2.6070 oh        1 MNY     -0.499100
     21 HC5        -1.2630    0.8250   -4.5440 ha        1 MNY      0.162000
     22 HC6         1.2610    0.8240   -4.5450 ha        1 MNY      0.162000
     23 HC23        1.2250    0.6560    4.5340 ha        1 MNY      0.140000
     24 HC24       -1.2220    0.6570    4.5350 ha        1 MNY      0.140000
     25 HO1         3.1800   -0.1130   -1.8040 ho        1 MNY      0.453000
     26 H221        3.2190    0.2100    3.3520 hn        1 MNY      0.413800
     27 H222        3.3270   -0.1490    1.7220 hn        1 MNY      0.413800
     28 H251       -3.3250   -0.1470    1.7250 hn        1 MNY      0.413800
     29 H252       -3.2160    0.2120    3.3540 hn        1 MNY      0.413800
     30 HO4        -3.1810   -0.1110   -1.8020 ho        1 MNY      0.453000
@<TRIPOS>BOND
     1    1    2 ar  
     2    1    6 ar  
     3    1   17 1   
     4    2    3 ar  
     5    2   10 1   
     6    3    4 ar  
     7    3    7 1   
     8    4    5 ar  
     9    4   20 1   
    10    5    6 ar  
    11    5   21 1   
    12    6   22 1   
    13    7    8 1   
    14    7   16 2   
    15    8    9 ar  
    16    8   14 ar  
    17    9   10 1   
    18    9   11 ar  
    19   10   15 2   
    20   11   12 ar  
    21   11   18 1   
    22   12   13 ar  
    23   12   23 1   
    24   13   14 ar  
    25   13   24 1   
    26   14   19 1   
    27   17   25 1   
    28   18   26 1   
    29   18   27 1   
    30   19   28 1   
    31   19   29 1   
    32   20   30 1   
@<TRIPOS>SUBSTRUCTURE
     1 MNY         1 TEMP              0 ****  ****    0 ROOT
