@<TRIPOS>MOLECULE
MNY
   30    32     1     0     0
SMALL
bcc


@<TRIPOS>ATOM
      1 C1          0.0620    0.1910   -0.0360 ca        1 MNY      0.134100
      2 C2          1.4430   -0.0630   -0.0250 ca        1 MNY     -0.125600
      3 C3          2.1380   -0.0600    1.1960 ca        1 MNY     -0.125600
      4 C4          1.4420    0.1970    2.3890 ca        1 MNY      0.134100
      5 C5          0.0570    0.4440    2.3680 ca        1 MNY     -0.164000
      6 C6         -0.6280    0.4410    1.1650 ca        1 MNY     -0.164000
      7 C13         3.5940   -0.3320    1.1770 c         1 MNY      0.608300
      8 C14         4.2990    0.1550   -0.0300 ca        1 MNY     -0.172600
      9 C15         3.6000    0.1520   -1.2580 ca        1 MNY     -0.172600
     10 C16         2.2030   -0.3390   -1.2660 c         1 MNY      0.608300
     11 C22         4.2210    0.5910   -2.4460 ca        1 MNY      0.162600
     12 C23         5.5800    1.0160   -2.3650 ca        1 MNY     -0.141000
     13 C24         6.2600    1.0190   -1.1730 ca        1 MNY     -0.141000
     14 C25         5.6360    0.5980    0.0390 ca        1 MNY      0.162600
     15 O16         1.7040   -0.9540   -2.2160 o         1 MNY     -0.523100
     16 O13         4.1590   -0.9430    2.0930 o         1 MNY     -0.523100
     17 O1         -0.5700    0.2110   -1.2560 oh        1 MNY     -0.470100
     18 N22         3.5420    0.7150   -3.6550 nh        1 MNY     -0.826200
     19 N25         6.3290    0.7290    1.2390 nh        1 MNY     -0.826200
     20 O4          2.1690    0.2240    3.5540 oh        1 MNY     -0.470100
     21 HC5        -0.4770    0.6390    3.3100 ha        1 MNY      0.142000
     22 HC6        -1.7110    0.6340    1.1430 ha        1 MNY      0.142000
     23 HC23        6.0960    1.3530   -3.2790 ha        1 MNY      0.138000
     24 HC24        7.3080    1.3580   -1.1510 ha        1 MNY      0.138000
     25 HO1        -1.5180    0.3340   -1.0990 ho        1 MNY      0.420000
     26 H221        4.1230    0.6850   -4.4620 hn        1 MNY      0.409300
     27 H222        2.7020    0.1860   -3.7410 hn        1 MNY      0.409300
     28 H251        7.3200    0.7000    1.1520 hn        1 MNY      0.409300
     29 H252        5.9760    0.2010    2.0080 hn        1 MNY      0.409300
     30 HO4         1.5500    0.3470    4.2890 ho        1 MNY      0.420000
@<TRIPOS>BOND
     1    1    2 ar  
     2    1    6 ar  
     3    1   17 1   
     4    2    3 ar  
     5    2   10 1   
     6    3    4 ar  
     7    3    7 1   
     8    4    5 ar  
     9    4   20 1   
    10    5    6 ar  
    11    5   21 1   
    12    6   22 1   
    13    7    8 1   
    14    7   16 2   
    15    8    9 ar  
    16    8   14 ar  
    17    9   10 1   
    18    9   11 ar  
    19   10   15 2   
    20   11   12 ar  
    21   11   18 1   
    22   12   13 ar  
    23   12   23 1   
    24   13   14 ar  
    25   13   24 1   
    26   14   19 1   
    27   17   25 1   
    28   18   26 1   
    29   18   27 1   
    30   19   28 1   
    31   19   29 1   
    32   20   30 1   
@<TRIPOS>SUBSTRUCTURE
     1 MNY         1 TEMP              0 ****  ****    0 ROOT
