@<TRIPOS>MOLECULE
MNY
   30    32     1     0     0
SMALL
bcc


@<TRIPOS>ATOM
      1 C1          0.0510    0.0300   -0.0280 ca        1 MNY      0.134100
      2 C2          1.4410   -0.1730   -0.0120 ca        1 MNY     -0.125600
      3 C3          2.1330   -0.1330    1.2090 ca        1 MNY     -0.125600
      4 C4          1.4270    0.1090    2.3980 ca        1 MNY      0.134100
      5 C5          0.0340    0.3050    2.3740 ca        1 MNY     -0.164000
      6 C6         -0.6490    0.2650    1.1690 ca        1 MNY     -0.164000
      7 C13         3.5980   -0.3510    1.1940 c         1 MNY      0.608300
      8 C14         4.2870    0.1510   -0.0170 ca        1 MNY     -0.172600
      9 C15         3.5900    0.1110   -1.2460 ca        1 MNY     -0.172600
     10 C16         2.2120   -0.4310   -1.2500 c         1 MNY      0.608300
     11 C22         4.1970    0.5620   -2.4360 ca        1 MNY      0.162600
     12 C23         5.5400    1.0370   -2.3580 ca        1 MNY     -0.141000
     13 C24         6.2160    1.0760   -1.1640 ca        1 MNY     -0.141000
     14 C25         5.6070    0.6430    0.0500 ca        1 MNY      0.162600
     15 O16         1.7390   -1.0730   -2.1960 o         1 MNY     -0.523100
     16 O13         4.1840   -0.9320    2.1160 o         1 MNY     -0.523100
     17 O1         -0.5790    0.0160   -1.2490 oh        1 MNY     -0.470100
     18 N22         3.5160    0.6500   -3.6470 nv        1 MNY     -0.826200
     19 N25         6.2930    0.8100    1.2500 nv        1 MNY     -0.826200
     20 O4          2.1510    0.1730    3.5640 oh        1 MNY     -0.470100
     21 HC5        -0.5090    0.4880    3.3130 ha        1 MNY      0.142000
     22 HC6        -1.7390    0.4180    1.1450 ha        1 MNY      0.142000
     23 HC23        6.0440    1.3850   -3.2740 ha        1 MNY      0.138000
     24 HC24        7.2510    1.4550   -1.1440 ha        1 MNY      0.138000
     25 HO1        -1.5310    0.1040   -1.0940 ho        1 MNY      0.420000
     26 H221        4.0980    0.6340   -4.4530 hn        1 MNY      0.409300
     27 H222        2.6960    0.0890   -3.7290 hn        1 MNY      0.409300
     28 H251        5.9580    0.2780    2.0240 hn        1 MNY      0.409300
     29 H252        7.2840    0.8180    1.1650 hn        1 MNY      0.409300
     30 HO4         1.5260    0.2810    4.2970 ho        1 MNY      0.420000
@<TRIPOS>BOND
     1    1    2 ar  
     2    1    6 ar  
     3    1   17 1   
     4    2    3 ar  
     5    2   10 1   
     6    3    4 ar  
     7    3    7 1   
     8    4    5 ar  
     9    4   20 1   
    10    5    6 ar  
    11    5   21 1   
    12    6   22 1   
    13    7    8 1   
    14    7   16 2   
    15    8    9 ar  
    16    8   14 ar  
    17    9   10 1   
    18    9   11 ar  
    19   10   15 2   
    20   11   12 ar  
    21   11   18 1   
    22   12   13 ar  
    23   12   23 1   
    24   13   14 ar  
    25   13   24 1   
    26   14   19 1   
    27   17   25 1   
    28   18   26 1   
    29   18   27 1   
    30   19   28 1   
    31   19   29 1   
    32   20   30 1   
@<TRIPOS>SUBSTRUCTURE
     1 MNY         1 TEMP              0 ****  ****    0 ROOT
