@<TRIPOS>MOLECULE
MO8
   23    24     1     0     0
SMALL
bcc


@<TRIPOS>ATOM
      1 N11        -0.0030    0.4520   -0.0080 nh        1 MO8     -0.928500
      2 C9          1.3710    0.1990   -0.0020 ca        1 MO8      0.877900
      3 N8          2.0230    0.2210    1.2250 nb        1 MO8     -0.755000
      4 C7          3.3640    0.0780    1.2060 ca        1 MO8      0.501600
      5 C12         4.0980    0.1060    2.5100 c3        1 MO8     -0.159400
      6 C2          4.0870   -0.1050   -0.0010 ca        1 MO8     -0.376900
      7 N10         1.9940    0.0030   -1.2290 nb        1 MO8     -0.750000
      8 C3          3.3330   -0.1360   -1.2020 ca        1 MO8      0.481600
      9 C4          4.0740   -0.3350   -2.4960 c3        1 MO8     -0.135700
     10 C5          5.1880    0.6720   -2.6360 c3        1 MO8     -0.007300
     11 S6          6.3620    0.6400   -1.3120 ss        1 MO8     -0.311200
     12 C1          5.5460   -0.2880   -0.0380 c3        1 MO8      0.063000
     13 HN11       -0.5030    0.1990   -0.8280 hn        1 MO8      0.429800
     14 HN1A       -0.4820    0.3530    0.8560 hn        1 MO8      0.429800
     15 H12         3.4050    0.1630    3.3860 hc        1 MO8      0.060700
     16 H12A        4.7700    1.0000    2.5330 hc        1 MO8      0.060700
     17 H12B        4.7180   -0.8200    2.6060 hc        1 MO8      0.060700
     18 H4          4.4920   -1.3780   -2.4970 hc        1 MO8      0.075200
     19 H4A         3.3840   -0.2470   -3.3790 hc        1 MO8      0.075200
     20 H5          5.7630    0.4720   -3.5750 h1        1 MO8      0.077200
     21 H5A         4.7640    1.7050   -2.7060 h1        1 MO8      0.077200
     22 H1          5.7810   -1.3750   -0.1840 h1        1 MO8      0.076700
     23 H1A         6.0350    0.0440    0.9130 h1        1 MO8      0.076700
@<TRIPOS>BOND
     1    1    2 1   
     2    1   13 1   
     3    1   14 1   
     4    2    3 ar  
     5    2    7 ar  
     6    3    4 ar  
     7    4    5 1   
     8    4    6 ar  
     9    5   15 1   
    10    5   16 1   
    11    5   17 1   
    12    6    8 ar  
    13    6   12 1   
    14    7    8 ar  
    15    8    9 1   
    16    9   10 1   
    17    9   18 1   
    18    9   19 1   
    19   10   11 1   
    20   10   20 1   
    21   10   21 1   
    22   11   12 1   
    23   12   22 1   
    24   12   23 1   
@<TRIPOS>SUBSTRUCTURE
     1 MO8         1 TEMP              0 ****  ****    0 ROOT
