@<TRIPOS>MOLECULE
MO8
   23    24     1     0     0
SMALL
bcc


@<TRIPOS>ATOM
      1 N11        -0.0050    0.4300   -0.0050 nv        1 MO8     -0.928500
      2 C9          1.3700    0.1850   -0.0000 ca        1 MO8      0.877900
      3 N8          2.0230    0.2050    1.2260 nb        1 MO8     -0.755000
      4 C7          3.3650    0.0700    1.2060 ca        1 MO8      0.501600
      5 C12         4.0990    0.0960    2.5100 c3        1 MO8     -0.159400
      6 C2          4.0880   -0.1040   -0.0020 ca        1 MO8     -0.376900
      7 N10         1.9940   -0.0020   -1.2290 nb        1 MO8     -0.750000
      8 C3          3.3340   -0.1340   -1.2030 ca        1 MO8      0.481600
      9 C4          4.0750   -0.3220   -2.4980 c3        1 MO8     -0.135700
     10 C5          5.1840    0.6920   -2.6340 c3        1 MO8     -0.007300
     11 S6          6.3580    0.6600   -1.3100 ss        1 MO8     -0.311200
     12 C1          5.5480   -0.2780   -0.0400 c3        1 MO8      0.063000
     13 HN11       -0.5040    0.1780   -0.8260 hn        1 MO8      0.429800
     14 HN1A       -0.4830    0.3240    0.8590 hn        1 MO8      0.429800
     15 H12         4.7660    0.9940    2.5360 hc        1 MO8      0.060700
     16 H12A        4.7240   -0.8260    2.6020 hc        1 MO8      0.060700
     17 H12B        3.4060    0.1450    3.3860 hc        1 MO8      0.060700
     18 H4          4.5000   -1.3630   -2.5040 hc        1 MO8      0.075200
     19 H4A         3.3850   -0.2350   -3.3800 hc        1 MO8      0.075200
     20 H5          5.7590    0.4990   -3.5740 h1        1 MO8      0.077200
     21 H5A         4.7540    1.7220   -2.6990 h1        1 MO8      0.077200
     22 H1          6.0360    0.0530    0.9120 h1        1 MO8      0.076700
     23 H1A         5.7900   -1.3630   -0.1910 h1        1 MO8      0.076700
@<TRIPOS>BOND
     1    1    2 1   
     2    1   13 1   
     3    1   14 1   
     4    2    3 ar  
     5    2    7 ar  
     6    3    4 ar  
     7    4    5 1   
     8    4    6 ar  
     9    5   15 1   
    10    5   16 1   
    11    5   17 1   
    12    6    8 ar  
    13    6   12 1   
    14    7    8 ar  
    15    8    9 1   
    16    9   10 1   
    17    9   18 1   
    18    9   19 1   
    19   10   11 1   
    20   10   20 1   
    21   10   21 1   
    22   11   12 1   
    23   12   22 1   
    24   12   23 1   
@<TRIPOS>SUBSTRUCTURE
     1 MO8         1 TEMP              0 ****  ****    0 ROOT
