@<TRIPOS>MOLECULE
MO8
   24    25     1     0     0
SMALL
bcc


@<TRIPOS>ATOM
      1 N11        -0.1010    0.0410    0.0340 n4        1 MO8     -0.813300
      2 C9          1.3930    0.0280    0.0130 ca        1 MO8      0.689900
      3 N8          2.0070    0.0270    1.2360 nb        1 MO8     -0.675000
      4 C7          3.3620    0.0130    1.2040 ca        1 MO8      0.485600
      5 C12         4.1060    0.0120    2.4990 c3        1 MO8     -0.172400
      6 C2          4.0850   -0.0060   -0.0290 ca        1 MO8     -0.236900
      7 N10         1.9750    0.0180   -1.2190 nb        1 MO8     -0.678000
      8 C3          3.3370   -0.0020   -1.2360 ca        1 MO8      0.484600
      9 C4          3.9780   -0.0580   -2.5980 c3        1 MO8     -0.142700
     10 C5          5.3900    0.4630   -2.6160 c3        1 MO8     -0.049300
     11 S6          6.4020   -0.3880   -1.4640 ss        1 MO8     -0.188200
     12 C1          5.5610   -0.0000    0.0260 c3        1 MO8     -0.015000
     13 HN11       -0.4360   -0.8040    0.5130 hn        1 MO8      0.479800
     14 HN1A       -0.4670    0.0620   -0.9270 hn        1 MO8      0.479800
     15 H12         4.8610    0.8400    2.4920 hc        1 MO8      0.085700
     16 H12A        4.6440   -0.9650    2.6130 hc        1 MO8      0.085700
     17 H12B        3.4330    0.1500    3.3810 hc        1 MO8      0.085700
     18 H4          3.9640   -1.1360   -2.9300 hc        1 MO8      0.099200
     19 H4A         3.3620    0.5230   -3.3410 hc        1 MO8      0.099200
     20 H5          5.8450    0.2820   -3.6250 h1        1 MO8      0.100200
     21 H5A         5.4050    1.5660   -2.4340 h1        1 MO8      0.100200
     22 H1          5.9260   -0.7610    0.7720 h1        1 MO8      0.108200
     23 H1A         5.8920    1.0080    0.4010 h1        1 MO8      0.108200
     24 H113       -0.4220    0.8720    0.5450 hn        1 MO8      0.479800
@<TRIPOS>BOND
     1    1    2 1   
     2    1   13 1   
     3    1   14 1   
     4    1   24 1   
     5    2    3 ar  
     6    2    7 ar  
     7    3    4 ar  
     8    4    5 1   
     9    4    6 ar  
    10    5   15 1   
    11    5   16 1   
    12    5   17 1   
    13    6    8 ar  
    14    6   12 1   
    15    7    8 ar  
    16    8    9 1   
    17    9   10 1   
    18    9   18 1   
    19    9   19 1   
    20   10   11 1   
    21   10   20 1   
    22   10   21 1   
    23   11   12 1   
    24   12   22 1   
    25   12   23 1   
@<TRIPOS>SUBSTRUCTURE
     1 MO8         1 TEMP              0 ****  ****    0 ROOT
