@<TRIPOS>MOLECULE
MO8
   23    22     1     0     0
SMALL
bcc


@<TRIPOS>ATOM
      1 N11        -3.8360   -0.0760    0.2710 n3        1 MO8     -0.324000
      2 C9         -2.4170   -0.0760    0.2710 c2        1 MO8      0.157000
      3 N8         -1.6900   -0.0760    1.5340 n2        1 MO8     -0.228000
      4 C7         -0.3020   -0.0740    1.5430 c1        1 MO8      0.079000
      5 C12         0.4460   -0.0420    2.8580 c3        1 MO8     -0.183000
      6 C2          0.3720   -0.0730    0.3910 c1        1 MO8     -0.238000
      7 N10        -1.7130   -0.0740   -0.9530 n1        1 MO8     -0.223000
      8 C3         -0.4040   -0.0730   -0.9560 c1        1 MO8      0.059000
      9 C4          0.5040    0.0480   -2.4080 c3        1 MO8     -0.121000
     10 C5          1.8640    0.2990   -2.2710 c3        1 MO8     -0.268000
     11 S6          2.5830   -0.3760   -1.0560 ss        1 MO8      0.051000
     12 C1          1.9650   -0.1620    0.3330 c3        1 MO8     -0.204000
     13 HN11       -4.2920   -0.8650    0.2710 hn        1 MO8      0.223500
     14 HN1A       -4.2920    0.7140    0.2730 hn        1 MO8      0.223500
     15 H12        -0.1910    0.0250    3.5940 hc        1 MO8      0.100333
     16 H12A        1.0430    0.7310    2.8730 hc        1 MO8      0.100333
     17 H12B        0.9700   -0.8600    2.9540 hc        1 MO8      0.100333
     18 H4          0.4000   -0.7890   -2.8990 hc        1 MO8      0.115500
     19 H4A         0.1180    0.7660   -2.9460 hc        1 MO8      0.115500
     20 H5          2.3090    0.0000   -3.0880 h1        1 MO8      0.115500
     21 H5A         1.9870    1.2640   -2.1950 h1        1 MO8      0.115500
     22 H1          2.2470   -0.9000    0.9060 h1        1 MO8      0.117000
     23 H1A         2.3280    0.6660    0.7010 h1        1 MO8      0.117000
@<TRIPOS>BOND
     1    1    2 1   
     2    1   13 1   
     3    1   14 1   
     4    2    3 1   
     5    2    7 1   
     6    3    4 1   
     7    4    5 1   
     8    5   15 1   
     9    5   16 1   
    10    5   17 1   
    11    6    8 1   
    12    6   12 1   
    13    8    9 1   
    14    9   10 1   
    15    9   18 1   
    16    9   19 1   
    17   10   11 1   
    18   10   20 1   
    19   10   21 1   
    20   11   12 1   
    21   12   22 1   
    22   12   23 1   
@<TRIPOS>SUBSTRUCTURE
     1 MO8         1 TEMP              0 ****  ****    0 ROOT
