@<TRIPOS>MOLECULE
MO8
   23    24     1     0     0
SMALL
bcc


@<TRIPOS>ATOM
      1 N11         3.5850   -1.2070    0.2940 nh        1 MO8     -0.928500
      2 C9          2.3360   -0.6070    0.1200 ca        1 MO8      0.877900
      3 N8          2.2710    0.7790    0.2000 nb        1 MO8     -0.755000
      4 C7          1.0460    1.3380    0.1340 ca        1 MO8      0.501600
      5 C12         0.9410    2.8280    0.2260 c3        1 MO8     -0.159400
      6 C2         -0.1310    0.5620   -0.0260 ca        1 MO8     -0.376900
      7 N10         1.2400   -1.4440   -0.0590 nb        1 MO8     -0.750000
      8 C3          0.0360   -0.8440   -0.1200 ca        1 MO8      0.481600
      9 C4         -1.1950   -1.6900   -0.2970 c3        1 MO8     -0.135700
     10 C5         -2.2160   -1.3820    0.7700 c3        1 MO8     -0.007300
     11 S6         -2.7120    0.3160    0.8270 ss        1 MO8     -0.311200
     12 C1         -1.4720    1.1570   -0.1260 c3        1 MO8      0.063000
     13 HN11        4.3820   -0.6260    0.1810 hn        1 MO8      0.429800
     14 HN1A        3.6750   -2.1510   -0.0010 hn        1 MO8      0.429800
     15 H12         0.3810    3.2160   -0.6610 hc        1 MO8      0.060700
     16 H12A        0.3840    3.1000    1.1570 hc        1 MO8      0.060700
     17 H12B        1.9430    3.3230    0.2570 hc        1 MO8      0.060700
     18 H4         -1.6210   -1.4720   -1.3150 hc        1 MO8      0.075200
     19 H4A        -0.9460   -2.7850   -0.2640 hc        1 MO8      0.075200
     20 H5         -3.1450   -1.9780    0.5880 h1        1 MO8      0.077200
     21 H5A        -1.8160   -1.6670    1.7760 h1        1 MO8      0.077200
     22 H1         -1.4930    2.2120    0.2500 h1        1 MO8      0.076700
     23 H1A        -1.7970    1.1680   -1.1990 h1        1 MO8      0.076700
@<TRIPOS>BOND
     1    1    2 1   
     2    1   13 1   
     3    1   14 1   
     4    2    3 ar  
     5    2    7 ar  
     6    3    4 ar  
     7    4    5 1   
     8    4    6 ar  
     9    5   15 1   
    10    5   16 1   
    11    5   17 1   
    12    6    8 ar  
    13    6   12 1   
    14    7    8 ar  
    15    8    9 1   
    16    9   10 1   
    17    9   18 1   
    18    9   19 1   
    19   10   11 1   
    20   10   20 1   
    21   10   21 1   
    22   11   12 1   
    23   12   22 1   
    24   12   23 1   
@<TRIPOS>SUBSTRUCTURE
     1 MO8         1 TEMP              0 ****  ****    0 ROOT
