@<TRIPOS>MOLECULE
MO9
   52    53     1     0     0
SMALL
bcc


@<TRIPOS>ATOM
      1 C1          4.4960   -0.5070   -0.4520 ca        1 MO9      0.147100
      2 C2          3.3010   -0.8370   -1.1250 ca        1 MO9     -0.095300
      3 C3          3.1960   -2.1040   -1.7120 ca        1 MO9     -0.098000
      4 C4          4.2410   -3.0200   -1.6250 ca        1 MO9     -0.146000
      5 C5          5.4150   -2.6790   -0.9540 ca        1 MO9     -0.087000
      6 C6          5.5500   -1.4250   -0.3650 ca        1 MO9     -0.174000
      7 C7          2.1930    0.1380   -1.2630 c3        1 MO9     -0.250300
      8 C9         -0.2160    0.9840   -0.9360 c3        1 MO9     -0.328600
      9 C10        -1.4520    1.2540   -0.0900 c3        1 MO9      0.136100
     10 C12        -2.1750    2.5030   -0.6270 c         1 MO9      0.648100
     11 S8          0.7850   -0.3030   -0.3890 s6        1 MO9      1.323000
     12 O11        -2.2830    0.0940   -0.2340 os        1 MO9     -0.446900
     13 O13         0.2760   -1.5140   -0.8810 o         1 MO9     -0.645300
     14 O14         0.9710   -0.1770    0.9890 o         1 MO9     -0.645300
     15 N15        -3.4320    2.7740   -0.1280 n         1 MO9     -0.552900
     16 O16        -1.6370    3.2260   -1.4880 o         1 MO9     -0.602100
     17 C17        -4.1330    3.9800   -0.4660 c3        1 MO9      0.151100
     18 C18        -4.0730    5.0260    0.5540 c1        1 MO9      0.177700
     19 C19        -2.9670   -0.3390    0.8980 c         1 MO9      0.733100
     20 N20        -3.1810   -1.7050    0.9740 n         1 MO9     -0.389800
     21 O21        -3.2640    0.5240    1.7440 o         1 MO9     -0.591000
     22 C22        -4.3170   -2.1650    1.7570 c3        1 MO9      0.033500
     23 C23        -5.5060   -2.6060    0.8910 c3        1 MO9      0.097400
     24 O24        -5.1110   -3.5140   -0.1310 os        1 MO9     -0.409600
     25 C25        -4.0770   -2.9940   -0.9620 c3        1 MO9      0.097400
     26 C26        -2.8510   -2.5780   -0.1400 c3        1 MO9      0.033500
     27 O27         4.5400    0.7800    0.0660 os        1 MO9     -0.388900
     28 C28         5.5090    1.1640    1.0160 c3        1 MO9      0.596700
     29 F29         6.7370    1.1620    0.4200 f         1 MO9     -0.240300
     30 F30         5.5830    0.2430    2.0160 f         1 MO9     -0.240300
     31 N31        -4.0390    5.8730    1.3500 n1        1 MO9     -0.353800
     32 H3          2.2620   -2.3800   -2.2300 ha        1 MO9      0.156000
     33 H4          4.1370   -4.0140   -2.0860 ha        1 MO9      0.142000
     34 H5          6.2420   -3.4020   -0.8860 ha        1 MO9      0.141000
     35 H6          6.4750   -1.1590    0.1690 ha        1 MO9      0.156000
     36 H71         2.5630    1.1520   -0.9390 h1        1 MO9      0.127200
     37 H72         1.9660    0.2480   -2.3600 h1        1 MO9      0.127200
     38 H91         0.3370    1.9620   -1.0000 h1        1 MO9      0.139700
     39 H92        -0.5680    0.7840   -1.9870 h1        1 MO9      0.139700
     40 H10        -1.1830    1.4230    0.9930 h1        1 MO9      0.115700
     41 HN15       -3.7550    2.2600    0.6640 hn        1 MO9      0.345500
     42 H171       -3.7090    4.4010   -1.4290 h1        1 MO9      0.094200
     43 H172       -5.2220    3.7210   -0.6310 h1        1 MO9      0.094200
     44 H221       -3.9510   -3.0470    2.3560 h1        1 MO9      0.089700
     45 H222       -4.6480   -1.3570    2.4670 h1        1 MO9      0.089700
     46 H231       -6.2370   -3.1880    1.5120 h1        1 MO9      0.060200
     47 H232       -6.0150   -1.7190    0.4290 h1        1 MO9      0.060200
     48 H251       -3.8130   -3.8460   -1.6420 h1        1 MO9      0.060200
     49 H252       -4.4730   -2.1320   -1.5610 h1        1 MO9      0.060200
     50 H261       -2.0810   -2.0990   -0.8080 h1        1 MO9      0.089700
     51 H262       -2.3900   -3.5020    0.3180 h1        1 MO9      0.089700
     52 H28         5.1840    2.1890    1.3670 h3        1 MO9      0.130700
@<TRIPOS>BOND
     1    1    2 ar  
     2    1    6 ar  
     3    1   27 1   
     4    2    3 ar  
     5    2    7 1   
     6    3    4 ar  
     7    3   32 1   
     8    4    5 ar  
     9    4   33 1   
    10    5    6 ar  
    11    5   34 1   
    12    6   35 1   
    13    7   11 1   
    14    7   36 1   
    15    7   37 1   
    16    8    9 1   
    17    8   11 1   
    18    8   38 1   
    19    8   39 1   
    20    9   10 1   
    21    9   12 1   
    22    9   40 1   
    23   10   15 1   
    24   10   16 2   
    25   11   13 2   
    26   11   14 2   
    27   12   19 1   
    28   15   17 1   
    29   15   41 1   
    30   17   18 1   
    31   17   42 1   
    32   17   43 1   
    33   18   31 3   
    34   19   20 1   
    35   19   21 2   
    36   20   22 1   
    37   20   26 1   
    38   22   23 1   
    39   22   44 1   
    40   22   45 1   
    41   23   24 1   
    42   23   46 1   
    43   23   47 1   
    44   24   25 1   
    45   25   26 1   
    46   25   48 1   
    47   25   49 1   
    48   26   50 1   
    49   26   51 1   
    50   27   28 1   
    51   28   29 1   
    52   28   30 1   
    53   28   52 1   
@<TRIPOS>SUBSTRUCTURE
     1 MO9         1 TEMP              0 ****  ****    0 ROOT
