@<TRIPOS>MOLECULE
MO9
   53    54     1     0     0
SMALL
bcc


@<TRIPOS>ATOM
      1 C1          0.1980   -0.0340    0.3450 ca        1 MO9      0.162100
      2 C2          1.5870   -0.2480    0.2200 ca        1 MO9     -0.139300
      3 C3          2.3340   -0.5000    1.3800 ca        1 MO9     -0.090000
      4 C4          1.7180   -0.5550    2.6250 ca        1 MO9     -0.144000
      5 C5          0.3410   -0.3460    2.7330 ca        1 MO9     -0.067000
      6 C6         -0.4240   -0.0860    1.5990 ca        1 MO9     -0.172000
      7 C7          2.2680   -0.1540   -1.0950 c3        1 MO9     -0.248300
      8 C9          3.5610   -1.1370   -3.1300 c3        1 MO9     -0.314600
      9 C10         3.7380   -2.2480   -4.1460 c3        1 MO9      0.154100
     10 C12         3.9570   -1.6470   -5.5400 c         1 MO9      0.523100
     11 S8          2.7080   -1.6790   -1.6840 s6        1 MO9      1.313000
     12 O11         4.8870   -2.9990   -3.7660 os        1 MO9     -0.463900
     13 O13         3.6640   -2.3100   -0.8830 o         1 MO9     -0.636300
     14 O14         1.6430   -2.4470   -2.1590 o         1 MO9     -0.636300
     15 N15         4.6650   -2.5470   -6.5240 ny        1 MO9     -0.680800
     16 O16         3.5960   -0.5500   -5.9300 o         1 MO9     -0.402100
     17 C17         4.7680   -2.0180   -7.9160 c3        1 MO9      0.193900
     18 C18         3.5800   -2.2880   -8.7020 c1        1 MO9      0.130700
     19 C19         4.7450   -4.4060   -3.8550 c         1 MO9      0.743100
     20 N20         5.0220   -5.1270   -2.7450 n         1 MO9     -0.381800
     21 O21         4.3640   -4.7870   -4.9850 o         1 MO9     -0.647000
     22 C22         5.0870   -6.5810   -2.8230 c3        1 MO9      0.042500
     23 C23         6.4230   -7.1350   -2.3060 c3        1 MO9      0.105400
     24 O24         6.7480   -6.6010   -1.0300 os        1 MO9     -0.389600
     25 C25         6.8280   -5.1810   -1.0370 c3        1 MO9      0.105400
     26 C26         5.5130   -4.5420   -1.5070 c3        1 MO9      0.042500
     27 O27        -0.4570    0.2290   -0.8480 os        1 MO9     -0.400900
     28 C28        -1.8590    0.3990   -0.9070 c3        1 MO9      0.601700
     29 F29        -2.2140    1.4540   -0.1220 f         1 MO9     -0.232300
     30 F30        -2.4730   -0.6930   -0.3740 f         1 MO9     -0.232300
     31 N31         2.6490   -2.4790   -9.3710 n1        1 MO9     -0.213800
     32 H3          3.4200   -0.6690    1.2950 ha        1 MO9      0.147000
     33 H4          2.3170   -0.7590    3.5260 ha        1 MO9      0.152000
     34 H5         -0.1470   -0.3860    3.7200 ha        1 MO9      0.154000
     35 H6         -1.5090    0.0790    1.6910 ha        1 MO9      0.166000
     36 H71         3.1620    0.5220   -0.9740 h1        1 MO9      0.138200
     37 H72         1.5850    0.3930   -1.8070 h1        1 MO9      0.138200
     38 H91         4.5720   -0.7430   -2.8400 h1        1 MO9      0.134200
     39 H92         3.0140   -0.2860   -3.6140 h1        1 MO9      0.134200
     40 H10         2.8100   -2.8990   -4.2140 h1        1 MO9      0.148700
     41 HN15        5.6090   -2.7190   -6.1490 hn        1 MO9      0.492300
     42 H171        4.9420   -0.8970   -7.8700 hx        1 MO9      0.139700
     43 H172        5.6620   -2.5090   -8.4120 hx        1 MO9      0.139700
     44 H221        4.2480   -6.9750   -2.1780 h1        1 MO9      0.094450
     45 H222        4.9210   -6.9210   -3.8830 h1        1 MO9      0.094450
     46 H231        6.3310   -8.2410   -2.1330 h1        1 MO9      0.071200
     47 H232        7.2520   -6.9250   -3.0310 h1        1 MO9      0.071200
     48 H251        7.0160   -4.9060    0.0350 h1        1 MO9      0.071200
     49 H252        7.6870   -4.8520   -1.6780 h1        1 MO9      0.071200
     50 H261        5.6550   -3.4310   -1.6190 h1        1 MO9      0.094450
     51 H262        4.7130   -4.7070   -0.7270 h1        1 MO9      0.094450
     52 H28        -2.0870    0.5550   -2.0050 h3        1 MO9      0.132700
     53 H152        4.1730   -3.4660   -6.5170 hn        1 MO9      0.492300
@<TRIPOS>BOND
     1    1    2 ar  
     2    1    6 ar  
     3    1   27 1   
     4    2    3 ar  
     5    2    7 1   
     6    3    4 ar  
     7    3   32 1   
     8    4    5 ar  
     9    4   33 1   
    10    5    6 ar  
    11    5   34 1   
    12    6   35 1   
    13    7   11 1   
    14    7   36 1   
    15    7   37 1   
    16    8    9 1   
    17    8   11 1   
    18    8   38 1   
    19    8   39 1   
    20    9   10 1   
    21    9   12 1   
    22    9   40 1   
    23   10   15 1   
    24   10   16 2   
    25   11   13 2   
    26   11   14 2   
    27   12   19 1   
    28   15   17 1   
    29   15   41 1   
    30   15   53 1   
    31   17   18 1   
    32   17   42 1   
    33   17   43 1   
    34   18   31 3   
    35   19   20 1   
    36   19   21 2   
    37   20   22 1   
    38   20   26 1   
    39   22   23 1   
    40   22   44 1   
    41   22   45 1   
    42   23   24 1   
    43   23   46 1   
    44   23   47 1   
    45   24   25 1   
    46   25   26 1   
    47   25   48 1   
    48   25   49 1   
    49   26   50 1   
    50   26   51 1   
    51   27   28 1   
    52   28   29 1   
    53   28   30 1   
    54   28   52 1   
@<TRIPOS>SUBSTRUCTURE
     1 MO9         1 TEMP              0 ****  ****    0 ROOT
