@<TRIPOS>MOLECULE
MO9
   53    54     1     0     0
SMALL
bcc


@<TRIPOS>ATOM
      1 C1          0.2870    0.1000    0.4720 ca        1 MO9      0.162100
      2 C2          1.6640   -0.1170    0.2540 ca        1 MO9     -0.139300
      3 C3          2.4970   -0.3130    1.3640 ca        1 MO9     -0.090000
      4 C4          1.9760   -0.3110    2.6530 ca        1 MO9     -0.144000
      5 C5          0.6110   -0.1020    2.8550 ca        1 MO9     -0.066000
      6 C6         -0.2380    0.1040    1.7710 ca        1 MO9     -0.173000
      7 C7          2.2440   -0.0820   -1.1120 c3        1 MO9     -0.249300
      8 C9          3.3980   -1.1530   -3.1860 c3        1 MO9     -0.311600
      9 C10         3.4900   -2.3040   -4.1680 c3        1 MO9      0.155100
     10 C12         3.6370   -1.7530   -5.5910 c         1 MO9      0.529100
     11 S8          2.6510   -1.6320   -1.6590 s6        1 MO9      1.314000
     12 O11         4.6280   -3.0790   -3.8080 os        1 MO9     -0.464900
     13 O13         3.6640   -2.2210   -0.9000 o         1 MO9     -0.634800
     14 O14         1.5600   -2.4220   -2.0250 o         1 MO9     -0.634800
     15 N15         4.5020   -2.5570   -6.5290 n4        1 MO9     -0.680800
     16 O16         3.0940   -0.7590   -6.0430 o         1 MO9     -0.411100
     17 C17         4.6590   -1.9380   -7.8770 c3        1 MO9      0.194900
     18 C18         5.5430   -2.7140   -8.7240 c1        1 MO9      0.126700
     19 C19         4.4660   -4.4820   -3.9310 c         1 MO9      0.741100
     20 N20         4.7680   -5.2370   -2.8490 n         1 MO9     -0.378800
     21 O21         4.0380   -4.8250   -5.0560 o         1 MO9     -0.644000
     22 C22         4.8550   -6.6860   -2.9820 c3        1 MO9      0.038500
     23 C23         6.2340   -7.2290   -2.5780 c3        1 MO9      0.104400
     24 O24         6.6370   -6.7320   -1.3090 os        1 MO9     -0.390600
     25 C25         6.6830   -5.3120   -1.2660 c3        1 MO9      0.104400
     26 C26         5.3230   -4.6930   -1.6190 c3        1 MO9      0.038500
     27 O27        -0.4580    0.3040   -0.6780 os        1 MO9     -0.400900
     28 C28        -1.8620    0.4670   -0.6390 c3        1 MO9      0.601700
     29 F29        -2.1640    1.5560    0.1200 f         1 MO9     -0.232300
     30 F30        -2.4260   -0.6010   -0.0120 f         1 MO9     -0.232300
     31 N31         6.2440   -3.3020   -9.4400 n1        1 MO9     -0.212800
     32 H3          3.5750   -0.4830    1.2050 ha        1 MO9      0.147000
     33 H4          2.6430   -0.4730    3.5150 ha        1 MO9      0.152000
     34 H5          0.1980   -0.0960    3.8760 ha        1 MO9      0.154000
     35 H6         -1.3150    0.2710    1.9370 ha        1 MO9      0.167000
     36 H71         1.5040    0.4270   -1.7960 h1        1 MO9      0.138200
     37 H72         3.1380    0.6030   -1.0900 h1        1 MO9      0.138200
     38 H91         2.8200   -0.3180   -3.6630 h1        1 MO9      0.132200
     39 H92         4.4290   -0.7570   -2.9840 h1        1 MO9      0.132200
     40 H10         2.5410   -2.9280   -4.1680 h1        1 MO9      0.153700
     41 HN15        4.0800   -3.5060   -6.6100 hn        1 MO9      0.490300
     42 H171        3.6340   -1.8570   -8.3550 hx        1 MO9      0.140700
     43 H172        5.0690   -0.8890   -7.7470 hx        1 MO9      0.140700
     44 H221        4.0710   -7.1180   -2.2950 h1        1 MO9      0.096200
     45 H222        4.6220   -6.9940   -4.0400 h1        1 MO9      0.096200
     46 H231        6.1760   -8.3410   -2.4390 h1        1 MO9      0.071700
     47 H232        7.0070   -6.9750   -3.3500 h1        1 MO9      0.071700
     48 H251        6.9400   -5.0720   -0.2000 h1        1 MO9      0.071700
     49 H252        7.4870   -4.9360   -1.9520 h1        1 MO9      0.071700
     50 H261        5.4210   -3.5730   -1.6830 h1        1 MO9      0.096200
     51 H262        4.5820   -4.9280   -0.7990 h1        1 MO9      0.096200
     52 H28        -2.1720    0.5710   -1.7230 h3        1 MO9      0.132700
     53 H152        5.4190   -2.6840   -6.0770 hn        1 MO9      0.490300
@<TRIPOS>BOND
     1    1    2 ar  
     2    1    6 ar  
     3    1   27 1   
     4    2    3 ar  
     5    2    7 1   
     6    3    4 ar  
     7    3   32 1   
     8    4    5 ar  
     9    4   33 1   
    10    5    6 ar  
    11    5   34 1   
    12    6   35 1   
    13    7   11 1   
    14    7   36 1   
    15    7   37 1   
    16    8    9 1   
    17    8   11 1   
    18    8   38 1   
    19    8   39 1   
    20    9   10 1   
    21    9   12 1   
    22    9   40 1   
    23   10   15 1   
    24   10   16 2   
    25   11   13 2   
    26   11   14 2   
    27   12   19 1   
    28   15   17 1   
    29   15   41 1   
    30   15   53 1   
    31   17   18 1   
    32   17   42 1   
    33   17   43 1   
    34   18   31 3   
    35   19   20 1   
    36   19   21 2   
    37   20   22 1   
    38   20   26 1   
    39   22   23 1   
    40   22   44 1   
    41   22   45 1   
    42   23   24 1   
    43   23   46 1   
    44   23   47 1   
    45   24   25 1   
    46   25   26 1   
    47   25   48 1   
    48   25   49 1   
    49   26   50 1   
    50   26   51 1   
    51   27   28 1   
    52   28   29 1   
    53   28   30 1   
    54   28   52 1   
@<TRIPOS>SUBSTRUCTURE
     1 MO9         1 TEMP              0 ****  ****    0 ROOT
