@<TRIPOS>MOLECULE
MO9
   53    54     1     0     0
SMALL
bcc


@<TRIPOS>ATOM
      1 C1          0.1890   -0.0230    0.3280 ca        1 MO9      0.162100
      2 C2          1.5770   -0.2460    0.2130 ca        1 MO9     -0.139300
      3 C3          2.3140   -0.5050    1.3770 ca        1 MO9     -0.090000
      4 C4          1.6890   -0.5590    2.6180 ca        1 MO9     -0.144000
      5 C5          0.3130   -0.3430    2.7160 ca        1 MO9     -0.067000
      6 C6         -0.4420   -0.0750    1.5780 ca        1 MO9     -0.172000
      7 C7          2.2680   -0.1520   -1.0970 c3        1 MO9     -0.249300
      8 C9          3.5720   -1.1380   -3.1240 c3        1 MO9     -0.314600
      9 C10         3.7520   -2.2470   -4.1410 c3        1 MO9      0.154100
     10 C12         3.9860   -1.6440   -5.5320 c         1 MO9      0.523100
     11 S8          2.7040   -1.6790   -1.6870 s6        1 MO9      1.313000
     12 O11         4.8940   -3.0050   -3.7530 os        1 MO9     -0.463900
     13 O13         3.6510   -2.3170   -0.8790 o         1 MO9     -0.636300
     14 O14         1.6390   -2.4390   -2.1720 o         1 MO9     -0.636300
     15 N15         4.6980   -2.5450   -6.5120 n4        1 MO9     -0.680800
     16 O16         3.6330   -0.5450   -5.9230 o         1 MO9     -0.402100
     17 C17         4.8160   -2.0130   -7.9020 c3        1 MO9      0.193900
     18 C18         3.6340   -2.2750   -8.6990 c1        1 MO9      0.130700
     19 C19         4.7450   -4.4110   -3.8460 c         1 MO9      0.743100
     20 N20         5.0090   -5.1360   -2.7360 n         1 MO9     -0.381800
     21 O21         4.3720   -4.7870   -4.9810 o         1 MO9     -0.647000
     22 C22         5.0670   -6.5900   -2.8170 c3        1 MO9      0.042500
     23 C23         6.3960   -7.1520   -2.2900 c3        1 MO9      0.105400
     24 O24         6.7130   -6.6220   -1.0100 os        1 MO9     -0.389600
     25 C25         6.8000   -5.2030   -1.0130 c3        1 MO9      0.105400
     26 C26         5.4930   -4.5560   -1.4920 c3        1 MO9      0.042500
     27 O27        -0.4570    0.2460   -0.8680 os        1 MO9     -0.400900
     28 C28        -1.8580    0.4260   -0.9370 c3        1 MO9      0.601700
     29 F29        -2.2110    1.4810   -0.1520 f         1 MO9     -0.232300
     30 F30        -2.4820   -0.6640   -0.4110 f         1 MO9     -0.232300
     31 N31         2.7080   -2.4610   -9.3770 n1        1 MO9     -0.213800
     32 H3          3.4000   -0.6800    1.2990 ha        1 MO9      0.147000
     33 H4          2.2800   -0.7700    3.5220 ha        1 MO9      0.152000
     34 H5         -0.1830   -0.3820    3.6990 ha        1 MO9      0.154000
     35 H6         -1.5270    0.0960    1.6630 ha        1 MO9      0.166000
     36 H71         3.1640    0.5190   -0.9680 h1        1 MO9      0.138200
     37 H72         1.5930    0.4000   -1.8130 h1        1 MO9      0.138200
     38 H91         4.5820   -0.7490   -2.8250 h1        1 MO9      0.134200
     39 H92         3.0340   -0.2820   -3.6110 h1        1 MO9      0.134200
     40 H10         2.8210   -2.8930   -4.2190 h1        1 MO9      0.148700
     41 HN15        4.2020   -3.4620   -6.5110 hn        1 MO9      0.492300
     42 H171        4.9960   -0.8940   -7.8510 hx        1 MO9      0.139700
     43 H172        5.7120   -2.5080   -8.3900 hx        1 MO9      0.139700
     44 H221        4.2210   -6.9810   -2.1790 h1        1 MO9      0.094450
     45 H222        4.9090   -6.9270   -3.8790 h1        1 MO9      0.094450
     46 H231        7.2320   -6.9440   -3.0080 h1        1 MO9      0.071200
     47 H232        6.2970   -8.2580   -2.1200 h1        1 MO9      0.071200
     48 H251        7.6660   -4.8770   -1.6470 h1        1 MO9      0.071200
     49 H252        6.9810   -4.9310    0.0610 h1        1 MO9      0.071200
     50 H261        5.6410   -3.4460   -1.6010 h1        1 MO9      0.094450
     51 H262        4.6850   -4.7200   -0.7190 h1        1 MO9      0.094450
     52 H28        -2.0760    0.5860   -2.0350 h3        1 MO9      0.132700
     53 H152        5.6380   -2.7230   -6.1290 hn        1 MO9      0.492300
@<TRIPOS>BOND
     1    1    2 ar  
     2    1    6 ar  
     3    1   27 1   
     4    2    3 ar  
     5    2    7 1   
     6    3    4 ar  
     7    3   32 1   
     8    4    5 ar  
     9    4   33 1   
    10    5    6 ar  
    11    5   34 1   
    12    6   35 1   
    13    7   11 1   
    14    7   36 1   
    15    7   37 1   
    16    8    9 1   
    17    8   11 1   
    18    8   38 1   
    19    8   39 1   
    20    9   10 1   
    21    9   12 1   
    22    9   40 1   
    23   10   15 1   
    24   10   16 2   
    25   11   13 2   
    26   11   14 2   
    27   12   19 1   
    28   15   17 1   
    29   15   41 1   
    30   15   53 1   
    31   17   18 1   
    32   17   42 1   
    33   17   43 1   
    34   18   31 3   
    35   19   20 1   
    36   19   21 2   
    37   20   22 1   
    38   20   26 1   
    39   22   23 1   
    40   22   44 1   
    41   22   45 1   
    42   23   24 1   
    43   23   46 1   
    44   23   47 1   
    45   24   25 1   
    46   25   26 1   
    47   25   48 1   
    48   25   49 1   
    49   26   50 1   
    50   26   51 1   
    51   27   28 1   
    52   28   29 1   
    53   28   30 1   
    54   28   52 1   
@<TRIPOS>SUBSTRUCTURE
     1 MO9         1 TEMP              0 ****  ****    0 ROOT
