@<TRIPOS>MOLECULE
MOA
   42    38     1     0     0
SMALL
bcc


@<TRIPOS>ATOM
      1 C1         -4.4450    0.3020    1.3130 c1        1 MOA      0.366000
      2 C2          0.6350   -1.0970   -1.0730 c1        1 MOA     -0.167000
      3 C3          1.3650   -1.3030   -2.2490 c1        1 MOA     -0.106000
      4 C4          1.9420   -0.1040   -3.0190 c2        1 MOA     -0.117000
      5 C5          2.7260   -0.6090   -4.2000 c3        1 MOA     -0.221000
      6 C6          3.2440    0.5690   -5.0080 c2        1 MOA      0.326000
      7 C7         -0.7090    0.2450    4.3750 c3        1 MOA     -0.160000
      8 C8          1.6770    1.5600    2.6000 c3        1 MOA     -0.079000
      9 C9          1.5830   -2.6990   -2.7640 c3        1 MOA     -0.176000
     10 C10        -3.7520    0.2910    3.5260 c3        1 MOA      0.015000
     11 C11        -2.5190    0.3630    2.6470 c2        1 MOA     -0.058000
     12 C12        -1.1660    0.3630    2.9460 c2        1 MOA     -0.107000
     13 C13        -0.2200    0.3370    1.9060 c1        1 MOA      0.157000
     14 C14        -0.6380    0.3110    0.5830 c1        1 MOA     -0.123000
     15 C15        -1.9730    0.3110    0.2840 c1        1 MOA      0.191000
     16 C16        -2.9320    0.3370    1.3290 c1        1 MOA     -0.301000
     17 C17         0.4130    0.3240   -0.5510 c2        1 MOA     -0.131000
     18 O1         -5.1620    0.3000    0.3010 o         1 MOA     -0.336000
     19 O2         -4.9010    0.2680    2.6670 os        1 MOA     -0.264000
     20 O3          1.1620    0.3180    2.2060 os        1 MOA     -0.241000
     21 O4         -2.3990    0.3720   -1.0820 oh        1 MOA     -0.236000
     22 O5          2.6210    0.9400   -6.0540 o         1 MOA     -0.588000
     23 O6          4.3550    1.1140   -4.7020 o         1 MOA     -0.588000
     24 H21         0.2650   -1.8680   -0.5800 ha        1 MOA      0.104000
     25 H41         2.5380    0.4220   -2.4210 ha        1 MOA      0.081500
     26 H42         1.2080    0.4670   -3.3350 ha        1 MOA      0.081500
     27 H51         3.4600   -1.1360   -3.8950 hc        1 MOA      0.067500
     28 H52         2.1580   -1.1440   -4.7500 hc        1 MOA      0.067500
     29 H71         0.1540   -0.2760    4.4070 hc        1 MOA      0.082667
     30 H72        -1.4070   -0.2310    4.9140 hc        1 MOA      0.082667
     31 H73        -0.5630    1.1430    4.7500 hc        1 MOA      0.082667
     32 H81         0.9450    2.2570    2.5700 h1        1 MOA      0.110333
     33 H82         2.4420    1.8340    1.9590 h1        1 MOA      0.110333
     34 H83         2.0250    1.4900    3.5170 h1        1 MOA      0.110333
     35 H91         2.5220   -2.8940   -2.7750 hc        1 MOA      0.069000
     36 H92         1.2130   -2.7750   -3.7030 hc        1 MOA      0.069000
     37 H93         1.1120   -3.3530   -2.1650 hc        1 MOA      0.069000
     38 H1O1       -3.7270   -0.5780    4.0770 h1        1 MOA      0.109000
     39 H102       -3.7890    1.1280    4.1210 h1        1 MOA      0.109000
     40 H171        1.2910    0.6870   -0.1880 ha        1 MOA      0.149000
     41 H172        0.1070    0.8830   -1.2680 ha        1 MOA      0.149000
     42 HO41       -2.8610    1.1320   -1.2190 ho        1 MOA      0.239000
@<TRIPOS>BOND
     1    1   18 1   
     2    1   19 1   
     3    2    3 1   
     4    2   24 1   
     5    3    9 1   
     6    4    5 1   
     7    4   25 1   
     8    4   26 1   
     9    5    6 1   
    10    5   27 1   
    11    5   28 1   
    12    6   22 1   
    13    6   23 1   
    14    7   12 1   
    15    7   29 1   
    16    7   30 1   
    17    7   31 1   
    18    8   20 1   
    19    8   32 1   
    20    8   33 1   
    21    8   34 1   
    22    9   35 1   
    23    9   36 1   
    24    9   37 1   
    25   10   11 1   
    26   10   19 1   
    27   10   38 1   
    28   10   39 1   
    29   11   12 1   
    30   11   16 1   
    31   12   13 1   
    32   13   20 1   
    33   14   15 1   
    34   14   17 1   
    35   15   21 1   
    36   17   40 1   
    37   17   41 1   
    38   21   42 1   
@<TRIPOS>SUBSTRUCTURE
     1 MOA         1 TEMP              0 ****  ****    0 ROOT
