@<TRIPOS>MOLECULE
MOA
   42    43     1     0     0
SMALL
bcc


@<TRIPOS>ATOM
      1 C1         -0.0410   -0.3640   -0.0940 c         1 MOA      0.747200
      2 C2          5.2590    1.2210   -2.1400 c2        1 MOA     -0.240200
      3 C3          5.1050    1.8950   -3.2920 c2        1 MOA     -0.054400
      4 C4          5.6980    3.2510   -3.4790 c3        1 MOA     -0.046200
      5 C5          6.8000    3.2610   -4.5160 c3        1 MOA     -0.191400
      6 C6          7.1510    4.6990   -4.9420 c         1 MOA      0.907600
      7 C7          3.5990    0.0460    3.0350 c3        1 MOA     -0.047800
      8 C8          6.1260   -1.0780    1.2360 c3        1 MOA      0.116700
      9 C9          4.3500    1.3520   -4.4490 c3        1 MOA     -0.069900
     10 C10         0.5920   -0.1760    2.1340 c3        1 MOA      0.169700
     11 C11         1.8290   -0.1670    1.2840 ca        1 MOA     -0.069300
     12 C12         3.1600   -0.0720    1.6280 ca        1 MOA     -0.103300
     13 C13         4.1020   -0.0760    0.5590 ca        1 MOA      0.145100
     14 C14         3.7360   -0.1700   -0.7870 ca        1 MOA     -0.088300
     15 C15         2.3520   -0.2700   -1.1040 ca        1 MOA      0.229100
     16 C16         1.4230   -0.2740   -0.0730 ca        1 MOA     -0.290600
     17 C17         4.7550   -0.1500   -1.8760 c3        1 MOA      0.018100
     18 O1         -0.8720   -0.4810   -0.9890 o         1 MOA     -0.592500
     19 O2         -0.5250   -0.3090    1.2100 os        1 MOA     -0.416900
     20 O3          5.4440    0.1210    0.8680 os        1 MOA     -0.331900
     21 O4          2.0050   -0.3830   -2.4210 oh        1 MOA     -0.475100
     22 O5          8.3720    4.9740   -5.1200 o         1 MOA     -0.850300
     23 O6          6.2080    5.5240   -5.1160 o         1 MOA     -0.850300
     24 H21         5.8110    1.6670   -1.2960 ha        1 MOA      0.129000
     25 H41         6.1040    3.6380   -2.5070 hc        1 MOA      0.057700
     26 H42         4.8960    3.9670   -3.8130 hc        1 MOA      0.057700
     27 H51         7.7160    2.7580   -4.1180 hc        1 MOA      0.022700
     28 H52         6.4720    2.7060   -5.4320 hc        1 MOA      0.022700
     29 H71         2.8360    0.5950    3.6410 hc        1 MOA      0.048033
     30 H72         4.5710    0.5980    3.0970 hc        1 MOA      0.048033
     31 H73         3.7400   -0.9700    3.4830 hc        1 MOA      0.048033
     32 H81         7.1770   -0.7380    1.4130 h1        1 MOA      0.040700
     33 H82         5.6810   -1.5040    2.1690 h1        1 MOA      0.040700
     34 H83         6.0850   -1.8250    0.4080 h1        1 MOA      0.040700
     35 H91         4.1410    2.1560   -5.1980 hc        1 MOA      0.041700
     36 H92         3.3760    0.9100   -4.1190 hc        1 MOA      0.041700
     37 H93         4.9460    0.5520   -4.9550 hc        1 MOA      0.041700
     38 H1O1        0.5440   -1.0540    2.8250 h1        1 MOA      0.074700
     39 H102        0.4420    0.7830    2.6890 h1        1 MOA      0.074700
     40 H171        5.6260   -0.7930   -1.5600 hc        1 MOA      0.053200
     41 H172        4.3180   -0.6080   -2.8050 hc        1 MOA      0.053200
     42 HO41        1.0320   -0.3770   -2.4810 ho        1 MOA      0.447000
@<TRIPOS>BOND
     1    1   16 1   
     2    1   18 2   
     3    1   19 1   
     4    2    3 2   
     5    2   17 1   
     6    2   24 1   
     7    3    4 1   
     8    3    9 1   
     9    4    5 1   
    10    4   25 1   
    11    4   26 1   
    12    5    6 1   
    13    5   27 1   
    14    5   28 1   
    15    6   22 1   
    16    6   23 1   
    17    7   12 1   
    18    7   29 1   
    19    7   30 1   
    20    7   31 1   
    21    8   20 1   
    22    8   32 1   
    23    8   33 1   
    24    8   34 1   
    25    9   35 1   
    26    9   36 1   
    27    9   37 1   
    28   10   11 1   
    29   10   19 1   
    30   10   38 1   
    31   10   39 1   
    32   11   12 ar  
    33   11   16 ar  
    34   12   13 ar  
    35   13   14 ar  
    36   13   20 1   
    37   14   15 ar  
    38   14   17 1   
    39   15   16 ar  
    40   15   21 1   
    41   17   40 1   
    42   17   41 1   
    43   21   42 1   
@<TRIPOS>SUBSTRUCTURE
     1 MOA         1 TEMP              0 ****  ****    0 ROOT
