@<TRIPOS>MOLECULE
MOA
   42    43     1     0     0
SMALL
bcc


@<TRIPOS>ATOM
      1 C1         -0.0490   -0.3550   -0.1170 c         1 MOA      0.747200
      2 C2          5.2650    1.2210   -2.1340 c2        1 MOA     -0.240200
      3 C3          5.1180    1.8990   -3.2840 c2        1 MOA     -0.054400
      4 C4          5.7160    3.2540   -3.4630 c3        1 MOA     -0.046200
      5 C5          6.8220    3.2640   -4.4950 c3        1 MOA     -0.191400
      6 C6          7.1800    4.7030   -4.9150 c         1 MOA      0.907600
      7 C7          3.5790    0.0330    3.0300 c3        1 MOA     -0.047800
      8 C8          6.1100   -1.0930    1.2380 c3        1 MOA      0.116700
      9 C9          4.3660    1.3630   -4.4460 c3        1 MOA     -0.069900
     10 C10         0.5750   -0.1770    2.1150 c3        1 MOA      0.169700
     11 C11         1.8160   -0.1680    1.2700 ca        1 MOA     -0.069300
     12 C12         3.1450   -0.0790    1.6210 ca        1 MOA     -0.103300
     13 C13         4.0920   -0.0820    0.5560 ca        1 MOA      0.145100
     14 C14         3.7320   -0.1700   -0.7920 ca        1 MOA     -0.088300
     15 C15         2.3480   -0.2640   -1.1160 ca        1 MOA      0.229100
     16 C16         1.4150   -0.2690   -0.0890 ca        1 MOA     -0.290600
     17 C17         4.7560   -0.1500   -1.8770 c3        1 MOA      0.018100
     18 O1         -0.8770   -0.4650   -1.0150 o         1 MOA     -0.592500
     19 O2         -0.5380   -0.3030    1.1860 os        1 MOA     -0.416900
     20 O3          5.4340    0.1090    0.8710 os        1 MOA     -0.331900
     21 O4          2.0070   -0.3720   -2.4350 oh        1 MOA     -0.475100
     22 O5          8.4020    4.9750   -5.0860 o         1 MOA     -0.850300
     23 O6          6.2400    5.5320   -5.0890 o         1 MOA     -0.850300
     24 H21         5.8140    1.6620   -1.2860 ha        1 MOA      0.129000
     25 H41         4.9170    3.9740   -3.7980 hc        1 MOA      0.057700
     26 H42         6.1190    3.6370   -2.4890 hc        1 MOA      0.057700
     27 H51         7.7350    2.7570   -4.0960 hc        1 MOA      0.022700
     28 H52         6.4960    2.7150   -5.4150 hc        1 MOA      0.022700
     29 H71         4.5520    0.5810    3.0980 hc        1 MOA      0.048033
     30 H72         3.7150   -0.9850    3.4750 hc        1 MOA      0.048033
     31 H73         2.8150    0.5820    3.6340 hc        1 MOA      0.048033
     32 H81         5.6600   -1.5210    2.1670 h1        1 MOA      0.040700
     33 H82         6.0700   -1.8370    0.4070 h1        1 MOA      0.040700
     34 H83         7.1610   -0.7570    1.4200 h1        1 MOA      0.040700
     35 H91         4.1630    2.1710   -5.1930 hc        1 MOA      0.041700
     36 H92         4.9620    0.5640   -4.9530 hc        1 MOA      0.041700
     37 H93         3.3890    0.9230   -4.1220 hc        1 MOA      0.041700
     38 H1O1        0.4250    0.7810    2.6730 h1        1 MOA      0.074700
     39 H102        0.5210   -1.0570    2.8020 h1        1 MOA      0.074700
     40 H171        5.6230   -0.7960   -1.5590 hc        1 MOA      0.053200
     41 H172        4.3210   -0.6030   -2.8100 hc        1 MOA      0.053200
     42 HO41        1.0350   -0.3620   -2.4980 ho        1 MOA      0.447000
@<TRIPOS>BOND
     1    1   16 1   
     2    1   18 2   
     3    1   19 1   
     4    2    3 2   
     5    2   17 1   
     6    2   24 1   
     7    3    4 1   
     8    3    9 1   
     9    4    5 1   
    10    4   25 1   
    11    4   26 1   
    12    5    6 1   
    13    5   27 1   
    14    5   28 1   
    15    6   22 1   
    16    6   23 1   
    17    7   12 1   
    18    7   29 1   
    19    7   30 1   
    20    7   31 1   
    21    8   20 1   
    22    8   32 1   
    23    8   33 1   
    24    8   34 1   
    25    9   35 1   
    26    9   36 1   
    27    9   37 1   
    28   10   11 1   
    29   10   19 1   
    30   10   38 1   
    31   10   39 1   
    32   11   12 ar  
    33   11   16 ar  
    34   12   13 ar  
    35   13   14 ar  
    36   13   20 1   
    37   14   15 ar  
    38   14   17 1   
    39   15   16 ar  
    40   15   21 1   
    41   17   40 1   
    42   17   41 1   
    43   21   42 1   
@<TRIPOS>SUBSTRUCTURE
     1 MOA         1 TEMP              0 ****  ****    0 ROOT
