@<TRIPOS>MOLECULE
MOA
   42    43     1     0     0
SMALL
bcc


@<TRIPOS>ATOM
      1 C1         -2.1450   -0.6370   -3.4280 c         1 MOA      0.749200
      2 C2          0.2950    0.2110    1.5200 c2        1 MOA     -0.270200
      3 C3         -0.3570    0.7300    2.5750 c2        1 MOA     -0.053400
      4 C4         -0.8180   -0.1270    3.7060 c3        1 MOA     -0.052200
      5 C5         -0.0250    0.1250    4.9700 c3        1 MOA     -0.193400
      6 C6         -0.8130   -0.3090    6.2220 c         1 MOA      0.908600
      7 C7          2.6400   -0.9910   -3.8680 c3        1 MOA     -0.039800
      8 C8          3.5450    1.4410   -1.5130 c3        1 MOA      0.116700
      9 C9         -0.6650    2.1780    2.6970 c3        1 MOA     -0.073900
     10 C10        -0.3460   -1.2940   -4.7550 c3        1 MOA      0.168700
     11 C11         0.1860   -0.7260   -3.4720 ca        1 MOA     -0.070300
     12 C12         1.4880   -0.5590   -3.0490 ca        1 MOA     -0.109300
     13 C13         1.6750    0.0260   -1.7670 ca        1 MOA      0.150100
     14 C14         0.6120    0.3990   -0.9380 ca        1 MOA     -0.156300
     15 C15        -0.7200    0.2060   -1.4050 ca        1 MOA      0.234100
     16 C16        -0.9200   -0.3410   -2.6700 ca        1 MOA     -0.223600
     17 C17         0.8550    1.0090    0.4010 c3        1 MOA     -0.001900
     18 O1         -3.3470   -0.5080   -3.2470 o         1 MOA     -0.550500
     19 O2         -1.7870   -1.1990   -4.6620 os        1 MOA     -0.432900
     20 O3          2.9840    0.1440   -1.3080 os        1 MOA     -0.341900
     21 O4         -1.8240    0.5690   -0.6920 oh        1 MOA     -0.476100
     22 O5         -0.1620   -0.8410    7.1640 o         1 MOA     -0.845800
     23 O6         -2.0590   -0.0900    6.2530 o         1 MOA     -0.845800
     24 H21         0.5030   -0.8690    1.4700 ha        1 MOA      0.135000
     25 H41        -1.9020    0.0920    3.9240 hc        1 MOA      0.062200
     26 H42        -0.7440   -1.2120    3.4310 hc        1 MOA      0.062200
     27 H51         0.9490   -0.4220    4.9360 hc        1 MOA      0.025200
     28 H52         0.1970    1.2180    5.0790 hc        1 MOA      0.025200
     29 H71         2.9430   -2.0300   -3.5800 hc        1 MOA      0.045367
     30 H72         2.3790   -0.9860   -4.9550 hc        1 MOA      0.045367
     31 H73         3.5180   -0.3190   -3.7030 hc        1 MOA      0.045367
     32 H81         4.5370    1.3840   -1.0000 h1        1 MOA      0.041033
     33 H82         3.6710    1.6380   -2.6050 h1        1 MOA      0.041033
     34 H83         2.9030    2.2300   -1.0510 h1        1 MOA      0.041033
     35 H91         0.2790    2.7780    2.7150 hc        1 MOA      0.043700
     36 H92        -1.2850    2.5230    1.8310 hc        1 MOA      0.043700
     37 H93        -1.2300    2.3850    3.6400 hc        1 MOA      0.043700
     38 H1O1       -0.0340   -0.7030   -5.6520 h1        1 MOA      0.070200
     39 H102       -0.0940   -2.3770   -4.8840 h1        1 MOA      0.070200
     40 H171        1.9640    1.1050    0.5750 hc        1 MOA      0.057200
     41 H172        0.4290    2.0520    0.3960 hc        1 MOA      0.057200
     42 HO41       -1.5680    0.7160    0.2380 ho        1 MOA      0.456000
@<TRIPOS>BOND
     1    1   16 1   
     2    1   18 2   
     3    1   19 1   
     4    2    3 2   
     5    2   17 1   
     6    2   24 1   
     7    3    4 1   
     8    3    9 1   
     9    4    5 1   
    10    4   25 1   
    11    4   26 1   
    12    5    6 1   
    13    5   27 1   
    14    5   28 1   
    15    6   22 1   
    16    6   23 1   
    17    7   12 1   
    18    7   29 1   
    19    7   30 1   
    20    7   31 1   
    21    8   20 1   
    22    8   32 1   
    23    8   33 1   
    24    8   34 1   
    25    9   35 1   
    26    9   36 1   
    27    9   37 1   
    28   10   11 1   
    29   10   19 1   
    30   10   38 1   
    31   10   39 1   
    32   11   12 ar  
    33   11   16 ar  
    34   12   13 ar  
    35   13   14 ar  
    36   13   20 1   
    37   14   15 ar  
    38   14   17 1   
    39   15   16 ar  
    40   15   21 1   
    41   17   40 1   
    42   17   41 1   
    43   21   42 1   
@<TRIPOS>SUBSTRUCTURE
     1 MOA         1 TEMP              0 ****  ****    0 ROOT
