@<TRIPOS>MOLECULE
MOB
   35    30     1     0     0
SMALL
bcc


@<TRIPOS>ATOM
      1 C1         -0.4140    2.4520    0.0610 cg        1 MOB     -0.035500
      2 C2          0.3670    3.1460    0.9370 cg        1 MOB     -0.035200
      3 C3          0.0980    3.0940    2.3010 c1        1 MOB     -0.056500
      4 C4         -0.9480    2.3480    2.7620 c1        1 MOB     -0.093500
      5 C5         -1.7410    1.6440    1.8720 c1        1 MOB     -0.093500
      6 C6         -1.4730    1.6970    0.5250 c1        1 MOB     -0.071000
      7 C1'         0.0550    0.3260   -1.4640 ch        1 MOB     -0.035500
      8 C2'        -0.9450   -0.6030   -1.7510 c1        1 MOB     -0.071000
      9 C3'        -0.8210   -1.8730   -1.3320 c1        1 MOB      0.055600
     10 C4'         0.3520   -2.2780   -0.5820 c1        1 MOB      0.047600
     11 C5'         1.2910   -1.4020   -0.3150 c1        1 MOB      0.053600
     12 C6'         1.1570   -0.0530   -0.7600 c1        1 MOB     -0.107500
     13 C           1.4800    4.0900    0.3990 c         1 MOB      0.857800
     14 CHX        -2.9720   -2.8390   -0.8780 c3        1 MOB      0.116700
     15 CHZ         3.3980   -2.5870   -0.3000 c3        1 MOB      0.114700
     16 N1         -0.2120    2.6210   -1.3810 ne        1 MOB     -0.038500
     17 N1'        -0.0010    1.6660   -2.0680 nf        1 MOB     -0.038500
     18 O           2.6520    4.0650    0.9200 o         1 MOB     -0.819300
     19 OXT         1.2140    4.9130   -0.5010 o         1 MOB     -0.819300
     20 O3'        -1.8540   -2.8690   -1.6980 os        1 MOB     -0.318400
     21 O4'         0.4940   -3.6480   -0.1420 oh        1 MOB     -0.491600
     22 O5'         2.4230   -1.7900    0.4520 os        1 MOB     -0.356400
     23 H3          0.5650    3.6490    2.8850 ha        1 MOB      0.079500
     24 H4         -1.1530    2.3090    3.8090 ha        1 MOB      0.053000
     25 H5         -2.5490    1.0670    2.2250 ha        1 MOB      0.053000
     26 H6         -2.0610    1.1740   -0.1380 ha        1 MOB      0.075500
     27 H2'        -1.6460   -0.3700   -2.3050 ha        1 MOB      0.075500
     28 H6'         2.0070    0.5350   -0.7140 ha        1 MOB      0.170500
     29 H31        -3.6940   -2.2510   -1.3030 h1        1 MOB      0.036033
     30 H32        -2.7210   -2.4630    0.0060 h1        1 MOB      0.036033
     31 H33        -3.3200   -3.7550   -0.7600 h1        1 MOB      0.036033
     32 H51         3.1490   -2.5920   -1.2650 h1        1 MOB      0.061700
     33 H52         3.4020   -3.4830    0.0330 h1        1 MOB      0.061700
     34 H53         4.2600   -2.2110   -0.1980 h1        1 MOB      0.061700
     35 HO4'        0.1600   -3.7310    0.6690 ho        1 MOB      0.431000
@<TRIPOS>BOND
     1    1    6 3   
     2    1   16 1   
     3    2    3 3   
     4    2   13 1   
     5    3   23 1   
     6    4    5 3   
     7    4   24 1   
     8    5   25 1   
     9    6   26 1   
    10    7    8 3   
    11    7   17 1   
    12    8   27 1   
    13    9   10 3   
    14    9   20 1   
    15   10   21 1   
    16   11   12 3   
    17   11   22 1   
    18   12   28 1   
    19   13   18 1   
    20   13   19 1   
    21   14   20 1   
    22   14   29 1   
    23   14   30 1   
    24   14   31 1   
    25   15   22 1   
    26   15   32 1   
    27   15   33 1   
    28   15   34 1   
    29   16   17 2   
    30   21   35 1   
@<TRIPOS>SUBSTRUCTURE
     1 MOB         1 TEMP              0 ****  ****    0 ROOT
