@<TRIPOS>MOLECULE
MOB
   35    36     1     0     0
SMALL
bcc


@<TRIPOS>ATOM
      1 C1          1.1410    0.2440   -2.5810 ca        1 MOB      0.119400
      2 C2          0.0710   -0.0300   -3.4610 ca        1 MOB     -0.095600
      3 C3          0.3530   -0.1640   -4.8250 ca        1 MOB     -0.105000
      4 C4          1.6530   -0.0500   -5.3110 ca        1 MOB     -0.157000
      5 C5          2.7040    0.2040   -4.4320 ca        1 MOB     -0.152000
      6 C6          2.4560    0.3470   -3.0700 ca        1 MOB     -0.150000
      7 C1'         0.5960   -0.0680    0.9910 ca        1 MOB      0.145400
      8 C2'         1.4740    0.0150    2.0830 ca        1 MOB     -0.179000
      9 C3'         0.9580    0.0790    3.3810 ca        1 MOB      0.082100
     10 C4'        -0.4330    0.0590    3.6040 ca        1 MOB      0.066100
     11 C5'        -1.2980   -0.0100    2.4910 ca        1 MOB      0.082100
     12 C6'        -0.7980   -0.0680    1.1920 ca        1 MOB     -0.179000
     13 C          -1.3800   -0.1820   -3.0110 c         1 MOB      0.917200
     14 CHX         3.0990   -0.2040    4.3620 c3        1 MOB      0.116700
     15 CHZ        -3.5370   -0.1060    1.6910 c3        1 MOB      0.116700
     16 N1          0.8330    0.5270   -1.2030 ne        1 MOB     -0.150400
     17 N1'         1.1110   -0.2950   -0.3390 nf        1 MOB     -0.189400
     18 O          -1.6280   -0.6510   -1.8640 o         1 MOB     -0.830300
     19 OXT        -2.2720    0.1550   -3.8380 o         1 MOB     -0.830300
     20 O3'         1.7450    0.2030    4.5160 os        1 MOB     -0.340400
     21 O4'        -0.8840    0.1110    4.9050 oh        1 MOB     -0.490100
     22 O5'        -2.6490   -0.0130    2.8050 os        1 MOB     -0.340400
     23 H3         -0.4940   -0.3500   -5.5060 ha        1 MOB      0.154000
     24 H4          1.8510   -0.1600   -6.3860 ha        1 MOB      0.109000
     25 H5          3.7320    0.2900   -4.8100 ha        1 MOB      0.108000
     26 H6          3.2910    0.5430   -2.3820 ha        1 MOB      0.117000
     27 H2'         2.5610    0.0280    1.9210 ha        1 MOB      0.180500
     28 H6'        -1.4690   -0.1360    0.3080 ha        1 MOB      0.180500
     29 H31         3.4860   -0.2350    5.4110 h1        1 MOB      0.044867
     30 H32         3.1690   -1.2110    3.8850 h1        1 MOB      0.044867
     31 H33         3.6640    0.5500    3.7610 h1        1 MOB      0.044867
     32 H51        -4.5480   -0.1170    2.1690 h1        1 MOB      0.044867
     33 H52        -3.4200    0.7830    1.0240 h1        1 MOB      0.044867
     34 H53        -3.3530   -1.0470    1.1170 h1        1 MOB      0.044867
     35 HO4'       -1.8520    0.1460    4.8700 ho        1 MOB      0.424000
@<TRIPOS>BOND
     1    1    2 ar  
     2    1    6 ar  
     3    1   16 1   
     4    2    3 ar  
     5    2   13 1   
     6    3    4 ar  
     7    3   23 1   
     8    4    5 ar  
     9    4   24 1   
    10    5    6 ar  
    11    5   25 1   
    12    6   26 1   
    13    7    8 ar  
    14    7   12 ar  
    15    7   17 1   
    16    8    9 ar  
    17    8   27 1   
    18    9   10 ar  
    19    9   20 1   
    20   10   11 ar  
    21   10   21 1   
    22   11   12 ar  
    23   11   22 1   
    24   12   28 1   
    25   13   18 1   
    26   13   19 1   
    27   14   20 1   
    28   14   29 1   
    29   14   30 1   
    30   14   31 1   
    31   15   22 1   
    32   15   32 1   
    33   15   33 1   
    34   15   34 1   
    35   16   17 2   
    36   21   35 1   
@<TRIPOS>SUBSTRUCTURE
     1 MOB         1 TEMP              0 ****  ****    0 ROOT
