@<TRIPOS>MOLECULE
MOB
   35    36     1     0     0
SMALL
bcc


@<TRIPOS>ATOM
      1 C1         -0.1460    0.2220    0.3740 ca        1 MOB      0.119400
      2 C2          1.2070   -0.0500    0.0770 ca        1 MOB     -0.095600
      3 C3          2.1050   -0.1840    1.1420 ca        1 MOB     -0.105000
      4 C4          1.6840   -0.0720    2.4640 ca        1 MOB     -0.157000
      5 C5          0.3420    0.1810    2.7470 ca        1 MOB     -0.152000
      6 C6         -0.5750    0.3230    1.7100 ca        1 MOB     -0.150000
      7 C1'        -2.6170   -0.0920   -2.2630 ca        1 MOB      0.145400
      8 C2'        -4.0180   -0.0110   -2.2470 ca        1 MOB     -0.179000
      9 C3'        -4.7190    0.0530   -3.4560 ca        1 MOB      0.082100
     10 C4'        -4.0340    0.0350   -4.6870 ca        1 MOB      0.066100
     11 C5'        -2.6240   -0.0330   -4.6780 ca        1 MOB      0.082100
     12 C6'        -1.9120   -0.0900   -3.4820 ca        1 MOB     -0.179000
     13 C           1.7510   -0.2000   -1.3420 c         1 MOB      0.918200
     14 CHX        -6.8130   -0.2310   -2.3790 c3        1 MOB      0.116700
     15 CHZ        -0.6120   -0.1260   -5.9430 c3        1 MOB      0.116700
     16 N1         -1.0390    0.5040   -0.7200 ne        1 MOB     -0.150400
     17 N1'        -1.8890   -0.3190   -1.0360 nf        1 MOB     -0.189400
     18 O           1.0040   -0.6700   -2.2460 o         1 MOB     -0.830300
     19 OXT         2.9520    0.1390   -1.5310 o         1 MOB     -0.830300
     20 O3'        -6.0980    0.1760   -3.5380 os        1 MOB     -0.340400
     21 O4'        -4.7780    0.0860   -5.8450 oh        1 MOB     -0.490100
     22 O5'        -2.0360   -0.0350   -5.9340 os        1 MOB     -0.340400
     23 H3          3.1640   -0.3680    0.8970 ha        1 MOB      0.154000
     24 H4          2.4070   -0.1810    3.2840 ha        1 MOB      0.109000
     25 H5          0.0040    0.2650    3.7890 ha        1 MOB      0.108000
     26 H6         -1.6320    0.5180    1.9410 ha        1 MOB      0.117000
     27 H2'        -4.5620    0.0010   -1.2930 ha        1 MOB      0.180500
     28 H6'        -0.8030   -0.1570   -3.4630 ha        1 MOB      0.180500
     29 H31        -7.8780   -0.2630   -2.7230 h1        1 MOB      0.044867
     30 H32        -6.4810   -1.2380   -2.0280 h1        1 MOB      0.044867
     31 H33        -6.6910    0.5230   -1.5630 h1        1 MOB      0.044867
     32 H51        -0.1610    0.7630   -5.4390 h1        1 MOB      0.044867
     33 H52        -0.3620   -0.1370   -7.0340 h1        1 MOB      0.044867
     34 H53        -0.2730   -1.0670   -5.4450 h1        1 MOB      0.044867
     35 HO4'       -4.1530    0.1220   -6.5850 ho        1 MOB      0.424000
@<TRIPOS>BOND
     1    1    2 ar  
     2    1    6 ar  
     3    1   16 1   
     4    2    3 ar  
     5    2   13 1   
     6    3    4 ar  
     7    3   23 1   
     8    4    5 ar  
     9    4   24 1   
    10    5    6 ar  
    11    5   25 1   
    12    6   26 1   
    13    7    8 ar  
    14    7   12 ar  
    15    7   17 1   
    16    8    9 ar  
    17    8   27 1   
    18    9   10 ar  
    19    9   20 1   
    20   10   11 ar  
    21   10   21 1   
    22   11   12 ar  
    23   11   22 1   
    24   12   28 1   
    25   13   18 1   
    26   13   19 1   
    27   14   20 1   
    28   14   29 1   
    29   14   30 1   
    30   14   31 1   
    31   15   22 1   
    32   15   32 1   
    33   15   33 1   
    34   15   34 1   
    35   16   17 2   
    36   21   35 1   
@<TRIPOS>SUBSTRUCTURE
     1 MOB         1 TEMP              0 ****  ****    0 ROOT
