@<TRIPOS>MOLECULE
MOB
   35    36     1     0     0
SMALL
bcc


@<TRIPOS>ATOM
      1 C1         -0.1520   -0.2560    0.3840 ca        1 MOB      0.119400
      2 C2          1.2050   -0.0060    0.0800 ca        1 MOB     -0.095600
      3 C3          2.1030    0.1510    1.1410 ca        1 MOB     -0.105000
      4 C4          1.6790    0.0850    2.4650 ca        1 MOB     -0.157000
      5 C5          0.3350   -0.1450    2.7550 ca        1 MOB     -0.152000
      6 C6         -0.5830   -0.3100    1.7210 ca        1 MOB     -0.150000
      7 C1'        -2.6160   -0.0010   -2.2660 ca        1 MOB      0.145400
      8 C2'        -4.0180   -0.0680   -2.2490 ca        1 MOB     -0.179000
      9 C3'        -4.7180   -0.1630   -3.4560 ca        1 MOB      0.082100
     10 C4'        -4.0320   -0.1910   -4.6870 ca        1 MOB      0.066100
     11 C5'        -2.6220   -0.1370   -4.6780 ca        1 MOB      0.082100
     12 C6'        -1.9110   -0.0490   -3.4840 ca        1 MOB     -0.179000
     13 C           1.7510    0.0930   -1.3430 c         1 MOB      0.917200
     14 CHX        -6.8110    0.1760   -2.3920 c3        1 MOB      0.116700
     15 CHZ        -0.6070   -0.1040   -5.9430 c3        1 MOB      0.116700
     16 N1         -1.0470   -0.5640   -0.7030 ne        1 MOB     -0.150400
     17 N1'        -1.8870    0.2580   -1.0460 nf        1 MOB     -0.189400
     18 O           1.0090    0.5420   -2.2620 o         1 MOB     -0.830300
     19 OXT         2.9490   -0.2630   -1.5200 o         1 MOB     -0.830300
     20 O3'        -6.0990   -0.2750   -3.5370 os        1 MOB     -0.340400
     21 O4'        -4.7750   -0.2710   -5.8440 oh        1 MOB     -0.490100
     22 O5'        -2.0330   -0.1810   -5.9330 os        1 MOB     -0.340400
     23 H3          3.1640    0.3180    0.8920 ha        1 MOB      0.154000
     24 H4          2.4020    0.2130    3.2830 ha        1 MOB      0.109000
     25 H5         -0.0060   -0.1930    3.7980 ha        1 MOB      0.108000
     26 H6         -1.6420   -0.4880    1.9570 ha        1 MOB      0.117000
     27 H2'        -4.5630   -0.0440   -1.2960 ha        1 MOB      0.180500
     28 H6'        -0.8010    0.0070   -3.4650 ha        1 MOB      0.180500
     29 H31        -6.4690    1.1900   -2.0720 h1        1 MOB      0.044867
     30 H32        -6.6970   -0.5530   -1.5520 h1        1 MOB      0.044867
     31 H33        -7.8750    0.2070   -2.7380 h1        1 MOB      0.044867
     32 H51        -0.2600    0.8490   -5.4740 h1        1 MOB      0.044867
     33 H52        -0.1660   -0.9820   -5.4100 h1        1 MOB      0.044867
     34 H53        -0.3570   -0.1310   -7.0330 h1        1 MOB      0.044867
     35 HO4'       -4.1500   -0.3370   -6.5810 ho        1 MOB      0.424000
@<TRIPOS>BOND
     1    1    2 ar  
     2    1    6 ar  
     3    1   16 1   
     4    2    3 ar  
     5    2   13 1   
     6    3    4 ar  
     7    3   23 1   
     8    4    5 ar  
     9    4   24 1   
    10    5    6 ar  
    11    5   25 1   
    12    6   26 1   
    13    7    8 ar  
    14    7   12 ar  
    15    7   17 1   
    16    8    9 ar  
    17    8   27 1   
    18    9   10 ar  
    19    9   20 1   
    20   10   11 ar  
    21   10   21 1   
    22   11   12 ar  
    23   11   22 1   
    24   12   28 1   
    25   13   18 1   
    26   13   19 1   
    27   14   20 1   
    28   14   29 1   
    29   14   30 1   
    30   14   31 1   
    31   15   22 1   
    32   15   32 1   
    33   15   33 1   
    34   15   34 1   
    35   16   17 2   
    36   21   35 1   
@<TRIPOS>SUBSTRUCTURE
     1 MOB         1 TEMP              0 ****  ****    0 ROOT
