@<TRIPOS>MOLECULE
MOB
   35    36     1     0     0
SMALL
bcc


@<TRIPOS>ATOM
      1 C1         -0.1430    0.2200    0.3720 ca        1 MOB      0.119400
      2 C2          1.2070   -0.0710    0.0760 ca        1 MOB     -0.095600
      3 C3          2.1030   -0.2070    1.1420 ca        1 MOB     -0.105000
      4 C4          1.6840   -0.0800    2.4630 ca        1 MOB     -0.157000
      5 C5          0.3460    0.1910    2.7450 ca        1 MOB     -0.152000
      6 C6         -0.5700    0.3370    1.7070 ca        1 MOB     -0.150000
      7 C1'        -2.6180   -0.0840   -2.2630 ca        1 MOB      0.145400
      8 C2'        -4.0180    0.0150   -2.2470 ca        1 MOB     -0.179000
      9 C3'        -4.7180    0.0780   -3.4560 ca        1 MOB      0.082100
     10 C4'        -4.0340    0.0420   -4.6880 ca        1 MOB      0.066100
     11 C5'        -2.6250   -0.0420   -4.6790 ca        1 MOB      0.082100
     12 C6'        -1.9140   -0.0990   -3.4820 ca        1 MOB     -0.179000
     13 C           1.7480   -0.2390   -1.3410 c         1 MOB      0.917200
     14 CHX        -6.8150   -0.1740   -2.3770 c3        1 MOB      0.116700
     15 CHZ        -0.6140   -0.1690   -5.9430 c3        1 MOB      0.116700
     16 N1         -1.0330    0.5050   -0.7250 ne        1 MOB     -0.150400
     17 N1'        -1.8920   -0.3100   -1.0340 nf        1 MOB     -0.189400
     18 O           0.9950   -0.7060   -2.2420 o         1 MOB     -0.830300
     19 OXT         2.9540    0.0840   -1.5340 o         1 MOB     -0.830300
     20 O3'        -6.0960    0.2170   -3.5390 os        1 MOB     -0.340400
     21 O4'        -4.7770    0.0940   -5.8460 oh        1 MOB     -0.490100
     22 O5'        -2.0380   -0.0610   -5.9350 os        1 MOB     -0.340400
     23 H3          3.1600   -0.4070    0.8980 ha        1 MOB      0.154000
     24 H4          2.4060   -0.1920    3.2840 ha        1 MOB      0.109000
     25 H5          0.0090    0.2880    3.7860 ha        1 MOB      0.108000
     26 H6         -1.6240    0.5460    1.9360 ha        1 MOB      0.117000
     27 H2'        -4.5610    0.0410   -1.2930 ha        1 MOB      0.180500
     28 H6'        -0.8050   -0.1790   -3.4630 ha        1 MOB      0.180500
     29 H31        -6.6840    0.5840   -1.5670 h1        1 MOB      0.044867
     30 H32        -6.4950   -1.1830   -2.0200 h1        1 MOB      0.044867
     31 H33        -7.8800   -0.1960   -2.7210 h1        1 MOB      0.044867
     32 H51        -0.1520    0.7190   -5.4460 h1        1 MOB      0.044867
     33 H52        -0.2870   -1.1100   -5.4380 h1        1 MOB      0.044867
     34 H53        -0.3650   -0.1910   -7.0340 h1        1 MOB      0.044867
     35 HO4'       -4.1520    0.1170   -6.5860 ho        1 MOB      0.424000
@<TRIPOS>BOND
     1    1    2 ar  
     2    1    6 ar  
     3    1   16 1   
     4    2    3 ar  
     5    2   13 1   
     6    3    4 ar  
     7    3   23 1   
     8    4    5 ar  
     9    4   24 1   
    10    5    6 ar  
    11    5   25 1   
    12    6   26 1   
    13    7    8 ar  
    14    7   12 ar  
    15    7   17 1   
    16    8    9 ar  
    17    8   27 1   
    18    9   10 ar  
    19    9   20 1   
    20   10   11 ar  
    21   10   21 1   
    22   11   12 ar  
    23   11   22 1   
    24   12   28 1   
    25   13   18 1   
    26   13   19 1   
    27   14   20 1   
    28   14   29 1   
    29   14   30 1   
    30   14   31 1   
    31   15   22 1   
    32   15   32 1   
    33   15   33 1   
    34   15   34 1   
    35   16   17 2   
    36   21   35 1   
@<TRIPOS>SUBSTRUCTURE
     1 MOB         1 TEMP              0 ****  ****    0 ROOT
