@<TRIPOS>MOLECULE
MOC
   41    43     1     0     0
SMALL
bcc


@<TRIPOS>ATOM
      1 C1          0.1000   -0.0760   -0.0870 c3        1 MOC     -0.037100
      2 C2          1.6540    0.0460    0.0340 c3        1 MOC      0.094500
      3 N2          2.1850    1.3530   -0.4540 nz        1 MOC     -0.838600
      4 C3          2.0110   -0.2230    1.5440 c3        1 MOC      0.015300
      5 N4          0.7500   -0.5690    2.1570 na        1 MOC     -0.022100
      6 C4A         0.3350   -1.1040    3.3580 cc        1 MOC     -0.091900
      7 C5          1.1310   -1.3600    4.5630 c         1 MOC      0.579900
      8 O5          2.3110   -1.0360    4.6700 o         1 MOC     -0.407100
      9 C6          0.3850   -2.0650    5.6570 cc        1 MOC      0.013600
     10 CM6         1.1810   -2.4340    6.8460 c3        1 MOC     -0.139900
     11 C7         -0.9440   -2.3410    5.5370 cd        1 MOC     -0.154200
     12 N7         -1.6510   -3.0480    6.6070 nz        1 MOC     -0.708400
     13 C8         -1.7870   -1.9680    4.3500 c         1 MOC      0.629900
     14 O8         -3.0080   -2.1640    4.3580 o         1 MOC     -0.512100
     15 C8A        -1.0500   -1.3870    3.2470 cd        1 MOC     -0.177600
     16 C9         -1.4770   -1.0410    1.9130 cd        1 MOC     -0.071300
     17 C9A        -0.3360   -0.5430    1.2580 cc        1 MOC     -0.079600
     18 C10        -2.7960   -1.3290    1.3270 c3        1 MOC      0.216700
     19 O10        -3.6720   -0.1670    1.5580 os        1 MOC     -0.407900
     20 C11        -4.9950   -0.4500    1.4740 c         1 MOC      0.611100
     21 O11        -5.4800   -1.5500    1.2750 o         1 MOC     -0.370000
     22 N12        -5.8430    0.7640    1.6550 nz        1 MOC     -0.711400
     23 H11        -0.1600   -0.8320   -0.8780 hc        1 MOC      0.115200
     24 H12        -0.3960    0.8930   -0.3540 hc        1 MOC      0.115200
     25 H2          2.1420   -0.7560   -0.6010 hx        1 MOC      0.151700
     26 HN21        1.9440    1.4760   -1.4480 hn        1 MOC      0.479467
     27 HN22        3.2110    1.3710   -0.3610 hn        1 MOC      0.479467
     28 H31         2.7370   -1.0840    1.6210 h1        1 MOC      0.124700
     29 H32         2.4610    0.6680    2.0670 h1        1 MOC      0.124700
     30 HM61        0.7680   -1.9540    7.7730 hc        1 MOC      0.112033
     31 HM62        2.2500   -2.0990    6.7470 hc        1 MOC      0.112033
     32 HM63        1.1930   -3.5470    6.9900 hc        1 MOC      0.112033
     33 HN71       -1.5350   -2.5500    7.5010 hn        1 MOC      0.484467
     34 HN72       -2.6580   -3.1050    6.3770 hn        1 MOC      0.484467
     35 H101       -2.7480   -1.4610    0.2130 h1        1 MOC      0.109700
     36 H102       -3.2610   -2.2300    1.8190 h1        1 MOC      0.109700
     37 H121       -5.7130    1.4030    0.8580 hn        1 MOC      0.497133
     38 H122       -6.8340    0.4710    1.6990 hn        1 MOC      0.497133
     39 H23         1.7920    2.1360    0.0810 hn        1 MOC      0.479467
     40 H73        -1.2740   -4.0020    6.7070 hn        1 MOC      0.484467
     41 H123       -5.5870    1.2540    2.5220 hn        1 MOC      0.497133
@<TRIPOS>BOND
     1    1    2 1   
     2    1   17 1   
     3    1   23 1   
     4    1   24 1   
     5    2    3 1   
     6    2    4 1   
     7    2   25 1   
     8    3   26 1   
     9    3   27 1   
    10    3   39 1   
    11    4    5 1   
    12    4   28 1   
    13    4   29 1   
    14    5    6 1   
    15    5   17 1   
    16    6    7 1   
    17    6   15 2   
    18    7    8 2   
    19    7    9 1   
    20    9   10 1   
    21    9   11 2   
    22   10   30 1   
    23   10   31 1   
    24   10   32 1   
    25   11   12 1   
    26   11   13 1   
    27   12   33 1   
    28   12   34 1   
    29   12   40 1   
    30   13   14 2   
    31   13   15 1   
    32   15   16 1   
    33   16   17 2   
    34   16   18 1   
    35   18   19 1   
    36   18   35 1   
    37   18   36 1   
    38   19   20 1   
    39   20   21 2   
    40   20   22 1   
    41   22   37 1   
    42   22   38 1   
    43   22   41 1   
@<TRIPOS>SUBSTRUCTURE
     1 MOC         1 TEMP              0 ****  ****    0 ROOT
