@<TRIPOS>MOLECULE
MOC
   41    43     1     0     0
SMALL
bcc


@<TRIPOS>ATOM
      1 C1          0.0880   -0.0960   -0.0970 c3        1 MOC     -0.037100
      2 C2          1.6430    0.0290    0.0170 c3        1 MOC      0.094500
      3 N2          2.1700    1.3330   -0.4820 n4        1 MOC     -0.838600
      4 C3          2.0050   -0.2280    1.5290 c3        1 MOC      0.015300
      5 N4          0.7470   -0.5710    2.1480 na        1 MOC     -0.022100
      6 C4A         0.3370   -1.0980    3.3550 cc        1 MOC     -0.091900
      7 C5          1.1380   -1.3430    4.5590 c         1 MOC      0.579900
      8 O5          2.3190   -1.0170    4.6590 o         1 MOC     -0.407100
      9 C6          0.3970   -2.0410    5.6610 cc        1 MOC      0.013600
     10 CM6         1.1980   -2.4000    6.8490 c3        1 MOC     -0.139900
     11 C7         -0.9310   -2.3200    5.5480 cd        1 MOC     -0.154200
     12 N7         -1.6330   -3.0190    6.6270 n4        1 MOC     -0.708400
     13 C8         -1.7790   -1.9570    4.3610 c         1 MOC      0.628900
     14 O8         -3.0000   -2.1540    4.3750 o         1 MOC     -0.512100
     15 C8A        -1.0480   -1.3840    3.2510 cd        1 MOC     -0.177600
     16 C9         -1.4800   -1.0480    1.9160 cd        1 MOC     -0.071300
     17 C9A        -0.3420   -0.5530    1.2540 cc        1 MOC     -0.079600
     18 C10        -2.8010   -1.3420    1.3380 c3        1 MOC      0.216700
     19 O10        -3.6780   -0.1800    1.5630 os        1 MOC     -0.407900
     20 C11        -5.0000   -0.4650    1.4870 c         1 MOC      0.611100
     21 O11        -5.4850   -1.5680    1.2990 o         1 MOC     -0.370000
     22 N12        -5.8490    0.7490    1.6600 n4        1 MOC     -0.711400
     23 H11        -0.4100    0.8710   -0.3690 hc        1 MOC      0.115200
     24 H12        -0.1730   -0.8580   -0.8800 hc        1 MOC      0.115200
     25 H2          2.1290   -0.7780   -0.6130 hx        1 MOC      0.151700
     26 HN21        3.1960    1.3530   -0.3930 hn        1 MOC      0.479467
     27 HN22        1.7770    2.1190    0.0480 hn        1 MOC      0.479467
     28 H31         2.7340   -1.0870    1.6090 h1        1 MOC      0.124700
     29 H32         2.4560    0.6680    2.0420 h1        1 MOC      0.124700
     30 HM61        2.2670   -2.0640    6.7450 hc        1 MOC      0.112033
     31 HM62        1.2120   -3.5120    7.0030 hc        1 MOC      0.112033
     32 HM63        0.7880   -1.9140    7.7740 hc        1 MOC      0.112033
     33 HN71       -1.5150   -2.5140    7.5160 hn        1 MOC      0.484467
     34 HN72       -2.6420   -3.0790    6.4000 hn        1 MOC      0.484467
     35 H101       -3.2620   -2.2400    1.8380 h1        1 MOC      0.109700
     36 H102       -2.7560   -1.4830    0.2240 h1        1 MOC      0.109700
     37 H121       -5.5900    1.2460    2.5220 hn        1 MOC      0.497133
     38 H122       -6.8400    0.4540    1.7110 hn        1 MOC      0.497133
     39 H23         1.9240    1.4480   -1.4760 hn        1 MOC      0.479467
     40 H73        -1.2550   -3.9720    6.7320 hn        1 MOC      0.484467
     41 H123       -5.7240    1.3810    0.8580 hn        1 MOC      0.497133
@<TRIPOS>BOND
     1    1    2 1   
     2    1   17 1   
     3    1   23 1   
     4    1   24 1   
     5    2    3 1   
     6    2    4 1   
     7    2   25 1   
     8    3   26 1   
     9    3   27 1   
    10    3   39 1   
    11    4    5 1   
    12    4   28 1   
    13    4   29 1   
    14    5    6 1   
    15    5   17 1   
    16    6    7 1   
    17    6   15 2   
    18    7    8 2   
    19    7    9 1   
    20    9   10 1   
    21    9   11 2   
    22   10   30 1   
    23   10   31 1   
    24   10   32 1   
    25   11   12 1   
    26   11   13 1   
    27   12   33 1   
    28   12   34 1   
    29   12   40 1   
    30   13   14 2   
    31   13   15 1   
    32   15   16 1   
    33   16   17 2   
    34   16   18 1   
    35   18   19 1   
    36   18   35 1   
    37   18   36 1   
    38   19   20 1   
    39   20   21 2   
    40   20   22 1   
    41   22   37 1   
    42   22   38 1   
    43   22   41 1   
@<TRIPOS>SUBSTRUCTURE
     1 MOC         1 TEMP              0 ****  ****    0 ROOT
