@<TRIPOS>MOLECULE
MOC
   41    43     1     0     0
SMALL
bcc


@<TRIPOS>ATOM
      1 C1          0.0860   -0.0810   -0.0930 c3        1 MOC     -0.037100
      2 C2          1.6410    0.0390    0.0190 c3        1 MOC      0.094500
      3 N2          2.1710    1.3440   -0.4730 n4        1 MOC     -0.838600
      4 C3          2.0050   -0.2280    1.5290 c3        1 MOC      0.015300
      5 N4          0.7470   -0.5720    2.1480 na        1 MOC     -0.022100
      6 C4A         0.3380   -1.1050    3.3520 cc        1 MOC     -0.091900
      7 C5          1.1400   -1.3600    4.5540 c         1 MOC      0.579900
      8 O5          2.3210   -1.0380    4.6530 o         1 MOC     -0.407100
      9 C6          0.3990   -2.0620    5.6530 cc        1 MOC      0.013600
     10 CM6         1.2010   -2.4310    6.8370 c3        1 MOC     -0.139900
     11 C7         -0.9300   -2.3370    5.5400 cd        1 MOC     -0.154200
     12 N7         -1.6330   -3.0420    6.6150 n4        1 MOC     -0.708400
     13 C8         -1.7800   -1.9650    4.3570 c         1 MOC      0.629900
     14 O8         -3.0010   -2.1590    4.3720 o         1 MOC     -0.512100
     15 C8A        -1.0480   -1.3860    3.2490 cd        1 MOC     -0.177600
     16 C9         -1.4820   -1.0410    1.9170 cd        1 MOC     -0.071300
     17 C9A        -0.3430   -0.5460    1.2560 cc        1 MOC     -0.079600
     18 C10        -2.8040   -1.3280    1.3390 c3        1 MOC      0.216700
     19 O10        -3.6780   -0.1650    1.5740 os        1 MOC     -0.407900
     20 C11        -5.0010   -0.4460    1.4920 c         1 MOC      0.611100
     21 O11        -5.4880   -1.5450    1.2910 o         1 MOC     -0.370000
     22 N12        -5.8470    0.7690    1.6790 n4        1 MOC     -0.711400
     23 H11        -0.4110    0.8880   -0.3580 hc        1 MOC      0.115200
     24 H12        -0.1790   -0.8380   -0.8810 hc        1 MOC      0.115200
     25 H2          2.1240   -0.7650   -0.6170 hx        1 MOC      0.151700
     26 HN21        3.1970    1.3610   -0.3860 hn        1 MOC      0.479467
     27 HN22        1.7820    2.1290    0.0630 hn        1 MOC      0.479467
     28 H31         2.7310   -1.0900    1.6030 h1        1 MOC      0.124700
     29 H32         2.4590    0.6630    2.0470 h1        1 MOC      0.124700
     30 HM61        0.7940   -1.9490    7.7660 hc        1 MOC      0.112033
     31 HM62        1.2120   -3.5440    6.9840 hc        1 MOC      0.112033
     32 HM63        2.2700   -2.0980    6.7330 hc        1 MOC      0.112033
     33 HN71       -1.2570   -3.9950    6.7140 hn        1 MOC      0.484467
     34 HN72       -2.6420   -3.0970    6.3900 hn        1 MOC      0.484467
     35 H101       -2.7620   -1.4620    0.2240 h1        1 MOC      0.109700
     36 H102       -3.2680   -2.2280    1.8340 h1        1 MOC      0.109700
     37 H121       -6.8390    0.4760    1.7200 hn        1 MOC      0.496800
     38 H122       -5.7150    1.4120    0.8870 hn        1 MOC      0.496800
     39 H23         1.9240    1.4660   -1.4650 hn        1 MOC      0.479467
     40 H73        -1.5120   -2.5420    7.5070 hn        1 MOC      0.484467
     41 H123       -5.5910    1.2520    2.5490 hn        1 MOC      0.496800
@<TRIPOS>BOND
     1    1    2 1   
     2    1   17 1   
     3    1   23 1   
     4    1   24 1   
     5    2    3 1   
     6    2    4 1   
     7    2   25 1   
     8    3   26 1   
     9    3   27 1   
    10    3   39 1   
    11    4    5 1   
    12    4   28 1   
    13    4   29 1   
    14    5    6 1   
    15    5   17 1   
    16    6    7 1   
    17    6   15 2   
    18    7    8 2   
    19    7    9 1   
    20    9   10 1   
    21    9   11 2   
    22   10   30 1   
    23   10   31 1   
    24   10   32 1   
    25   11   12 1   
    26   11   13 1   
    27   12   33 1   
    28   12   34 1   
    29   12   40 1   
    30   13   14 2   
    31   13   15 1   
    32   15   16 1   
    33   16   17 2   
    34   16   18 1   
    35   18   19 1   
    36   18   35 1   
    37   18   36 1   
    38   19   20 1   
    39   20   21 2   
    40   20   22 1   
    41   22   37 1   
    42   22   38 1   
    43   22   41 1   
@<TRIPOS>SUBSTRUCTURE
     1 MOC         1 TEMP              0 ****  ****    0 ROOT
