@<TRIPOS>MOLECULE
MOC
   38    40     1     0     0
SMALL
bcc


@<TRIPOS>ATOM
      1 C1         -2.4720    0.3310   -1.5770 c3        1 MOC     -0.016100
      2 C2         -3.6740    0.1790   -0.5860 c3        1 MOC      0.164500
      3 N2         -4.5510   -0.9170   -0.9200 n3        1 MOC     -0.918800
      4 C3         -3.0400   -0.0100    0.8490 c3        1 MOC      0.032300
      5 N4         -1.6190    0.1310    0.6450 na        1 MOC     -0.009100
      6 C4A        -0.4810    0.1150    1.4130 cc        1 MOC     -0.114900
      7 C5         -0.3570   -0.0500    2.8690 c         1 MOC      0.624900
      8 O5         -1.3560   -0.1530    3.5960 o         1 MOC     -0.550100
      9 C6          1.0210   -0.0850    3.3620 cc        1 MOC     -0.298400
     10 CM6         1.1850   -0.3100    4.8190 c3        1 MOC     -0.042900
     11 C7          2.1150    0.0620    2.5390 cd        1 MOC      0.130800
     12 N7          3.4020   -0.0730    3.0010 nh        1 MOC     -0.838600
     13 C8          1.9790    0.3430    1.0520 c         1 MOC      0.605900
     14 O8          2.9780    0.6000    0.3650 o         1 MOC     -0.536100
     15 C8A         0.6290    0.3030    0.5440 cd        1 MOC     -0.212600
     16 C9          0.1260    0.4390   -0.7980 cd        1 MOC     -0.077300
     17 C9A        -1.2700    0.3250   -0.7060 cc        1 MOC     -0.095600
     18 C10         0.9320    0.6850   -2.0060 c3        1 MOC      0.212700
     19 O10         0.6740   -0.4040   -2.9220 os        1 MOC     -0.444900
     20 C11         1.0610   -0.1760   -4.2250 c         1 MOC      0.728100
     21 O11         1.5710    0.9150   -4.5330 o         1 MOC     -0.589000
     22 N12         0.7670   -1.2240   -5.0660 n         1 MOC     -0.634000
     23 H11        -2.5570    1.2940   -2.1390 hc        1 MOC      0.077700
     24 H12        -2.4170   -0.5080   -2.3160 hc        1 MOC      0.077700
     25 H2         -4.2240    1.1680   -0.5660 h1        1 MOC      0.026700
     26 HN21       -5.3950   -0.8720   -0.3860 hn        1 MOC      0.363300
     27 HN22       -4.7610   -0.9240   -1.8970 hn        1 MOC      0.363300
     28 H31        -3.4080    0.7860    1.5510 h1        1 MOC      0.083700
     29 H32        -3.2650   -1.0180    1.2910 h1        1 MOC      0.083700
     30 HM61        1.7280   -1.2690    5.0120 hc        1 MOC      0.044700
     31 HM62        1.7640    0.5250    5.2880 hc        1 MOC      0.044700
     32 HM63        0.1890   -0.3670    5.3260 hc        1 MOC      0.044700
     33 HN71        4.1420    0.2050    2.4000 hn        1 MOC      0.434300
     34 HN72        3.5650   -0.0640    3.9770 hn        1 MOC      0.434300
     35 H101        0.6470    1.6570   -2.4940 h1        1 MOC      0.080200
     36 H102        2.0320    0.6850   -1.7760 h1        1 MOC      0.080200
     37 H121        1.2080   -1.2200   -5.9530 hn        1 MOC      0.320000
     38 H122        0.5170   -2.0940   -4.6650 hn        1 MOC      0.320000
@<TRIPOS>BOND
     1    1    2 1   
     2    1   17 1   
     3    1   23 1   
     4    1   24 1   
     5    2    3 1   
     6    2    4 1   
     7    2   25 1   
     8    3   26 1   
     9    3   27 1   
    10    4    5 1   
    11    4   28 1   
    12    4   29 1   
    13    5    6 1   
    14    5   17 1   
    15    6    7 1   
    16    6   15 2   
    17    7    8 2   
    18    7    9 1   
    19    9   10 1   
    20    9   11 2   
    21   10   30 1   
    22   10   31 1   
    23   10   32 1   
    24   11   12 1   
    25   11   13 1   
    26   12   33 1   
    27   12   34 1   
    28   13   14 2   
    29   13   15 1   
    30   15   16 1   
    31   16   17 2   
    32   16   18 1   
    33   18   19 1   
    34   18   35 1   
    35   18   36 1   
    36   19   20 1   
    37   20   21 2   
    38   20   22 1   
    39   22   37 1   
    40   22   38 1   
@<TRIPOS>SUBSTRUCTURE
     1 MOC         1 TEMP              0 ****  ****    0 ROOT
