@<TRIPOS>MOLECULE
MOD
   56    58     1     0     0
SMALL
bcc


@<TRIPOS>ATOM
      1 N2         -4.8590    0.7570    0.7400 n3        1 MOD     -0.909800
      2 CA         -4.2530   -0.5000    0.3430 c3        1 MOD      0.143500
      3 CB         -5.1910   -1.3330   -0.5500 c3        1 MOD     -0.064400
      4 CG         -6.4900   -1.6360    0.1470 c3        1 MOD      0.018700
      5 SD         -7.3610   -2.8470   -0.8220 ss        1 MOD     -0.339200
      6 CE         -8.9210   -2.8910   -0.0250 c3        1 MOD     -0.034000
      7 C9         -2.9020   -0.3820   -0.4120 c3        1 MOD      0.167400
      8 O1         -1.9160    0.1710    0.4020 os        1 MOD     -0.581200
      9 P1         -1.3880    1.6760   -0.0290 p5        1 MOD      1.438800
     10 O1S        -0.2660    1.5290   -0.9850 o         1 MOD     -0.838500
     11 O2S        -2.6130    2.4710   -0.2230 o         1 MOD     -0.838500
     12 O5'        -0.6680    2.0740    1.4000 os        1 MOD     -0.560200
     13 C5'         0.5320    1.4270    1.6860 c3        1 MOD      0.184400
     14 C4'         1.7240    2.4000    1.6500 c3        1 MOD      0.086100
     15 O4'         2.9430    1.6460    1.5720 os        1 MOD     -0.458600
     16 C3'         1.7020    3.3520    0.4430 c3        1 MOD      0.089100
     17 O3'         2.0710    4.6730    0.7800 oh        1 MOD     -0.597800
     18 C2'         2.7000    2.7450   -0.5670 c3        1 MOD      0.085100
     19 O2'         3.6590    3.7030   -0.9820 oh        1 MOD     -0.609800
     20 C1'         3.4810    1.6580    0.2290 c3        1 MOD      0.409300
     21 N9          3.4840    0.3590   -0.3920 nh        1 MOD     -0.745600
     22 C8          2.3060   -0.3120   -0.8410 c2        1 MOD      0.599100
     23 N7          2.3540   -1.6350   -0.8270 ne        1 MOD     -0.615300
     24 C5          3.6250   -1.9820   -0.2920 ce        1 MOD     -0.056600
     25 C6          4.3230   -3.1530   -0.4200 c2        1 MOD      0.222000
     26 N6          3.7190   -4.4000   -0.7260 nh        1 MOD     -0.788600
     27 N1          5.7420   -3.1190   -0.2450 nh        1 MOD     -0.732000
     28 C2          6.3250   -1.8370   -0.1090 c2        1 MOD      0.589100
     29 N3          5.7520   -0.6830    0.0320 n2        1 MOD     -0.606900
     30 C4          4.3120   -0.7010    0.2540 c3        1 MOD      0.388900
     31 HN21       -4.3220    1.1630    1.4840 hn        1 MOD      0.364800
     32 HN22       -4.8430    1.4060   -0.0280 hn        1 MOD      0.364800
     33 HA         -4.0540   -1.0890    1.2870 h1        1 MOD      0.051700
     34 HB1        -4.6670   -2.2920   -0.8070 hc        1 MOD      0.048200
     35 HB2        -5.3880   -0.7840   -1.5070 hc        1 MOD      0.048200
     36 HG1        -7.1100   -0.7130    0.2500 h1        1 MOD      0.065700
     37 HG2        -6.3030   -2.0390    1.1710 h1        1 MOD      0.065700
     38 HE1        -9.4160   -1.8940   -0.0330 h1        1 MOD      0.054033
     39 HE2        -9.5490   -3.6150   -0.5930 h1        1 MOD      0.054033
     40 HE3        -8.8350   -3.2330    1.0300 h1        1 MOD      0.054033
     41 H91        -2.5680   -1.4180   -0.7030 h1        1 MOD      0.022700
     42 H92        -3.0390    0.2390   -1.3410 h1        1 MOD      0.022700
     43 H5'1        0.4620    1.0050    2.7270 h1        1 MOD      0.038700
     44 H5'2        0.7140    0.5880    0.9570 h1        1 MOD      0.038700
     45 H4'         1.7880    2.9740    2.6120 h1        1 MOD      0.070700
     46 H3'         0.6650    3.4240    0.0060 h1        1 MOD      0.132700
     47 H2          2.9570    4.6300    1.1630 ho        1 MOD      0.398000
     48 H1          2.1480    2.3330   -1.4550 h1        1 MOD      0.109700
     49 H2'         3.1590    4.4830   -1.2570 ho        1 MOD      0.415000
     50 H1'         4.5650    1.9620    0.3560 h2        1 MOD      0.100700
     51 H8          1.4340    0.2730   -1.2200 h5        1 MOD      0.139800
     52 HN61        2.7380   -4.2790   -0.8930 hn        1 MOD      0.382300
     53 HN62        4.1560   -4.8470   -1.5080 hn        1 MOD      0.382300
     54 HN1         6.1330   -3.8370    0.3240 hn        1 MOD      0.417800
     55 H3          7.4340   -1.8590   -0.1880 h5        1 MOD      0.034800
     56 H4          4.1680   -0.6270    1.3810 h2        1 MOD      0.076700
@<TRIPOS>BOND
     1    1    2 1   
     2    1   31 1   
     3    1   32 1   
     4    2    3 1   
     5    2    7 1   
     6    2   33 1   
     7    3    4 1   
     8    3   34 1   
     9    3   35 1   
    10    4    5 1   
    11    4   36 1   
    12    4   37 1   
    13    5    6 1   
    14    6   38 1   
    15    6   39 1   
    16    6   40 1   
    17    7    8 1   
    18    7   41 1   
    19    7   42 1   
    20    8    9 1   
    21    9   10 1   
    22    9   11 1   
    23    9   12 1   
    24   12   13 1   
    25   13   14 1   
    26   13   43 1   
    27   13   44 1   
    28   14   15 1   
    29   14   16 1   
    30   14   45 1   
    31   15   20 1   
    32   16   17 1   
    33   16   18 1   
    34   16   46 1   
    35   17   47 1   
    36   18   19 1   
    37   18   20 1   
    38   18   48 1   
    39   19   49 1   
    40   20   21 1   
    41   20   50 1   
    42   21   22 1   
    43   21   30 1   
    44   22   23 2   
    45   22   51 1   
    46   23   24 1   
    47   24   25 2   
    48   24   30 1   
    49   25   26 1   
    50   25   27 1   
    51   26   52 1   
    52   26   53 1   
    53   27   28 1   
    54   27   54 1   
    55   28   29 2   
    56   28   55 1   
    57   29   30 1   
    58   30   56 1   
@<TRIPOS>SUBSTRUCTURE
     1 MOD         1 TEMP              0 ****  ****    0 ROOT
