@<TRIPOS>MOLECULE
MOE
   12    11     1     0     0
SMALL
bcc


@<TRIPOS>ATOM
      1 O2'        -2.3740    0.6720    0.6020 o         1 MOE     -0.904500
      2 CA'        -1.4040    0.4780   -0.2630 c3        1 MOE      0.427100
      3 CB'        -0.0110    0.4000    0.4460 c3        1 MOE      0.042400
      4 OC'         1.0010    0.1890   -0.5430 os        1 MOE     -0.427600
      5 CD'         2.2920    0.1060    0.0130 c3        1 MOE      0.127700
      6 HA'1       -1.2960    1.3020   -1.0480 h1        1 MOE     -0.121300
      7 HA'2       -1.4900   -0.4910   -0.8630 h1        1 MOE     -0.121300
      8 HB'1        0.0070   -0.4470    1.1790 h1        1 MOE     -0.008300
      9 HB'2        0.2020    1.3540    0.9930 h1        1 MOE     -0.008300
     10 HD'1        2.3690   -0.7500    0.7320 h1        1 MOE     -0.001633
     11 HD'2        2.9830   -0.0580   -0.8520 h1        1 MOE     -0.001633
     12 HD'3        2.5650    1.0530    0.5460 h1        1 MOE     -0.001633
@<TRIPOS>BOND
     1    1    2 1   
     2    2    3 1   
     3    2    6 1   
     4    2    7 1   
     5    3    4 1   
     6    3    8 1   
     7    3    9 1   
     8    4    5 1   
     9    5   10 1   
    10    5   11 1   
    11    5   12 1   
@<TRIPOS>SUBSTRUCTURE
     1 MOE         1 TEMP              0 ****  ****    0 ROOT
