@<TRIPOS>MOLECULE
MOE
   12    11     1     0     0
SMALL
bcc


@<TRIPOS>ATOM
      1 O2'         0.8590    1.1080   -0.5000 o         1 MOE     -0.904500
      2 CA'         1.2480   -0.0440   -0.0050 c3        1 MOE      0.427100
      3 CB'         1.6390    0.0830    1.5050 c3        1 MOE      0.042400
      4 OC'         2.0530   -1.1990    1.9860 os        1 MOE     -0.427600
      5 CD'         2.4240   -1.1740    3.3440 c3        1 MOE      0.127700
      6 HA'1        0.4570   -0.8680   -0.0410 h1        1 MOE     -0.121300
      7 HA'2        2.1660   -0.4950   -0.5160 h1        1 MOE     -0.121300
      8 HB'1        2.4810    0.8120    1.6290 h1        1 MOE     -0.008300
      9 HB'2        0.7630    0.4380    2.1060 h1        1 MOE     -0.008300
     10 HD'1        2.7220   -2.2230    3.5950 h1        1 MOE     -0.001633
     11 HD'2        1.5680   -0.8540    3.9920 h1        1 MOE     -0.001633
     12 HD'3        3.2870   -0.4810    3.5140 h1        1 MOE     -0.001633
@<TRIPOS>BOND
     1    1    2 1   
     2    2    3 1   
     3    2    6 1   
     4    2    7 1   
     5    3    4 1   
     6    3    8 1   
     7    3    9 1   
     8    4    5 1   
     9    5   10 1   
    10    5   11 1   
    11    5   12 1   
@<TRIPOS>SUBSTRUCTURE
     1 MOE         1 TEMP              0 ****  ****    0 ROOT
