@<TRIPOS>MOLECULE
MOE
   12    11     1     0     0
SMALL
bcc


@<TRIPOS>ATOM
      1 O2'         0.9330    1.1130   -0.5270 o         1 MOE     -0.904500
      2 CA'         1.3750   -0.0220   -0.0360 c3        1 MOE      0.427100
      3 CB'         1.6170    0.0760    1.5070 c3        1 MOE      0.042400
      4 OC'         2.0950   -1.1860    1.9820 os        1 MOE     -0.427600
      5 CD'         2.3410   -1.1860    3.3680 c3        1 MOE      0.127700
      6 HA'1        0.6630   -0.9070   -0.1720 h1        1 MOE     -0.121300
      7 HA'2        2.3700   -0.3740   -0.4750 h1        1 MOE     -0.121300
      8 HB'1        2.3780    0.8660    1.7320 h1        1 MOE     -0.008300
      9 HB'2        0.6640    0.3310    2.0360 h1        1 MOE     -0.008300
     10 HD'1        2.7050   -2.2150    3.6110 h1        1 MOE     -0.001633
     11 HD'2        1.4060   -0.9650    3.9440 h1        1 MOE     -0.001633
     12 HD'3        3.1210   -0.4300    3.6400 h1        1 MOE     -0.001633
@<TRIPOS>BOND
     1    1    2 1   
     2    2    3 1   
     3    2    6 1   
     4    2    7 1   
     5    3    4 1   
     6    3    8 1   
     7    3    9 1   
     8    4    5 1   
     9    5   10 1   
    10    5   11 1   
    11    5   12 1   
@<TRIPOS>SUBSTRUCTURE
     1 MOE         1 TEMP              0 ****  ****    0 ROOT
