@<TRIPOS>MOLECULE
MOG
   19    20     1     0     0
SMALL
bcc


@<TRIPOS>ATOM
      1 N1         -0.0100   -0.0790   -0.0150 n         1 MOG     -0.497400
      2 C2          1.3790    0.0360    0.0680 cc        1 MOG      0.504800
      3 N3          2.1250    0.1010    1.1790 nd        1 MOG     -0.578700
      4 C4          1.3680    0.0410    2.3280 cd        1 MOG      0.352400
      5 C5         -0.0480   -0.0750    2.4020 cc        1 MOG      0.230500
      6 C6         -0.8270   -0.1430    1.1710 c         1 MOG      0.643000
      7 O6         -2.0390   -0.2430    1.0110 o         1 MOG     -0.489500
      8 N7         -0.4450   -0.1050    3.7350 nc        1 MOG     -0.588000
      9 C8          0.6940   -0.0090    4.4410 cd        1 MOG      0.573700
     10 O9          1.8620    0.0850    3.6270 os        1 MOG     -0.318800
     11 C10         0.9460    0.0160    5.8930 c3        1 MOG     -0.150400
     12 N2          2.1480    0.0960   -1.2170 n4        1 MOG     -0.795600
     13 HN1        -0.4840   -0.1200   -0.8940 hn        1 MOG      0.354500
     14 H101        0.5590   -0.9290    6.3570 hc        1 MOG      0.099700
     15 H102        0.4100    0.8870    6.3520 hc        1 MOG      0.099700
     16 H103        2.0430    0.1070    6.0940 hc        1 MOG      0.099700
     17 HN21        1.8470    0.9150   -1.7600 hn        1 MOG      0.486467
     18 HN22        1.9860   -0.7640   -1.7560 hn        1 MOG      0.486467
     19 H23         3.1580    0.1800   -1.0120 hn        1 MOG      0.486467
@<TRIPOS>BOND
     1    1    2 1   
     2    1    6 1   
     3    1   13 1   
     4    2    3 2   
     5    2   12 1   
     6    3    4 1   
     7    4    5 2   
     8    4   10 1   
     9    5    6 1   
    10    5    8 1   
    11    6    7 2   
    12    8    9 2   
    13    9   10 1   
    14    9   11 1   
    15   11   14 1   
    16   11   15 1   
    17   11   16 1   
    18   12   17 1   
    19   12   18 1   
    20   12   19 1   
@<TRIPOS>SUBSTRUCTURE
     1 MOG         1 TEMP              0 ****  ****    0 ROOT
