@<TRIPOS>MOLECULE
MOG
   18    19     1     0     0
SMALL
bcc


@<TRIPOS>ATOM
      1 N1         -0.0070   -0.1290   -0.0130 ns        1 MOG     -0.509400
      2 C2          1.3870    0.0660    0.0210 cc        1 MOG      0.700800
      3 N3          2.1280    0.1450    1.1690 nd        1 MOG     -0.731700
      4 C4          1.3670    0.0730    2.3040 cd        1 MOG      0.461400
      5 C5         -0.0450   -0.1000    2.3870 cc        1 MOG      0.083500
      6 C6         -0.8100   -0.2070    1.1640 c         1 MOG      0.653000
      7 O6         -2.0300   -0.3580    1.0160 o         1 MOG     -0.589500
      8 N7         -0.4350   -0.1300    3.7320 nc        1 MOG     -0.580000
      9 C8          0.6920    0.0170    4.4230 cd        1 MOG      0.475700
     10 O9          1.8610    0.1490    3.5990 os        1 MOG     -0.358800
     11 C10         0.9620    0.0670    5.8710 c3        1 MOG     -0.123400
     12 N2          2.0510    0.2440   -1.2010 nv        1 MOG     -0.903800
     13 HN1        -0.4890   -0.1490   -0.8860 hn        1 MOG      0.336500
     14 H101        0.6310   -0.8880    6.3520 hc        1 MOG      0.071700
     15 H102        2.0570    0.2080    6.0490 hc        1 MOG      0.071700
     16 H103        0.4010    0.9180    6.3320 hc        1 MOG      0.071700
     17 HN21        1.6620   -0.1970   -2.0010 hn        1 MOG      0.435300
     18 HN22        3.0470    0.2670   -1.1590 hn        1 MOG      0.435300
@<TRIPOS>BOND
     1    1    2 1   
     2    1    6 1   
     3    1   13 1   
     4    2    3 2   
     5    2   12 1   
     6    3    4 1   
     7    4    5 2   
     8    4   10 1   
     9    5    6 1   
    10    5    8 1   
    11    6    7 2   
    12    8    9 2   
    13    9   10 1   
    14    9   11 1   
    15   11   14 1   
    16   11   15 1   
    17   11   16 1   
    18   12   17 1   
    19   12   18 1   
@<TRIPOS>SUBSTRUCTURE
     1 MOG         1 TEMP              0 ****  ****    0 ROOT
