@<TRIPOS>MOLECULE
MOG
   18    19     1     0     0
SMALL
bcc


@<TRIPOS>ATOM
      1 N1         -0.7030   -0.0030   -2.0150 n         1 MOG     -0.509400
      2 C2          0.7050   -0.0270   -2.0110 cc        1 MOG      0.700800
      3 N3          1.4740    0.0010   -0.8790 nd        1 MOG     -0.731700
      4 C4          0.7340   -0.0020    0.2720 cd        1 MOG      0.461400
      5 C5         -0.6860   -0.0000    0.3860 cc        1 MOG      0.083500
      6 C6         -1.4840   -0.0060   -0.8210 c         1 MOG      0.653000
      7 O6         -2.7160   -0.0050   -0.9430 o         1 MOG     -0.589500
      8 N7         -1.0480    0.0020    1.7380 nc        1 MOG     -0.580000
      9 C8          0.1030    0.0040    2.4060 cd        1 MOG      0.475700
     10 O9          1.2620    0.0020    1.5560 os        1 MOG     -0.358800
     11 C10         0.4080    0.0080    3.8480 c3        1 MOG     -0.123400
     12 N2          1.3600   -0.1410   -3.2450 nh        1 MOG     -0.903800
     13 HN1        -1.2020   -0.0540   -2.8770 hn        1 MOG      0.336500
     14 H101        1.5160    0.0130    4.0020 hc        1 MOG      0.072033
     15 H102       -0.0350    0.9170    4.3260 hc        1 MOG      0.072033
     16 H103       -0.0270   -0.9040    4.3290 hc        1 MOG      0.072033
     17 HN21        2.3510   -0.0430   -3.2250 hn        1 MOG      0.435300
     18 HN22        0.9030    0.2370   -4.0420 hn        1 MOG      0.435300
@<TRIPOS>BOND
     1    1    2 1   
     2    1    6 1   
     3    1   13 1   
     4    2    3 2   
     5    2   12 1   
     6    3    4 1   
     7    4    5 2   
     8    4   10 1   
     9    5    6 1   
    10    5    8 1   
    11    6    7 2   
    12    8    9 2   
    13    9   10 1   
    14    9   11 1   
    15   11   14 1   
    16   11   15 1   
    17   11   16 1   
    18   12   17 1   
    19   12   18 1   
@<TRIPOS>SUBSTRUCTURE
     1 MOG         1 TEMP              0 ****  ****    0 ROOT
