@<TRIPOS>MOLECULE
MOG
   18    13     1     0     0
SMALL
bcc


@<TRIPOS>ATOM
      1 N1         -0.7960   -0.0160   -2.2260 n2        1 MOG     -0.349000
      2 C2          0.5700   -0.0160   -2.2260 c1        1 MOG      0.254000
      3 N3          1.2540   -0.0160   -1.0460 n1        1 MOG     -0.225000
      4 C4          0.5750   -0.0160    0.1360 c1        1 MOG     -0.078000
      5 C5         -0.7770   -0.0160    0.1370 c1        1 MOG     -0.078000
      6 C6         -1.4690   -0.0160   -1.0630 c1        1 MOG      0.400000
      7 O6         -2.6830    0.0100   -1.0630 o         1 MOG     -0.314000
      8 N7         -1.1970   -0.0160    1.4390 n1        1 MOG     -0.054000
      9 C8         -0.1010   -0.0160    2.2340 c1        1 MOG     -0.011000
     10 O9          0.9980   -0.0160    1.4360 o         1 MOG     -0.100000
     11 C10        -0.0310    0.0160    3.7460 c2        1 MOG     -0.147000
     12 N2          1.4610    0.0150   -3.3310 n3        1 MOG     -0.342000
     13 HN1        -1.2520   -0.0160   -3.0160 hn        1 MOG      0.250000
     14 H101       -0.9290   -0.0840    4.1150 ha        1 MOG      0.111333
     15 H102        0.3480    0.8670    4.0360 ha        1 MOG      0.111333
     16 H103        0.5330   -0.7160    4.0610 ha        1 MOG      0.111333
     17 HN21        1.7640   -0.7640   -3.6940 hn        1 MOG      0.230500
     18 HN22        1.7340    0.8150   -3.6740 hn        1 MOG      0.230500
@<TRIPOS>BOND
     1    1    6 1   
     2    1   13 1   
     3    2    3 1   
     4    2   12 1   
     5    4    5 1   
     6    6    7 1   
     7    8    9 1   
     8    9   10 1   
     9   11   14 1   
    10   11   15 1   
    11   11   16 1   
    12   12   17 1   
    13   12   18 1   
@<TRIPOS>SUBSTRUCTURE
     1 MOG         1 TEMP              0 ****  ****    0 ROOT
