@<TRIPOS>MOLECULE
MOH
    6     5     1     0     0
SMALL
bcc


@<TRIPOS>ATOM
      1 C           0.0080   -0.0160    0.0090 c3        1 MOH      0.116700
      2 O           1.4180    0.0270   -0.0160 oh        1 MOH     -0.598800
      3 H1         -0.3740   -0.0070    1.0600 h1        1 MOH      0.028700
      4 H2         -0.3210    0.9110   -0.5260 h1        1 MOH      0.028700
      5 H3         -0.3740   -0.9220   -0.5240 h1        1 MOH      0.028700
      6 HO          1.7340   -0.7620    0.4400 ho        1 MOH      0.396000
@<TRIPOS>BOND
     1    1    2 1   
     2    1    3 1   
     3    1    4 1   
     4    1    5 1   
     5    2    6 1   
@<TRIPOS>SUBSTRUCTURE
     1 MOH         1 TEMP              0 ****  ****    0 ROOT
