@<TRIPOS>MOLECULE
MOH
    6     5     1     0     0
SMALL
bcc


@<TRIPOS>ATOM
      1 C           0.7170   -0.0340   -0.0000 c3        1 MOH      0.116700
      2 O          -0.6860    0.1080   -0.0000 oh        1 MOH     -0.598800
      3 H1          1.0640   -0.5760    0.9150 h1        1 MOH      0.028700
      4 H2          1.0640   -0.5760   -0.9150 h1        1 MOH      0.028700
      5 H3          1.1160    1.0120    0.0000 h1        1 MOH      0.028700
      6 HO         -1.0620   -0.7800    0.0000 ho        1 MOH      0.396000
@<TRIPOS>BOND
     1    1    2 1   
     2    1    3 1   
     3    1    4 1   
     4    1    5 1   
     5    2    6 1   
@<TRIPOS>SUBSTRUCTURE
     1 MOH         1 TEMP              0 ****  ****    0 ROOT
