@<TRIPOS>MOLECULE
MOI
   40    44     1     0     0
SMALL
bcc


@<TRIPOS>ATOM
      1 C1          2.4980    1.4140    0.4670 ca        1 MOI     -0.125000
      2 C2          1.0950    1.4290   -1.6690 c3        1 MOI     -0.058100
      3 C3          1.4480    0.9100   -0.3240 ca        1 MOI     -0.057300
      4 C4          0.6050   -0.0130    0.2680 ca        1 MOI     -0.112300
      5 C5         -0.5930   -0.6780   -0.3450 c3        1 MOI     -0.015700
      6 C6         -1.2220    0.3340   -1.3100 c3        1 MOI     -0.017500
      7 C7         -0.2230   -1.9270   -1.1360 c3        1 MOI     -0.062400
      8 C8          0.6830   -1.5930   -2.3210 c3        1 MOI      0.171800
      9 C9          1.0670   -0.2060   -4.2570 c3        1 MOI      0.161100
     10 C10         2.6230    1.0590    1.8070 ca        1 MOI     -0.127000
     11 C11         1.6650    0.2340    2.4370 ca        1 MOI      0.111100
     12 C12         0.6330   -0.2700    1.6490 ca        1 MOI      0.029100
     13 C13        -1.4130   -1.0440    0.9230 c3        1 MOI      0.121100
     14 C14        -2.6110   -0.1090    1.1670 c3        1 MOI      0.164300
     15 C15        -2.4300    1.2650    0.6010 c2        1 MOI     -0.202200
     16 C16        -1.8020    1.4780   -0.5610 c2        1 MOI     -0.150200
     17 C17        -0.1140    0.7200   -2.3300 c3        1 MOI      0.198500
     18 N1          0.2160   -0.4690   -3.1220 n3        1 MOI     -0.739600
     19 O1          1.8020    0.0010    3.7840 oh        1 MOI     -0.491100
     20 O2         -2.9450   -0.0640    2.5420 oh        1 MOI     -0.585800
     21 O3         -0.5000   -0.9600    2.0750 os        1 MOI     -0.335900
     22 H1          3.2190    2.1170    0.0240 ha        1 MOI      0.137000
     23 H21         0.8250    2.5150   -1.5510 hc        1 MOI      0.057200
     24 H22         1.9840    1.3830   -2.3510 hc        1 MOI      0.057200
     25 H6         -2.0630   -0.1640   -1.8760 hc        1 MOI      0.080700
     26 H71        -1.1650   -2.4150   -1.5010 hc        1 MOI      0.054700
     27 H72         0.3130   -2.6530   -0.4740 hc        1 MOI      0.054700
     28 H81         0.7290   -2.4900   -3.0010 h1        1 MOI      0.038700
     29 H82         1.7260   -1.4060   -1.9270 h1        1 MOI      0.038700
     30 H91         2.1430   -0.0200   -3.9850 h1        1 MOI      0.032700
     31 H92         1.0280   -1.0990   -4.9350 h1        1 MOI      0.032700
     32 H93         0.6810    0.6870   -4.8140 h1        1 MOI      0.032700
     33 H10         3.4520    1.4500    2.4150 ha        1 MOI      0.152000
     34 H13        -1.7480   -2.1140    0.9230 h1        1 MOI      0.087700
     35 H14        -3.5220   -0.5760    0.6830 h1        1 MOI      0.085700
     36 H15        -2.8780    2.0780    1.1910 ha        1 MOI      0.144000
     37 H16        -1.6960    2.4780   -1.0030 ha        1 MOI      0.134000
     38 H17        -0.5680    1.4640   -3.0510 h1        1 MOI      0.059700
     39 HO1         1.0580   -0.5560    4.0590 ho        1 MOI      0.431000
     40 HO2        -2.1550    0.2200    3.0220 ho        1 MOI      0.414000
@<TRIPOS>BOND
     1    1    3 ar  
     2    1   10 ar  
     3    1   22 1   
     4    2    3 1   
     5    2   17 1   
     6    2   23 1   
     7    2   24 1   
     8    3    4 ar  
     9    4    5 1   
    10    4   12 ar  
    11    5    6 1   
    12    5    7 1   
    13    5   13 1   
    14    6   16 1   
    15    6   17 1   
    16    6   25 1   
    17    7    8 1   
    18    7   26 1   
    19    7   27 1   
    20    8   18 1   
    21    8   28 1   
    22    8   29 1   
    23    9   18 1   
    24    9   30 1   
    25    9   31 1   
    26    9   32 1   
    27   10   11 ar  
    28   10   33 1   
    29   11   12 ar  
    30   11   19 1   
    31   12   21 1   
    32   13   14 1   
    33   13   21 1   
    34   13   34 1   
    35   14   15 1   
    36   14   20 1   
    37   14   35 1   
    38   15   16 2   
    39   15   36 1   
    40   16   37 1   
    41   17   18 1   
    42   17   38 1   
    43   19   39 1   
    44   20   40 1   
@<TRIPOS>SUBSTRUCTURE
     1 MOI         1 TEMP              0 ****  ****    0 ROOT
