@<TRIPOS>MOLECULE
MOI
   40    44     1     0     0
SMALL
bcc


@<TRIPOS>ATOM
      1 C1         -0.2200    0.1410   -0.1270 ca        1 MOI     -0.125000
      2 C2          2.0640    0.0600   -1.2700 c3        1 MOI     -0.058100
      3 C3          1.1860    0.1590   -0.0770 ca        1 MOI     -0.057300
      4 C4          1.7700    0.1010    1.1750 ca        1 MOI     -0.112300
      5 C5          3.2360    0.0810    1.4980 c3        1 MOI     -0.015700
      6 C6          3.9340   -0.6720    0.3610 c3        1 MOI     -0.017500
      7 C7          3.8320    1.4810    1.5820 c3        1 MOI     -0.062400
      8 C8          3.7400    2.2110    0.2420 c3        1 MOI      0.171800
      9 C9          4.1300    2.1460   -2.1370 c3        1 MOI      0.161100
     10 C10        -0.9800   -0.0130    1.0300 ca        1 MOI     -0.127000
     11 C11        -0.3650   -0.2230    2.2850 ca        1 MOI      0.111100
     12 C12         1.0270   -0.1950    2.3310 ca        1 MOI      0.029100
     13 C13         3.2240   -0.6050    2.8930 c3        1 MOI      0.121100
     14 C14         3.6660   -2.0790    2.8530 c3        1 MOI      0.164300
     15 C15         3.4110   -2.7500    1.5390 c2        1 MOI     -0.202200
     16 C16         3.5540   -2.1070    0.3740 c2        1 MOI     -0.150200
     17 C17         3.5800    0.0820   -0.9520 c3        1 MOI      0.198500
     18 N1          4.1860    1.4150   -0.8940 n3        1 MOI     -0.739600
     19 O1         -1.1770   -0.4600    3.3670 oh        1 MOI     -0.491100
     20 O2          3.0970   -2.8060    3.9250 oh        1 MOI     -0.585800
     21 O3          1.8470   -0.5340    3.4050 os        1 MOI     -0.335900
     22 H1         -0.7280    0.2290   -1.0990 ha        1 MOI      0.137000
     23 H21         1.8400   -0.9210   -1.7740 hc        1 MOI      0.057200
     24 H22         1.8150    0.8710   -2.0050 hc        1 MOI      0.057200
     25 H6          5.0530   -0.6150    0.5070 hc        1 MOI      0.080700
     26 H71         3.2840    2.0830    2.3520 hc        1 MOI      0.054700
     27 H72         4.9030    1.3980    1.9000 hc        1 MOI      0.054700
     28 H81         2.6740    2.5600    0.1020 h1        1 MOI      0.038700
     29 H82         4.3960    3.1260    0.2880 h1        1 MOI      0.038700
     30 H91         4.8470    3.0060   -2.0680 h1        1 MOI      0.032700
     31 H92         4.4500    1.4770   -2.9770 h1        1 MOI      0.032700
     32 H93         3.1110    2.5590   -2.3760 h1        1 MOI      0.032700
     33 H10        -2.0790   -0.0160    0.9820 ha        1 MOI      0.152000
     34 H13         3.8230   -0.0400    3.6530 h1        1 MOI      0.087700
     35 H14         4.7780   -2.1150    3.0620 h1        1 MOI      0.085700
     36 H15         3.1340   -3.8130    1.6010 ha        1 MOI      0.144000
     37 H16         3.4050   -2.6010   -0.5970 ha        1 MOI      0.134000
     38 H17         4.0940   -0.4630   -1.8000 h1        1 MOI      0.059700
     39 HO1        -0.6010   -0.6050    4.1340 ho        1 MOI      0.431000
     40 HO2         2.1370   -2.7100    3.8630 ho        1 MOI      0.414000
@<TRIPOS>BOND
     1    1    3 ar  
     2    1   10 ar  
     3    1   22 1   
     4    2    3 1   
     5    2   17 1   
     6    2   23 1   
     7    2   24 1   
     8    3    4 ar  
     9    4    5 1   
    10    4   12 ar  
    11    5    6 1   
    12    5    7 1   
    13    5   13 1   
    14    6   16 1   
    15    6   17 1   
    16    6   25 1   
    17    7    8 1   
    18    7   26 1   
    19    7   27 1   
    20    8   18 1   
    21    8   28 1   
    22    8   29 1   
    23    9   18 1   
    24    9   30 1   
    25    9   31 1   
    26    9   32 1   
    27   10   11 ar  
    28   10   33 1   
    29   11   12 ar  
    30   11   19 1   
    31   12   21 1   
    32   13   14 1   
    33   13   21 1   
    34   13   34 1   
    35   14   15 1   
    36   14   20 1   
    37   14   35 1   
    38   15   16 2   
    39   15   36 1   
    40   16   37 1   
    41   17   18 1   
    42   17   38 1   
    43   19   39 1   
    44   20   40 1   
@<TRIPOS>SUBSTRUCTURE
     1 MOI         1 TEMP              0 ****  ****    0 ROOT
