@<TRIPOS>MOLECULE
MOI
   40    44     1     0     0
SMALL
bcc


@<TRIPOS>ATOM
      1 C1         -0.2390    0.1810   -0.1460 ca        1 MOI     -0.130000
      2 C2          2.0500    0.0840   -1.2730 c3        1 MOI     -0.057100
      3 C3          1.1660    0.1960   -0.0860 ca        1 MOI     -0.059300
      4 C4          1.7410    0.1460    1.1720 ca        1 MOI     -0.119300
      5 C5          3.2040    0.1090    1.5050 c3        1 MOI     -0.018700
      6 C6          3.8960   -0.6670    0.3780 c3        1 MOI     -0.019500
      7 C7          3.8230    1.4990    1.5790 c3        1 MOI     -0.062400
      8 C8          3.7530    2.2170    0.2310 c3        1 MOI      0.171800
      9 C9          4.1620    2.1230   -2.1440 c3        1 MOI      0.161100
     10 C10        -1.0080    0.0310    1.0060 ca        1 MOI     -0.126000
     11 C11        -0.4030   -0.1730    2.2660 ca        1 MOI      0.112100
     12 C12         0.9890   -0.1360    2.3250 ca        1 MOI      0.038100
     13 C13         3.1720   -0.5600    2.9110 c3        1 MOI      0.158100
     14 C14         3.6270   -2.0310    2.8690 c3        1 MOI      0.164300
     15 C15         3.3350   -2.7220    1.5740 c2        1 MOI     -0.210200
     16 C16         3.4820   -2.0940    0.4010 c2        1 MOI     -0.140200
     17 C17         3.5640    0.0810   -0.9440 c3        1 MOI      0.199500
     18 N1          4.1960    1.4030   -0.8930 n3        1 MOI     -0.739600
     19 O1         -1.2190   -0.4010    3.3460 oh        1 MOI     -0.494100
     20 O2          3.0360   -2.6740    3.9870 oh        1 MOI     -0.577800
     21 O3          1.7980   -0.4610    3.4100 os        1 MOI     -0.302900
     22 H1         -0.7400    0.2650   -1.1220 ha        1 MOI      0.135000
     23 H21         1.8210    0.9010   -2.0070 hc        1 MOI      0.056200
     24 H22         1.8140   -0.8920   -1.7800 hc        1 MOI      0.056200
     25 H6          5.0140   -0.6330    0.5310 hc        1 MOI      0.079700
     26 H71         4.8910    1.4020    1.9050 hc        1 MOI      0.055200
     27 H72         3.2800    2.1180    2.3380 hc        1 MOI      0.055200
     28 H81         2.6930    2.5810    0.0790 h1        1 MOI      0.038700
     29 H82         4.4240    3.1220    0.2730 h1        1 MOI      0.038700
     30 H91         4.8950    2.9710   -2.0770 h1        1 MOI      0.032700
     31 H92         3.1530    2.5520   -2.3950 h1        1 MOI      0.032700
     32 H93         4.4760    1.4400   -2.9750 h1        1 MOI      0.032700
     33 H10        -2.1060    0.0260    0.9490 ha        1 MOI      0.150000
     34 H13         3.7760    0.0020    3.6690 h1        1 MOI      0.085700
     35 H14         4.7520   -2.0330    3.0110 h1        1 MOI      0.042700
     36 H15         3.0160   -3.7720    1.6410 ha        1 MOI      0.133000
     37 H16         3.3060   -2.5890   -0.5640 ha        1 MOI      0.135000
     38 H17         4.0750   -0.4800   -1.7840 h1        1 MOI      0.057700
     39 HO1        -0.6480   -0.6510    4.0900 ho        1 MOI      0.435000
     40 HO2         3.1730   -3.6220    3.8730 ho        1 MOI      0.402000
@<TRIPOS>BOND
     1    1    3 ar  
     2    1   10 ar  
     3    1   22 1   
     4    2    3 1   
     5    2   17 1   
     6    2   23 1   
     7    2   24 1   
     8    3    4 ar  
     9    4    5 1   
    10    4   12 ar  
    11    5    6 1   
    12    5    7 1   
    13    5   13 1   
    14    6   16 1   
    15    6   17 1   
    16    6   25 1   
    17    7    8 1   
    18    7   26 1   
    19    7   27 1   
    20    8   18 1   
    21    8   28 1   
    22    8   29 1   
    23    9   18 1   
    24    9   30 1   
    25    9   31 1   
    26    9   32 1   
    27   10   11 ar  
    28   10   33 1   
    29   11   12 ar  
    30   11   19 1   
    31   12   21 1   
    32   13   14 1   
    33   13   21 1   
    34   13   34 1   
    35   14   15 1   
    36   14   20 1   
    37   14   35 1   
    38   15   16 2   
    39   15   36 1   
    40   16   37 1   
    41   17   18 1   
    42   17   38 1   
    43   19   39 1   
    44   20   40 1   
@<TRIPOS>SUBSTRUCTURE
     1 MOI         1 TEMP              0 ****  ****    0 ROOT
