@<TRIPOS>MOLECULE
MOI
   40    42     1     0     0
SMALL
bcc


@<TRIPOS>ATOM
      1 C1         -2.7460    0.9750   -0.8110 c1        1 MOI     -0.121000
      2 C2         -0.7430    0.2080   -2.0460 c3        1 MOI     -0.140000
      3 C3         -1.3370    0.9750   -0.8110 c2        1 MOI     -0.048000
      4 C4         -0.6100    0.9750    0.4540 c2        1 MOI     -0.116000
      5 C5          0.7210    0.1430    0.5870 c3        1 MOI     -0.020000
      6 C6          0.9970   -0.8860   -0.4960 c3        1 MOI     -0.069000
      7 C7          1.8210    1.1260    0.4550 c3        1 MOI     -0.171000
      8 C8          2.7600    0.8030   -1.1370 c3        1 MOI     -0.054000
      9 C9          1.0380    1.5160   -3.0110 c3        1 MOI     -0.104000
     10 C10        -3.4620    0.9170    0.4300 c1        1 MOI     -0.178000
     11 C11        -2.7430    0.8590    1.6760 c1        1 MOI      0.058000
     12 C12        -1.3200    0.8580    1.6780 c1        1 MOI      0.047000
     13 C13         0.7510   -0.3470    2.0630 c3        1 MOI      0.002000
     14 C14         0.6490   -1.9400    2.3700 c3        1 MOI      0.049000
     15 C15         0.1760   -2.8260    1.1190 c2        1 MOI     -0.193000
     16 C16         0.4350   -2.3510   -0.2640 c2        1 MOI     -0.151000
     17 C17         0.5710   -0.5260   -1.8720 c3        1 MOI      0.019000
     18 N1          1.6300    0.3320   -2.4310 n3        1 MOI     -0.285000
     19 O1         -3.5120    0.8940    2.8650 oh        1 MOI     -0.234000
     20 O2         -0.1520   -2.1860    3.4920 oh        1 MOI     -0.316000
     21 O3         -0.3480    0.3060    2.7470 os        1 MOI     -0.190000
     22 H1         -3.2340    1.0150   -1.6550 ha        1 MOI      0.136000
     23 H21        -0.6250    0.8550   -2.7670 hc        1 MOI      0.098000
     24 H22        -1.4080   -0.4450   -2.3360 hc        1 MOI      0.098000
     25 H6          1.9680   -0.9750   -0.5310 hc        1 MOI      0.116000
     26 H71         1.4500    2.0280    0.4360 hc        1 MOI      0.095000
     27 H72         2.4280    1.0390    1.2140 hc        1 MOI      0.095000
     28 H81         3.4040    0.0850   -0.9920 h1        1 MOI      0.085000
     29 H82         3.2340    1.6140   -1.4020 h1        1 MOI      0.085000
     30 H91         0.4520    1.2590   -3.7480 h1        1 MOI      0.071000
     31 H92         0.5190    1.9860   -2.3310 h1        1 MOI      0.071000
     32 H93         1.7440    2.1020   -3.3450 h1        1 MOI      0.071000
     33 H10        -4.4380    0.9190    0.4300 ha        1 MOI      0.135000
     34 H13         1.5820   -0.0250    2.4610 h1        1 MOI      0.128000
     35 H14         1.5110   -2.2660    2.6920 h1        1 MOI      0.123000
     36 H15        -0.2290   -3.7020    1.2660 ha        1 MOI      0.144000
     37 H16         0.1630   -2.8960   -1.0270 ha        1 MOI      0.134000
     38 H17         0.5310   -1.3460   -2.4010 h1        1 MOI      0.096000
     39 HO1        -3.8860    1.6940    2.9520 ho        1 MOI      0.217000
     40 HO2         0.2570   -2.7640    4.0270 ho        1 MOI      0.219000
@<TRIPOS>BOND
     1    1    3 1   
     2    1   22 1   
     3    2    3 1   
     4    2   17 1   
     5    2   23 1   
     6    2   24 1   
     7    3    4 1   
     8    4    5 1   
     9    4   12 1   
    10    5    6 1   
    11    5    7 1   
    12    5   13 1   
    13    6   16 1   
    14    6   17 1   
    15    6   25 1   
    16    7    8 1   
    17    7   26 1   
    18    7   27 1   
    19    8   18 1   
    20    8   28 1   
    21    8   29 1   
    22    9   18 1   
    23    9   30 1   
    24    9   31 1   
    25    9   32 1   
    26   10   11 1   
    27   10   33 1   
    28   11   19 1   
    29   12   21 1   
    30   13   14 1   
    31   13   21 1   
    32   13   34 1   
    33   14   15 1   
    34   14   20 1   
    35   14   35 1   
    36   15   16 1   
    37   15   36 1   
    38   16   37 1   
    39   17   18 1   
    40   17   38 1   
    41   19   39 1   
    42   20   40 1   
@<TRIPOS>SUBSTRUCTURE
     1 MOI         1 TEMP              0 ****  ****    0 ROOT
