@<TRIPOS>MOLECULE
MOI
   40    44     1     0     0
SMALL
bcc


@<TRIPOS>ATOM
      1 C1         -0.2200    0.1370   -0.1210 ca        1 MOI     -0.125000
      2 C2          2.0610    0.0570   -1.2700 c3        1 MOI     -0.058100
      3 C3          1.1860    0.1570   -0.0750 ca        1 MOI     -0.057300
      4 C4          1.7740    0.1020    1.1770 ca        1 MOI     -0.112300
      5 C5          3.2400    0.0840    1.4960 c3        1 MOI     -0.015700
      6 C6          3.9370   -0.6700    0.3580 c3        1 MOI     -0.017500
      7 C7          3.8350    1.4850    1.5760 c3        1 MOI     -0.062400
      8 C8          3.7390    2.2130    0.2350 c3        1 MOI      0.171800
      9 C9          4.1220    2.1440   -2.1450 c3        1 MOI      0.161100
     10 C10        -0.9760   -0.0150    1.0380 ca        1 MOI     -0.127000
     11 C11        -0.3580   -0.2230    2.2920 ca        1 MOI      0.111100
     12 C12         1.0340   -0.1930    2.3340 ca        1 MOI      0.029100
     13 C13         3.2330   -0.6000    2.8920 c3        1 MOI      0.121100
     14 C14         3.6760   -2.0730    2.8530 c3        1 MOI      0.164300
     15 C15         3.4190   -2.7470    1.5410 c2        1 MOI     -0.202200
     16 C16         3.5580   -2.1060    0.3740 c2        1 MOI     -0.150200
     17 C17         3.5780    0.0810   -0.9550 c3        1 MOI      0.198500
     18 N1          4.1830    1.4150   -0.9010 n3        1 MOI     -0.739600
     19 O1         -1.1670   -0.4590    3.3770 oh        1 MOI     -0.491100
     20 O2          3.1100   -2.7990    3.9280 oh        1 MOI     -0.585800
     21 O3          1.8570   -0.5290    3.4080 os        1 MOI     -0.335900
     22 H1         -0.7300    0.2230   -1.0920 ha        1 MOI      0.137000
     23 H21         1.8100    0.8660   -2.0050 hc        1 MOI      0.057200
     24 H22         1.8370   -0.9250   -1.7710 hc        1 MOI      0.057200
     25 H6          5.0550   -0.6120    0.5010 hc        1 MOI      0.080700
     26 H71         3.2880    2.0880    2.3460 hc        1 MOI      0.054700
     27 H72         4.9070    1.4040    1.8910 hc        1 MOI      0.054700
     28 H81         2.6720    2.5600    0.0970 h1        1 MOI      0.038700
     29 H82         4.3940    3.1280    0.2780 h1        1 MOI      0.038700
     30 H91         3.1030    2.5550   -2.3820 h1        1 MOI      0.032700
     31 H92         4.4410    1.4740   -2.9850 h1        1 MOI      0.032700
     32 H93         4.8390    3.0050   -2.0790 h1        1 MOI      0.032700
     33 H10        -2.0750   -0.0190    0.9940 ha        1 MOI      0.152000
     34 H13         3.8330   -0.0330    3.6490 h1        1 MOI      0.087700
     35 H14         4.7890   -2.1080    3.0590 h1        1 MOI      0.085700
     36 H15         3.1430   -3.8100    1.6050 ha        1 MOI      0.144000
     37 H16         3.4080   -2.6010   -0.5950 ha        1 MOI      0.134000
     38 H17         4.0910   -0.4640   -1.8030 h1        1 MOI      0.059700
     39 HO1        -0.5890   -0.6010    4.1420 ho        1 MOI      0.431000
     40 HO2         2.1500   -2.7040    3.8680 ho        1 MOI      0.414000
@<TRIPOS>BOND
     1    1    3 ar  
     2    1   10 ar  
     3    1   22 1   
     4    2    3 1   
     5    2   17 1   
     6    2   23 1   
     7    2   24 1   
     8    3    4 ar  
     9    4    5 1   
    10    4   12 ar  
    11    5    6 1   
    12    5    7 1   
    13    5   13 1   
    14    6   16 1   
    15    6   17 1   
    16    6   25 1   
    17    7    8 1   
    18    7   26 1   
    19    7   27 1   
    20    8   18 1   
    21    8   28 1   
    22    8   29 1   
    23    9   18 1   
    24    9   30 1   
    25    9   31 1   
    26    9   32 1   
    27   10   11 ar  
    28   10   33 1   
    29   11   12 ar  
    30   11   19 1   
    31   12   21 1   
    32   13   14 1   
    33   13   21 1   
    34   13   34 1   
    35   14   15 1   
    36   14   20 1   
    37   14   35 1   
    38   15   16 2   
    39   15   36 1   
    40   16   37 1   
    41   17   18 1   
    42   17   38 1   
    43   19   39 1   
    44   20   40 1   
@<TRIPOS>SUBSTRUCTURE
     1 MOI         1 TEMP              0 ****  ****    0 ROOT
