@<TRIPOS>MOLECULE
MOJ
   45    48     1     0     0
SMALL
bcc


@<TRIPOS>ATOM
      1 F23         0.0430   -0.0300   -0.1620 f         1 MOJ     -0.137900
      2 C14         1.3960   -0.0270   -0.1000 ca        1 MOJ      0.125900
      3 C13         2.0400   -0.0020    1.1460 ca        1 MOJ     -0.156000
      4 C12         3.4400   -0.0030    1.2170 cp        1 MOJ     -0.004000
      5 C17         4.0470    0.0120    2.5480 cp        1 MOJ     -0.163300
      6 C22         4.8520   -1.0600    2.9990 ca        1 MOJ      0.408200
      7 N21         5.4070   -1.1100    4.2230 nb        1 MOJ     -0.662000
      8 C20         5.1750   -0.0750    5.0540 ca        1 MOJ      0.398200
      9 C19         4.3880    1.0360    4.7040 ca        1 MOJ     -0.246300
     10 C18         3.8140    1.0750    3.4330 ca        1 MOJ     -0.078000
     11 C15         2.1550   -0.0500   -1.2850 ca        1 MOJ     -0.159000
     12 C16         3.5410   -0.0420   -1.2010 ca        1 MOJ     -0.105000
     13 C11         4.2020   -0.0150    0.0350 ca        1 MOJ     -0.075300
     14 C9          5.6990    0.0220    0.0630 c3        1 MOJ     -0.020400
     15 C8          6.2320    1.2150   -0.7200 c3        1 MOJ     -0.141700
     16 C7          7.7230    1.2870   -0.5180 ce        1 MOJ      0.438900
     17 N24         8.3670    2.3090   -0.0050 n2        1 MOJ     -0.455200
     18 O25         7.6380    3.3550    0.3210 oh        1 MOJ     -0.356500
     19 C2          8.4340    0.0580   -0.8870 ca        1 MOJ     -0.423500
     20 C10         6.2770   -1.2700   -0.4950 c3        1 MOJ     -0.136700
     21 C3          7.7480   -1.1870   -0.8110 ca        1 MOJ      0.509600
     22 N4          8.3580   -2.3650   -1.0560 nb        1 MOJ     -0.770000
     23 C5          9.6940   -2.3150   -1.4310 ca        1 MOJ      0.889900
     24 N27        10.3200   -3.5180   -1.7570 nv        1 MOJ     -0.931500
     25 N6         10.4280   -1.1460   -1.5700 nb        1 MOJ     -0.769000
     26 C1          9.7930    0.0170   -1.3100 ca        1 MOJ      0.526600
     27 C26        10.5910    1.2690   -1.5080 c3        1 MOJ     -0.154400
     28 H13         1.4400    0.0140    2.0690 ha        1 MOJ      0.154000
     29 H22         5.0590   -1.9220    2.3380 h4        1 MOJ      0.028100
     30 H20         5.6460   -0.1460    6.0510 h4        1 MOJ      0.024100
     31 H19         4.2310    1.8540    5.4190 ha        1 MOJ      0.146000
     32 H18         3.1900    1.9260    3.1240 ha        1 MOJ      0.145000
     33 H15         1.6470   -0.0730   -2.2600 ha        1 MOJ      0.152000
     34 H16         4.1330   -0.0530   -2.1300 ha        1 MOJ      0.141000
     35 H9          6.0460    0.1320    1.1320 hc        1 MOJ      0.077700
     36 H8          6.0200    1.0970   -1.8150 hc        1 MOJ      0.069700
     37 H8A         5.7260    2.1540   -0.3720 hc        1 MOJ      0.069700
     38 HO25        8.2840    3.9950    0.6830 ho        1 MOJ      0.438000
     39 H10         6.0890   -2.1000    0.2390 hc        1 MOJ      0.073700
     40 H10A        5.7430   -1.5420   -1.4480 hc        1 MOJ      0.073700
     41 HN27        9.8840   -4.3540   -1.4490 hn        1 MOJ      0.432800
     42 HN2A       11.3110   -3.5140   -1.8030 hn        1 MOJ      0.432800
     43 H26         9.9780    2.0250   -2.0570 hc        1 MOJ      0.063700
     44 H26A       10.8870    1.6820   -0.5120 hc        1 MOJ      0.063700
     45 H26B       11.5230    1.0800   -2.0960 hc        1 MOJ      0.063700
@<TRIPOS>BOND
     1    1    2 1   
     2    2    3 ar  
     3    2   11 ar  
     4    3    4 ar  
     5    3   28 1   
     6    4    5 1   
     7    4   13 ar  
     8    5    6 ar  
     9    5   10 ar  
    10    6    7 ar  
    11    6   29 1   
    12    7    8 ar  
    13    8    9 ar  
    14    8   30 1   
    15    9   10 ar  
    16    9   31 1   
    17   10   32 1   
    18   11   12 ar  
    19   11   33 1   
    20   12   13 ar  
    21   12   34 1   
    22   13   14 1   
    23   14   15 1   
    24   14   20 1   
    25   14   35 1   
    26   15   16 1   
    27   15   36 1   
    28   15   37 1   
    29   16   17 2   
    30   16   19 1   
    31   17   18 1   
    32   18   38 1   
    33   19   21 ar  
    34   19   26 ar  
    35   20   21 1   
    36   20   39 1   
    37   20   40 1   
    38   21   22 ar  
    39   22   23 ar  
    40   23   24 1   
    41   23   25 ar  
    42   24   41 1   
    43   24   42 1   
    44   25   26 ar  
    45   26   27 1   
    46   27   43 1   
    47   27   44 1   
    48   27   45 1   
@<TRIPOS>SUBSTRUCTURE
     1 MOJ         1 TEMP              0 ****  ****    0 ROOT
