@<TRIPOS>MOLECULE
MOJ
   45    48     1     0     0
SMALL
bcc


@<TRIPOS>ATOM
      1 F23        -5.4420   -2.4760    0.0650 f         1 MOJ     -0.137900
      2 C14        -4.1890   -1.9630    0.0250 ca        1 MOJ      0.125900
      3 C13        -3.9840   -0.5960    0.2670 ca        1 MOJ     -0.156000
      4 C12        -2.6890   -0.0600    0.2310 cp        1 MOJ     -0.004000
      5 C17        -2.5450    1.3700    0.5050 cp        1 MOJ     -0.163300
      6 C22        -1.8090    1.8320    1.6200 ca        1 MOJ      0.408200
      7 N21        -1.6720    3.1330    1.9340 nb        1 MOJ     -0.662000
      8 C20        -2.2730    4.0330    1.1320 ca        1 MOJ      0.398200
      9 C19        -3.0290    3.6770   -0.0000 ca        1 MOJ     -0.246300
     10 C18        -3.1670    2.3250   -0.3120 ca        1 MOJ     -0.078000
     11 C15        -3.0950   -2.8010   -0.2580 ca        1 MOJ     -0.159000
     12 C16        -1.8190   -2.2550   -0.3000 ca        1 MOJ     -0.105000
     13 C11        -1.5940   -0.8920   -0.0630 ca        1 MOJ     -0.075300
     14 C9         -0.1990   -0.3550   -0.1490 c3        1 MOJ     -0.020400
     15 C8          0.4170   -0.6460   -1.5110 c3        1 MOJ     -0.141700
     16 C7          1.7470    0.0560   -1.5920 ce        1 MOJ      0.438900
     17 N24         2.0730    0.9560   -2.4900 n2        1 MOJ     -0.455200
     18 O25         1.1640    1.2270   -3.4020 oh        1 MOJ     -0.356500
     19 C2          2.6740   -0.2990   -0.5110 ca        1 MOJ     -0.423500
     20 C10         0.6710   -0.9410    0.9530 c3        1 MOJ     -0.136700
     21 C3          2.1460   -0.7190    0.7420 ca        1 MOJ      0.509600
     22 N4          2.9320   -0.9840    1.8060 nb        1 MOJ     -0.770000
     23 C5          4.3030   -0.8670    1.6190 ca        1 MOJ      0.889900
     24 N27         5.1330   -1.2070    2.6870 nh        1 MOJ     -0.931500
     25 N6          4.9050   -0.5050    0.4230 nb        1 MOJ     -0.769000
     26 C1          4.0920   -0.2380   -0.6210 ca        1 MOJ      0.526600
     27 C26         4.7630    0.1090   -1.9150 c3        1 MOJ     -0.154400
     28 H13        -4.8440    0.0530    0.4900 ha        1 MOJ      0.154000
     29 H22        -1.3050    1.1160    2.2950 h4        1 MOJ      0.028100
     30 H20        -2.1400    5.0920    1.4150 h4        1 MOJ      0.024100
     31 H19        -3.4980    4.4510   -0.6210 ha        1 MOJ      0.146000
     32 H18        -3.7530    2.0070   -1.1870 ha        1 MOJ      0.145000
     33 H15        -3.2600   -3.8720   -0.4450 ha        1 MOJ      0.152000
     34 H16        -0.9630   -2.9120   -0.5290 ha        1 MOJ      0.141000
     35 H9         -0.2250    0.7660   -0.0190 hc        1 MOJ      0.077700
     36 H8          0.5810   -1.7480   -1.6450 hc        1 MOJ      0.069700
     37 H8A        -0.2760   -0.3030   -2.3230 hc        1 MOJ      0.069700
     38 HO25        1.5830    1.9100   -3.9630 ho        1 MOJ      0.438000
     39 H10         0.3540   -0.5030    1.9390 hc        1 MOJ      0.073700
     40 H10A        0.5030   -2.0530    1.0150 hc        1 MOJ      0.073700
     41 HN27        4.7200   -1.2440    3.5890 hn        1 MOJ      0.432800
     42 HN2A        6.0800   -0.9150    2.6360 hn        1 MOJ      0.432800
     43 H26         4.6770    1.2090   -2.0950 hc        1 MOJ      0.063700
     44 H26A        5.8500   -0.1570   -1.9040 hc        1 MOJ      0.063700
     45 H26B        4.2760   -0.4450   -2.7540 hc        1 MOJ      0.063700
@<TRIPOS>BOND
     1    1    2 1   
     2    2    3 ar  
     3    2   11 ar  
     4    3    4 ar  
     5    3   28 1   
     6    4    5 1   
     7    4   13 ar  
     8    5    6 ar  
     9    5   10 ar  
    10    6    7 ar  
    11    6   29 1   
    12    7    8 ar  
    13    8    9 ar  
    14    8   30 1   
    15    9   10 ar  
    16    9   31 1   
    17   10   32 1   
    18   11   12 ar  
    19   11   33 1   
    20   12   13 ar  
    21   12   34 1   
    22   13   14 1   
    23   14   15 1   
    24   14   20 1   
    25   14   35 1   
    26   15   16 1   
    27   15   36 1   
    28   15   37 1   
    29   16   17 2   
    30   16   19 1   
    31   17   18 1   
    32   18   38 1   
    33   19   21 ar  
    34   19   26 ar  
    35   20   21 1   
    36   20   39 1   
    37   20   40 1   
    38   21   22 ar  
    39   22   23 ar  
    40   23   24 1   
    41   23   25 ar  
    42   24   41 1   
    43   24   42 1   
    44   25   26 ar  
    45   26   27 1   
    46   27   43 1   
    47   27   44 1   
    48   27   45 1   
@<TRIPOS>SUBSTRUCTURE
     1 MOJ         1 TEMP              0 ****  ****    0 ROOT
