@<TRIPOS>MOLECULE
MOJ
   46    49     1     0     0
SMALL
bcc


@<TRIPOS>ATOM
      1 F23         0.0220    0.0260   -0.1190 f         1 MOJ     -0.122900
      2 C14         1.3730    0.0280   -0.0770 ca        1 MOJ      0.147900
      3 C13         2.0360    0.0130    1.1610 ca        1 MOJ     -0.154000
      4 C12         3.4360    0.0090    1.2120 cp        1 MOJ      0.008000
      5 C17         4.0660   -0.0210    2.5310 cp        1 MOJ     -0.172300
      6 C22         4.9040   -1.0920    2.9170 ca        1 MOJ      0.397200
      7 N21         5.5000   -1.1790    4.1200 nb        1 MOJ     -0.666000
      8 C20         5.2640   -0.1890    5.0020 ca        1 MOJ      0.403200
      9 C19         4.4350    0.9140    4.7230 ca        1 MOJ     -0.237300
     10 C18         3.8280    0.9950    3.4700 ca        1 MOJ     -0.075000
     11 C15         2.1150    0.0430   -1.2740 ca        1 MOJ     -0.157000
     12 C16         3.5010    0.0490   -1.2100 ca        1 MOJ     -0.104000
     13 C11         4.1790    0.0370    0.0170 ca        1 MOJ     -0.104300
     14 C9          5.6750    0.0750    0.0300 c3        1 MOJ     -0.013400
     15 C8          6.2120    1.2560   -0.7670 c3        1 MOJ     -0.142700
     16 C7          7.7020    1.3310   -0.5760 ce        1 MOJ      0.379900
     17 N24         8.3620    2.3680   -0.1100 n2        1 MOJ     -0.401200
     18 O25         7.6580    3.4250    0.1830 oh        1 MOJ     -0.322500
     19 C2          8.4250    0.0880   -0.8860 ca        1 MOJ     -0.279500
     20 C10         6.2430   -1.2220   -0.5270 c3        1 MOJ     -0.144700
     21 C3          7.7230   -1.1520   -0.7800 ca        1 MOJ      0.499600
     22 N4          8.3580   -2.3420   -0.9490 nb        1 MOJ     -0.688000
     23 C5          9.6870   -2.2640   -1.2530 ca        1 MOJ      0.694900
     24 N27        10.4020   -3.5700   -1.3940 n4        1 MOJ     -0.814300
     25 N6         10.4370   -1.1450   -1.4510 nb        1 MOJ     -0.688000
     26 C1          9.7960    0.0440   -1.2760 ca        1 MOJ      0.509600
     27 C26        10.6000    1.2760   -1.5360 c3        1 MOJ     -0.165400
     28 H13         1.4490   -0.0020    2.0930 ha        1 MOJ      0.164000
     29 H22         5.0950   -1.9300    2.2230 h4        1 MOJ      0.015100
     30 H20         5.7620   -0.2910    5.9840 h4        1 MOJ      0.033100
     31 H19         4.2680    1.6900    5.4830 ha        1 MOJ      0.156000
     32 H18         3.1710    1.8400    3.2170 ha        1 MOJ      0.151000
     33 H15         1.5910    0.0530   -2.2410 ha        1 MOJ      0.161000
     34 H16         4.0770    0.0690   -2.1490 ha        1 MOJ      0.133000
     35 H9          6.0300    0.1890    1.0960 hc        1 MOJ      0.083700
     36 H8          5.9870    1.1380   -1.8600 hc        1 MOJ      0.084700
     37 H8A         5.7130    2.2010   -0.4210 hc        1 MOJ      0.084700
     38 HO25        8.3080    4.0760    0.5300 ho        1 MOJ      0.461000
     39 H10         6.0070   -2.0630    0.1820 hc        1 MOJ      0.093200
     40 H10A        5.7430   -1.4650   -1.5080 hc        1 MOJ      0.093200
     41 HN27       10.4450   -4.0230   -0.4730 hn        1 MOJ      0.479467
     42 HN2A        9.8850   -4.1710   -2.0470 hn        1 MOJ      0.479467
     43 H26        11.5370    1.0530   -2.1070 hc        1 MOJ      0.086700
     44 H26A       10.8940    1.7430   -0.5600 hc        1 MOJ      0.086700
     45 H26B        9.9940    2.0060   -2.1280 hc        1 MOJ      0.086700
     46 H273       11.3550   -3.4120   -1.7470 hn        1 MOJ      0.479467
@<TRIPOS>BOND
     1    1    2 1   
     2    2    3 ar  
     3    2   11 ar  
     4    3    4 ar  
     5    3   28 1   
     6    4    5 1   
     7    4   13 ar  
     8    5    6 ar  
     9    5   10 ar  
    10    6    7 ar  
    11    6   29 1   
    12    7    8 ar  
    13    8    9 ar  
    14    8   30 1   
    15    9   10 ar  
    16    9   31 1   
    17   10   32 1   
    18   11   12 ar  
    19   11   33 1   
    20   12   13 ar  
    21   12   34 1   
    22   13   14 1   
    23   14   15 1   
    24   14   20 1   
    25   14   35 1   
    26   15   16 1   
    27   15   36 1   
    28   15   37 1   
    29   16   17 2   
    30   16   19 1   
    31   17   18 1   
    32   18   38 1   
    33   19   21 ar  
    34   19   26 ar  
    35   20   21 1   
    36   20   39 1   
    37   20   40 1   
    38   21   22 ar  
    39   22   23 ar  
    40   23   24 1   
    41   23   25 ar  
    42   24   41 1   
    43   24   42 1   
    44   24   46 1   
    45   25   26 ar  
    46   26   27 1   
    47   27   43 1   
    48   27   44 1   
    49   27   45 1   
@<TRIPOS>SUBSTRUCTURE
     1 MOJ         1 TEMP              0 ****  ****    0 ROOT
