@<TRIPOS>MOLECULE
MOJ
   45    48     1     0     0
SMALL
bcc


@<TRIPOS>ATOM
      1 F23         0.0480   -0.0180   -0.1860 f         1 MOJ     -0.138900
      2 C14         1.4010   -0.0180   -0.1170 ca        1 MOJ      0.125900
      3 C13         2.0390    0.0010    1.1330 ca        1 MOJ     -0.156000
      4 C12         3.4380   -0.0030    1.2100 cp        1 MOJ     -0.003000
      5 C17         4.0380    0.0070    2.5440 cp        1 MOJ     -0.164300
      6 C22         4.8370   -1.0690    2.9970 ca        1 MOJ      0.409200
      7 N21         5.3830   -1.1240    4.2250 nb        1 MOJ     -0.661000
      8 C20         5.1520   -0.0890    5.0560 ca        1 MOJ      0.398200
      9 C19         4.3720    1.0270    4.7040 ca        1 MOJ     -0.246300
     10 C18         3.8060    1.0690    3.4300 ca        1 MOJ     -0.079000
     11 C15         2.1650   -0.0380   -1.2980 ca        1 MOJ     -0.159000
     12 C16         3.5500   -0.0330   -1.2080 ca        1 MOJ     -0.105000
     13 C11         4.2060   -0.0120    0.0320 ca        1 MOJ     -0.075300
     14 C9          5.7030    0.0210    0.0670 c3        1 MOJ     -0.020400
     15 C8          6.2420    1.2200   -0.7040 c3        1 MOJ     -0.140700
     16 C7          7.7320    1.2870   -0.5020 ce        1 MOJ      0.438900
     17 N24         8.3810    2.3050    0.0140 n2        1 MOJ     -0.453200
     18 O25         7.6570    3.3530    0.3440 oh        1 MOJ     -0.357500
     19 C2          8.4410    0.0570   -0.8750 ca        1 MOJ     -0.424500
     20 C10         6.2810   -1.2670   -0.4990 c3        1 MOJ     -0.135700
     21 C3          7.7560   -1.1880   -0.7950 ca        1 MOJ      0.510600
     22 N4          8.3690   -2.3660   -1.0300 nb        1 MOJ     -0.770000
     23 C5          9.7150   -2.3170   -1.3660 ca        1 MOJ      0.890900
     24 N27        10.4010   -3.5250   -1.4760 nh        1 MOJ     -0.932500
     25 N6         10.4330   -1.1450   -1.5620 nb        1 MOJ     -0.769000
     26 C1          9.7950    0.0180   -1.3130 ca        1 MOJ      0.526600
     27 C26        10.5750    1.2730   -1.5510 c3        1 MOJ     -0.154400
     28 H13         1.4350    0.0150    2.0520 ha        1 MOJ      0.154000
     29 H22         5.0440   -1.9300    2.3360 h4        1 MOJ      0.028100
     30 H20         5.6160   -0.1640    6.0560 h4        1 MOJ      0.025100
     31 H19         4.2140    1.8440    5.4190 ha        1 MOJ      0.146000
     32 H18         3.1870    1.9240    3.1180 ha        1 MOJ      0.145000
     33 H15         1.6610   -0.0560   -2.2760 ha        1 MOJ      0.151000
     34 H16         4.1470   -0.0410   -2.1340 ha        1 MOJ      0.141000
     35 H9          6.0460    0.1210    1.1380 hc        1 MOJ      0.078700
     36 H8          6.0290    1.1140   -1.8000 hc        1 MOJ      0.069200
     37 H8A         5.7380    2.1570   -0.3470 hc        1 MOJ      0.069200
     38 HO25        8.3050    3.9860    0.7140 ho        1 MOJ      0.438000
     39 H10         5.7570   -1.5260   -1.4610 hc        1 MOJ      0.073700
     40 H10A        6.0790   -2.1040    0.2240 hc        1 MOJ      0.073700
     41 HN27       11.2830   -3.5090   -1.9300 hn        1 MOJ      0.433300
     42 HN2A        9.8580   -4.3510   -1.5650 hn        1 MOJ      0.433300
     43 H26        10.9000    1.6990   -0.5690 hc        1 MOJ      0.063367
     44 H26A       11.4910    1.0830   -2.1670 hc        1 MOJ      0.063367
     45 H26B        9.9410    2.0190   -2.0880 hc        1 MOJ      0.063367
@<TRIPOS>BOND
     1    1    2 1   
     2    2    3 ar  
     3    2   11 ar  
     4    3    4 ar  
     5    3   28 1   
     6    4    5 1   
     7    4   13 ar  
     8    5    6 ar  
     9    5   10 ar  
    10    6    7 ar  
    11    6   29 1   
    12    7    8 ar  
    13    8    9 ar  
    14    8   30 1   
    15    9   10 ar  
    16    9   31 1   
    17   10   32 1   
    18   11   12 ar  
    19   11   33 1   
    20   12   13 ar  
    21   12   34 1   
    22   13   14 1   
    23   14   15 1   
    24   14   20 1   
    25   14   35 1   
    26   15   16 1   
    27   15   36 1   
    28   15   37 1   
    29   16   17 2   
    30   16   19 1   
    31   17   18 1   
    32   18   38 1   
    33   19   21 ar  
    34   19   26 ar  
    35   20   21 1   
    36   20   39 1   
    37   20   40 1   
    38   21   22 ar  
    39   22   23 ar  
    40   23   24 1   
    41   23   25 ar  
    42   24   41 1   
    43   24   42 1   
    44   25   26 ar  
    45   26   27 1   
    46   27   43 1   
    47   27   44 1   
    48   27   45 1   
@<TRIPOS>SUBSTRUCTURE
     1 MOJ         1 TEMP              0 ****  ****    0 ROOT
