@<TRIPOS>MOLECULE
MOK
   23    24     1     0     0
SMALL
bcc


@<TRIPOS>ATOM
      1 C1          0.0390   -0.0440   -0.0560 c3        1 MOK     -0.129400
      2 C2          1.4890    0.0190    0.0960 cc        1 MOK      0.233000
      3 C3          2.3440    0.0130    1.1850 cd        1 MOK     -0.301200
      4 C4          1.8770   -0.0420    2.6180 c         1 MOK      0.936200
      5 O5          2.3120    0.8140    3.4400 o         1 MOK     -0.821800
      6 O6          1.0180   -0.9210    2.9070 o         1 MOK     -0.821800
      7 C7          3.6810    0.0560    0.5780 cd        1 MOK      0.379800
      8 N8          3.5480    0.0960   -0.7730 nc        1 MOK     -0.414300
      9 O9          2.2740    0.0810   -1.0890 os        1 MOK     -0.154100
     10 C10         4.9760    0.0340    1.2480 ca        1 MOK     -0.112500
     11 C11         5.1450    0.6540    2.4940 ca        1 MOK     -0.101500
     12 C12         6.3940    0.6390    3.1150 ca        1 MOK     -0.154500
     13 C13         7.4790    0.0110    2.5060 ca        1 MOK     -0.140000
     14 C14         7.3140   -0.6100    1.2690 ca        1 MOK     -0.154500
     15 C15         6.0710   -0.6000    0.6400 ca        1 MOK     -0.101500
     16 H1         -0.3990   -0.3690    0.9260 hc        1 MOK      0.055700
     17 H2         -0.3720    0.9590   -0.3330 hc        1 MOK      0.055700
     18 H3         -0.2450   -0.7750   -0.8530 hc        1 MOK      0.055700
     19 H5          4.2720    1.1310    2.9880 ha        1 MOK      0.173500
     20 H6          6.5140    1.1230    4.0950 ha        1 MOK      0.117500
     21 H7          8.4600    0.0010    3.0010 ha        1 MOK      0.110000
     22 H8          8.1650   -1.1100    0.7870 ha        1 MOK      0.117500
     23 H9          5.9500   -1.0940   -0.3350 ha        1 MOK      0.173500
@<TRIPOS>BOND
     1    1    2 1   
     2    1   16 1   
     3    1   17 1   
     4    1   18 1   
     5    2    3 2   
     6    2    9 1   
     7    3    4 1   
     8    3    7 1   
     9    4    5 1   
    10    4    6 1   
    11    7    8 2   
    12    7   10 1   
    13    8    9 1   
    14   10   11 ar  
    15   10   15 ar  
    16   11   12 ar  
    17   11   19 1   
    18   12   13 ar  
    19   12   20 1   
    20   13   14 ar  
    21   13   21 1   
    22   14   15 ar  
    23   14   22 1   
    24   15   23 1   
@<TRIPOS>SUBSTRUCTURE
     1 MOK         1 TEMP              0 ****  ****    0 ROOT
