@<TRIPOS>MOLECULE
MOK
   23    24     1     0     0
SMALL
bcc


@<TRIPOS>ATOM
      1 C1          0.0350   -0.1850   -0.0330 c3        1 MOK     -0.129400
      2 C2          1.4840   -0.0770    0.1100 cc        1 MOK      0.233000
      3 C3          2.3430   -0.0340    1.1930 cd        1 MOK     -0.301200
      4 C4          1.8860   -0.0720    2.6300 c         1 MOK      0.936200
      5 O5          2.3000    0.8140    3.4310 o         1 MOK     -0.821800
      6 O6          1.0560   -0.9710    2.9420 o         1 MOK     -0.821800
      7 C7          3.6760    0.0350    0.5780 cd        1 MOK      0.379800
      8 N8          3.5340    0.0420   -0.7730 nc        1 MOK     -0.414300
      9 O9          2.2590   -0.0160   -1.0810 os        1 MOK     -0.154100
     10 C10         4.9740    0.0660    1.2400 ca        1 MOK     -0.112500
     11 C11         5.1310    0.7170    2.4720 ca        1 MOK     -0.101500
     12 C12         6.3830    0.7520    3.0860 ca        1 MOK     -0.154500
     13 C13         7.4840    0.1430    2.4850 ca        1 MOK     -0.140000
     14 C14         7.3310   -0.5080    1.2610 ca        1 MOK     -0.154500
     15 C15         6.0840   -0.5480    0.6400 ca        1 MOK     -0.101500
     16 H1         -0.3890   -0.5020    0.9580 hc        1 MOK      0.056033
     17 H2         -0.4070    0.7990   -0.3280 hc        1 MOK      0.056033
     18 H3         -0.2310   -0.9410   -0.8120 hc        1 MOK      0.056033
     19 H5          4.2470    1.1780    2.9610 ha        1 MOK      0.173500
     20 H6          6.4950    1.2590    4.0550 ha        1 MOK      0.117500
     21 H7          8.4670    0.1730    2.9740 ha        1 MOK      0.110000
     22 H8          8.1940   -0.9930    0.7850 ha        1 MOK      0.117500
     23 H9          5.9730   -1.0660   -0.3240 ha        1 MOK      0.173500
@<TRIPOS>BOND
     1    1    2 1   
     2    1   16 1   
     3    1   17 1   
     4    1   18 1   
     5    2    3 2   
     6    2    9 1   
     7    3    4 1   
     8    3    7 1   
     9    4    5 1   
    10    4    6 1   
    11    7    8 2   
    12    7   10 1   
    13    8    9 1   
    14   10   11 ar  
    15   10   15 ar  
    16   11   12 ar  
    17   11   19 1   
    18   12   13 ar  
    19   12   20 1   
    20   13   14 ar  
    21   13   21 1   
    22   14   15 ar  
    23   14   22 1   
    24   15   23 1   
@<TRIPOS>SUBSTRUCTURE
     1 MOK         1 TEMP              0 ****  ****    0 ROOT
