@<TRIPOS>MOLECULE
MOK
   23    24     1     0     0
SMALL
bcc


@<TRIPOS>ATOM
      1 C1          3.8200    0.5590    0.0390 c3        1 MOK     -0.129400
      2 C2          2.3730    0.7250   -0.0710 cc        1 MOK      0.233000
      3 C3          1.2950   -0.1360    0.0390 cd        1 MOK     -0.301200
      4 C4          1.4250   -1.6150    0.3040 c         1 MOK      0.936200
      5 O5          0.8290   -2.4300   -0.4540 o         1 MOK     -0.821800
      6 O6          2.1830   -1.9610    1.2540 o         1 MOK     -0.821800
      7 C7          0.1300    0.7400   -0.1460 cd        1 MOK      0.379800
      8 N8          0.5660    2.0090   -0.3580 nc        1 MOK     -0.414300
      9 O9          1.8780    2.0330   -0.3260 os        1 MOK     -0.154100
     10 C10        -1.2820    0.3840   -0.0970 ca        1 MOK     -0.112500
     11 C11        -1.7190   -0.8680   -0.5540 ca        1 MOK     -0.101500
     12 C12        -3.0760   -1.1880   -0.5150 ca        1 MOK     -0.154500
     13 C13        -4.0060   -0.2730   -0.0240 ca        1 MOK     -0.140000
     14 C14        -3.5750    0.9710    0.4350 ca        1 MOK     -0.154500
     15 C15        -2.2220    1.3010    0.4000 ca        1 MOK     -0.101500
     16 H1          4.2640    1.3670    0.6710 hc        1 MOK      0.055700
     17 H2          4.0190   -0.4400    0.5100 hc        1 MOK      0.055700
     18 H3          4.2980    0.5960   -0.9720 hc        1 MOK      0.055700
     19 H5         -0.9730   -1.6040   -0.9200 ha        1 MOK      0.173500
     20 H6         -3.4070   -2.1740   -0.8700 ha        1 MOK      0.117500
     21 H7         -5.0730   -0.5310    0.0050 ha        1 MOK      0.110000
     22 H8         -4.3030    1.6950    0.8270 ha        1 MOK      0.117500
     23 H9         -1.8920    2.2840    0.7660 ha        1 MOK      0.173500
@<TRIPOS>BOND
     1    1    2 1   
     2    1   16 1   
     3    1   17 1   
     4    1   18 1   
     5    2    3 2   
     6    2    9 1   
     7    3    4 1   
     8    3    7 1   
     9    4    5 1   
    10    4    6 1   
    11    7    8 2   
    12    7   10 1   
    13    8    9 1   
    14   10   11 ar  
    15   10   15 ar  
    16   11   12 ar  
    17   11   19 1   
    18   12   13 ar  
    19   12   20 1   
    20   13   14 ar  
    21   13   21 1   
    22   14   15 ar  
    23   14   22 1   
    24   15   23 1   
@<TRIPOS>SUBSTRUCTURE
     1 MOK         1 TEMP              0 ****  ****    0 ROOT
