@<TRIPOS>MOLECULE
MOL
   39    41     1     0     0
SMALL
bcc


@<TRIPOS>ATOM
      1 C1         -0.6880   -0.5410    2.2240 ca        1 MOL     -0.094300
      2 C2         -1.1270   -0.0430    3.4580 ca        1 MOL     -0.120000
      3 C3         -0.3500   -0.2150    4.6020 ca        1 MOL     -0.131000
      4 C4          0.8700   -0.8870    4.5270 ca        1 MOL     -0.126000
      5 C5          1.3110   -1.3890    3.3020 ca        1 MOL     -0.131000
      6 C6          0.5360   -1.2180    2.1560 ca        1 MOL     -0.120000
      7 N1         -1.5080    2.0790    1.1010 n3        1 MOL     -0.889800
      8 N2          0.3410    0.1170   -1.5040 n         1 MOL     -0.343200
      9 N3         -0.6780   -0.6670   -2.0430 n3        1 MOL     -0.437600
     10 C7         -1.5340   -0.3920    1.0090 c3        1 MOL     -0.028100
     11 C8          0.1230    0.9310   -0.3930 c         1 MOL      0.664500
     12 C9         -1.3010    0.9260    0.2320 c3        1 MOL      0.145200
     13 C10        -2.2890    0.9840   -0.9590 c3        1 MOL     -0.081400
     14 C11        -2.0170   -0.0430   -2.0540 c3        1 MOL      0.115800
     15 C12        -0.2480   -1.1050   -3.3970 c3        1 MOL      0.129800
     16 C13         1.1900   -0.6140   -3.6270 c3        1 MOL     -0.095400
     17 C14         1.5020    0.2680   -2.4000 c3        1 MOL     -0.019300
     18 C15         1.8330    1.7030   -2.7840 c         1 MOL      0.546900
     19 O2          2.2090    2.0030   -3.9160 o         1 MOL     -0.523100
     20 H2         -2.0920    0.4830    3.5220 ha        1 MOL      0.138500
     21 H3         -0.7020    0.1800    5.5670 ha        1 MOL      0.131500
     22 H4          1.4820   -1.0220    5.4300 ha        1 MOL      0.131000
     23 H5          2.2720   -1.9180    3.2390 ha        1 MOL      0.131500
     24 H6          0.8870   -1.6120    1.1900 ha        1 MOL      0.138500
     25 HN11       -0.9630    1.9770    1.9370 hn        1 MOL      0.366300
     26 HN12       -1.2270    2.9180    0.6310 hn        1 MOL      0.366300
     27 H71        -2.6180   -0.4170    1.3100 hc        1 MOL      0.070700
     28 H72        -1.3580   -1.2600    0.3230 hc        1 MOL      0.070700
     29 H101       -3.3290    0.8280   -0.5700 hc        1 MOL      0.062200
     30 H102       -2.2520    2.0100   -1.4130 hc        1 MOL      0.062200
     31 H111       -2.7120   -0.9220   -1.9270 h1        1 MOL      0.052200
     32 H112       -2.2610    0.4410   -3.0440 h1        1 MOL      0.052200
     33 H121       -0.2950   -2.2260   -3.3820 h1        1 MOL      0.061700
     34 H122       -0.9280   -0.7320   -4.2100 h1        1 MOL      0.061700
     35 H131        1.9000   -1.4740   -3.6770 hc        1 MOL      0.075200
     36 H132        1.2750   -0.0280   -4.5750 hc        1 MOL      0.075200
     37 H14         2.4050   -0.1200   -1.8430 h1        1 MOL      0.097700
     38 H15         1.7590    2.4510   -1.9630 h4        1 MOL      0.040200
     39 O1          1.0470    1.6370    0.0550 o         1 MOL     -0.648500
@<TRIPOS>BOND
     1    1    2 ar  
     2    1    6 ar  
     3    1   10 1   
     4    2    3 ar  
     5    2   20 1   
     6    3    4 ar  
     7    3   21 1   
     8    4    5 ar  
     9    4   22 1   
    10    5    6 ar  
    11    5   23 1   
    12    6   24 1   
    13    7   12 1   
    14    7   25 1   
    15    7   26 1   
    16    8    9 1   
    17    8   11 1   
    18    8   17 1   
    19    9   14 1   
    20    9   15 1   
    21   10   12 1   
    22   10   27 1   
    23   10   28 1   
    24   11   12 1   
    25   11   39 2   
    26   12   13 1   
    27   13   14 1   
    28   13   29 1   
    29   13   30 1   
    30   14   31 1   
    31   14   32 1   
    32   15   16 1   
    33   15   33 1   
    34   15   34 1   
    35   16   17 1   
    36   16   35 1   
    37   16   36 1   
    38   17   18 1   
    39   17   37 1   
    40   18   19 2   
    41   18   38 1   
@<TRIPOS>SUBSTRUCTURE
     1 MOL         1 TEMP              0 ****  ****    0 ROOT
