@<TRIPOS>MOLECULE
MOL
   40    53     1     0     0
SMALL
bcc


@<TRIPOS>ATOM
      1 C1          0.0000    0.0000    0.0000 c3        1 MOL      0.017000
      2 C2          1.3820    0.0000    0.0000 c3        1 MOL     -0.131000
      3 C3          2.0740    0.0000    1.1950 c3        1 MOL     -0.168000
      4 C4          1.3840    0.0010    2.3930 c3        1 MOL     -0.075000
      5 C5          0.0030    0.0010    2.3940 c3        1 MOL     -0.275000
      6 C6         -0.6900    0.0050    1.1970 c2        1 MOL     -0.239000
      7 N1          0.2700   -2.1390   -1.9240 nz        1 MOL      0.113000
      8 N2         -2.7870   -3.0290   -1.0790 n         1 MOL      0.055000
      9 N3         -3.2780   -3.2580   -2.3310 n3        1 MOL      0.008000
     10 C7         -0.7540    0.0000   -1.3040 c3        1 MOL     -0.145000
     11 C8         -1.8380   -2.1540   -0.7050 c2        1 MOL      0.089000
     12 C9         -1.0090   -1.4420   -1.7460 DU        1 MOL     -0.101000
     13 C10        -1.7890   -1.4470   -3.0660 DU        1 MOL     -0.255000
     14 C11        -2.2940   -2.8670   -3.3290 c3        1 MOL     -0.517000
     15 C12        -3.4520   -4.7280   -2.4420 DU        1 MOL     -0.285000
     16 C13        -3.9680   -5.1190   -1.0350 DU        1 MOL     -0.114000
     17 C14        -3.5110   -3.9310   -0.1580 DU        1 MOL     -0.265000
     18 C15        -2.5930   -4.4110    0.9370 c2        1 MOL      0.042000
     19 O2         -2.8800   -4.2160    2.0940 o         1 MOL     -0.132000
     20 H2          0.4880   -0.5630    0.2420 DU        1 MOL      0.191000
     21 H3          1.9990   -0.0010    0.1150 DU        1 MOL      0.161000
     22 H4          2.2820    0.0250    1.7870 DU        1 MOL      0.181000
     23 H5          0.9760   -0.0000    2.8700 DU        1 MOL      0.170000
     24 H6         -0.6140   -0.0140    2.2780 DU        1 MOL      0.210000
     25 HN11       -0.2060   -1.6410   -1.1980 DU        1 MOL      0.124000
     26 HN12        0.2840   -3.0830   -2.2570 hn        1 MOL      0.056500
     27 H71         0.0460   -0.7100   -1.4720 DU        1 MOL      0.061000
     28 H72        -0.1690    0.5110   -2.0590 hc        1 MOL      0.152000
     29 H101       -1.7560   -0.6680   -2.3140 ha        1 MOL      0.262000
     30 H102       -1.1370   -1.1380   -3.8740 ha        1 MOL      0.262000
     31 H111       -2.4670   -1.8110   -3.1590 DU        1 MOL      0.244000
     32 H112       -2.7490   -2.9050   -4.3110 h1        1 MOL      0.153000
     33 H121       -2.5750   -4.2140   -2.8150 ha        1 MOL      0.300000
     34 H122       -2.5050   -5.2100   -2.6490 ha        1 MOL      0.300000
     35 H131       -4.0790   -5.0450   -2.1100 DU        1 MOL      0.206000
     36 H132       -3.4010   -5.9860   -0.7180 ha        1 MOL      0.128000
     37 H14        -4.2940   -4.5180   -0.6220 DU        1 MOL      0.205000
     38 H15        -3.4920   -3.9120    0.5970 DU        1 MOL      0.187000
     39 H13        -0.1470   -2.7450   -1.2450 hn        1 MOL      0.056500
     40 O1         -1.6460   -1.9370    0.4720 o         1 MOL     -0.233000
@<TRIPOS>BOND
     1    1    2 1   
     2    1    6 1   
     3    1   10 1   
     4    1   20 1   
     5    2    3 1   
     6    2   20 1   
     7    2   21 1   
     8    3    4 1   
     9    3   21 1   
    10    3   22 1   
    11    4    5 1   
    12    4   22 1   
    13    4   23 1   
    14    5    6 1   
    15    5   23 1   
    16    5   24 1   
    17    6   24 1   
    18    7   12 1   
    19    7   25 1   
    20    7   26 1   
    21    7   39 1   
    22    8    9 1   
    23    8   11 1   
    24    8   17 1   
    25    9   14 1   
    26    9   15 1   
    27   10   12 1   
    28   10   27 1   
    29   10   28 1   
    30   11   12 1   
    31   11   40 1   
    32   12   13 1   
    33   12   25 1   
    34   12   27 1   
    35   13   14 1   
    36   13   29 1   
    37   13   30 1   
    38   13   31 1   
    39   14   31 1   
    40   14   32 1   
    41   15   16 1   
    42   15   33 1   
    43   15   34 1   
    44   15   35 1   
    45   16   17 1   
    46   16   35 1   
    47   16   36 1   
    48   16   37 1   
    49   17   18 1   
    50   17   37 1   
    51   17   38 1   
    52   18   19 1   
    53   18   38 1   
@<TRIPOS>SUBSTRUCTURE
     1 MOL         1 TEMP              0 ****  ****    0 ROOT
