@<TRIPOS>MOLECULE
MOL
   39    41     1     0     0
SMALL
bcc


@<TRIPOS>ATOM
      1 C1          0.1770    0.0900    1.1270 c3        1 MOL     -0.166000
      2 C2          0.9330    0.7530    2.2200 c2        1 MOL     -0.087000
      3 C3          0.5950    0.5700    3.5170 c2        1 MOL     -0.206000
      4 C4         -0.5420   -0.2370    3.8650 c2        1 MOL      0.001000
      5 C5         -1.2980   -0.8340    2.8960 c2        1 MOL     -0.242000
      6 C6         -0.9980   -0.6930    1.5190 c1        1 MOL     -0.110000
      7 N1         -1.0650   -3.1970   -5.4710 n3        1 MOL     -0.297000
      8 N2         -2.4070   -2.6320   -1.9650 n3        1 MOL     -0.035000
      9 N3         -3.3730   -3.6460   -1.9090 n3        1 MOL     -0.152000
     10 C7         -0.1650    1.0720    0.0170 c3        1 MOL     -0.167000
     11 C8         -1.4950   -2.7150   -3.1070 c2        1 MOL     -0.095000
     12 C9         -1.8990   -3.0730   -4.3590 c2        1 MOL     -0.028000
     13 C10        -3.3520   -3.4580   -4.4480 c3        1 MOL     -0.117000
     14 C11        -3.7420   -4.2600   -3.1990 c3        1 MOL     -0.094000
     15 C12        -2.9840   -4.6540   -0.8820 c3        1 MOL     -0.118000
     16 C13        -1.7760   -4.0970   -0.1040 c3        1 MOL     -0.163000
     17 C14        -1.4830   -2.7480   -0.7750 c3        1 MOL     -0.136000
     18 C15        -0.0860   -2.6070   -1.3480 c2        1 MOL      0.307000
     19 O2          1.0320   -2.5160   -0.8610 o         1 MOL     -0.301000
     20 H2          0.8680   -0.7110    0.6790 hc        1 MOL      0.194000
     21 H3          1.7830    1.3880    1.9260 ha        1 MOL      0.135000
     22 H4          1.1660    1.0380    4.3330 ha        1 MOL      0.137000
     23 H5         -0.7800   -0.3490    4.9360 ha        1 MOL      0.131000
     24 H6         -2.1800   -1.4370    3.1640 ha        1 MOL      0.144000
     25 HN11       -0.1420   -2.8520   -5.3070 hn        1 MOL      0.181000
     26 HN12       -1.4710   -2.8100   -6.2970 hn        1 MOL      0.181000
     27 H71         0.7690    1.5180   -0.3980 hc        1 MOL      0.085333
     28 H72        -0.8130    1.8910    0.4090 hc        1 MOL      0.085333
     29 H101       -0.7130    0.5400   -0.7980 hc        1 MOL      0.085333
     30 H102       -3.9780   -2.5300   -4.5180 hc        1 MOL      0.108000
     31 H111       -3.5540   -4.0880   -5.3520 hc        1 MOL      0.108000
     32 H112       -4.8640   -4.3470   -3.1610 h1        1 MOL      0.091500
     33 H121       -3.3130   -5.2980   -3.3070 h1        1 MOL      0.091500
     34 H122       -3.8740   -4.7690   -0.2090 h1        1 MOL      0.095000
     35 H131       -2.7370   -5.6590   -1.3190 h1        1 MOL      0.095000
     36 H132       -0.9010   -4.7870   -0.1680 hc        1 MOL      0.106000
     37 H14        -2.0310   -3.9450    0.9720 hc        1 MOL      0.106000
     38 H15        -1.6760   -1.8710   -0.0630 h1        1 MOL      0.240000
     39 O1         -0.1510   -2.5100   -2.7430 os        1 MOL     -0.196000
@<TRIPOS>BOND
     1    1    2 1   
     2    1    6 1   
     3    1   10 1   
     4    1   20 1   
     5    2    3 1   
     6    2   21 1   
     7    3    4 1   
     8    3   22 1   
     9    4    5 1   
    10    4   23 1   
    11    5    6 1   
    12    5   24 1   
    13    7   12 1   
    14    7   25 1   
    15    7   26 1   
    16    8    9 1   
    17    8   11 1   
    18    8   17 1   
    19    9   14 1   
    20    9   15 1   
    21   10   27 1   
    22   10   28 1   
    23   10   29 1   
    24   11   12 1   
    25   11   39 1   
    26   12   13 1   
    27   13   14 1   
    28   13   30 1   
    29   13   31 1   
    30   14   32 1   
    31   14   33 1   
    32   15   16 1   
    33   15   34 1   
    34   15   35 1   
    35   16   17 1   
    36   16   36 1   
    37   16   37 1   
    38   17   18 1   
    39   17   38 1   
    40   18   19 1   
    41   18   39 1   
@<TRIPOS>SUBSTRUCTURE
     1 MOL         1 TEMP              0 ****  ****    0 ROOT
