@<TRIPOS>MOLECULE
MON
   62    65     1     0     0
SMALL
bcc


@<TRIPOS>ATOM
      1 C1         -1.0370   -0.0680   -4.2170 ca        1 MON      0.924900
      2 N2         -1.6730   -0.0430   -5.4770 nh        1 MON     -0.728300
      3 N3          0.3480   -0.0260   -4.1820 nb        1 MON     -0.847000
      4 N4         -1.8410   -0.0710   -3.0760 nb        1 MON     -0.798000
      5 C5         -3.0640   -0.4660   -5.5360 c3        1 MON      0.203300
      6 C6         -0.8710   -0.3710   -6.6450 c3        1 MON      0.203300
      7 C7          0.9100    0.0900   -2.9180 ca        1 MON      0.928900
      8 C8         -1.1690    0.0180   -1.8930 ca        1 MON      0.799300
      9 C9         -3.7320   -0.1680   -6.8940 c3        1 MON      0.152300
     10 C10        -1.5880   -0.0740   -7.9780 c3        1 MON      0.152300
     11 N11         0.1830    0.1000   -1.7320 nb        1 MON     -0.834000
     12 N12         2.2960    0.2530   -2.8650 nh        1 MON     -0.843900
     13 S13        -2.1770    0.0150   -0.4920 ss        1 MON     -0.206400
     14 N14        -2.9370   -0.5970   -8.0250 n3        1 MON     -0.819200
     15 C15         3.0100    0.0680   -1.6250 c3        1 MON      0.213800
     16 C16        -1.0670    0.1410    0.8800 c3        1 MON     -0.038300
     17 C17         4.5310    0.1530   -1.8090 c3        1 MON     -0.045100
     18 C18        -1.9440    0.1480    2.1080 c3        1 MON     -0.074400
     19 C19         5.2140   -0.0490   -0.5030 ca        1 MON     -0.120300
     20 C20        -1.0990    0.2580    3.3650 c3        1 MON     -0.033100
     21 C21         5.3410   -1.3380    0.0320 ca        1 MON     -0.087500
     22 C22         5.7440    1.0400    0.1950 ca        1 MON     -0.087500
     23 C23        -1.9400    0.2310    4.5930 ca        1 MON     -0.079300
     24 C24         5.9860   -1.5460    1.2450 ca        1 MON     -0.183500
     25 C25         6.3950    0.8540    1.4130 ca        1 MON     -0.183500
     26 C26        -2.5150   -0.9700    5.0250 ca        1 MON     -0.118500
     27 C27        -2.1570    1.3990    5.3320 ca        1 MON     -0.118500
     28 C28         6.5140   -0.4410    1.9350 ca        1 MON      0.126100
     29 C29        -3.2960   -1.0090    6.1770 ca        1 MON     -0.122000
     30 C30        -2.9360    1.3720    6.4870 ca        1 MON     -0.122000
     31 O31         7.1420   -0.7070    3.1290 oh        1 MON     -0.496100
     32 C32        -3.5050    0.1660    6.9070 ca        1 MON      0.015400
     33 CL33       -4.4570    0.1270    8.3160 cl        1 MON     -0.096400
     34 H51        -3.1420   -1.5710   -5.3250 h1        1 MON      0.061950
     35 H52        -3.6560    0.0880   -4.7540 h1        1 MON      0.061950
     36 H61         0.0690    0.2510   -6.6370 h1        1 MON      0.061950
     37 H62        -0.5770   -1.4590   -6.6220 h1        1 MON      0.061950
     38 H91        -4.7050   -0.7340   -6.9210 h1        1 MON      0.038700
     39 H92        -3.9730    0.9350   -6.9360 h1        1 MON      0.038700
     40 H101       -0.9960   -0.5710   -8.7970 h1        1 MON      0.038700
     41 H102       -1.5560    1.0410   -8.1570 h1        1 MON      0.038700
     42 H12         2.7970    0.0590   -3.7040 hn        1 MON      0.436800
     43 H14        -3.3820   -0.3330   -8.8840 hn        1 MON      0.366800
     44 H151        2.7590   -0.9310   -1.1630 h1        1 MON      0.056700
     45 H152        2.6820    0.8690   -0.9030 h1        1 MON      0.056700
     46 H161       -0.3560   -0.7190    0.9040 h1        1 MON      0.080200
     47 H162       -0.4590    1.0770    0.8220 h1        1 MON      0.080200
     48 H171        4.8070    1.1520   -2.2390 hc        1 MON      0.054200
     49 H172        4.8750   -0.6330   -2.5350 hc        1 MON      0.054200
     50 H181       -2.6620    1.0100    2.0630 hc        1 MON      0.059200
     51 H182       -2.5540   -0.7950    2.1510 hc        1 MON      0.059200
     52 H201       -0.5000    1.2070    3.3280 hc        1 MON      0.053200
     53 H202       -0.3680   -0.5950    3.3970 hc        1 MON      0.053200
     54 H21         4.9250   -2.1970   -0.5160 ha        1 MON      0.136000
     55 H22         5.6490    2.0560   -0.2180 ha        1 MON      0.136000
     56 H24         6.0910   -2.5540    1.6720 ha        1 MON      0.143500
     57 H25         6.8110    1.7120    1.9580 ha        1 MON      0.143500
     58 H26        -2.3480   -1.8930    4.4480 ha        1 MON      0.137500
     59 H27        -1.7090    2.3480    5.0020 ha        1 MON      0.137500
     60 H29        -3.7450   -1.9570    6.5100 ha        1 MON      0.147000
     61 H30        -3.1020    2.2960    7.0620 ha        1 MON      0.147000
     62 H31         7.4570    0.1320    3.4950 ho        1 MON      0.420000
@<TRIPOS>BOND
     1    1    2 1   
     2    1    3 ar  
     3    1    4 ar  
     4    2    5 1   
     5    2    6 1   
     6    3    7 ar  
     7    4    8 ar  
     8    5    9 1   
     9    5   34 1   
    10    5   35 1   
    11    6   10 1   
    12    6   36 1   
    13    6   37 1   
    14    7   11 ar  
    15    7   12 1   
    16    8   11 ar  
    17    8   13 1   
    18    9   14 1   
    19    9   38 1   
    20    9   39 1   
    21   10   14 1   
    22   10   40 1   
    23   10   41 1   
    24   12   15 1   
    25   12   42 1   
    26   13   16 1   
    27   14   43 1   
    28   15   17 1   
    29   15   44 1   
    30   15   45 1   
    31   16   18 1   
    32   16   46 1   
    33   16   47 1   
    34   17   19 1   
    35   17   48 1   
    36   17   49 1   
    37   18   20 1   
    38   18   50 1   
    39   18   51 1   
    40   19   21 ar  
    41   19   22 ar  
    42   20   23 1   
    43   20   52 1   
    44   20   53 1   
    45   21   24 ar  
    46   21   54 1   
    47   22   25 ar  
    48   22   55 1   
    49   23   26 ar  
    50   23   27 ar  
    51   24   28 ar  
    52   24   56 1   
    53   25   28 ar  
    54   25   57 1   
    55   26   29 ar  
    56   26   58 1   
    57   27   30 ar  
    58   27   59 1   
    59   28   31 1   
    60   29   32 ar  
    61   29   60 1   
    62   30   32 ar  
    63   30   61 1   
    64   31   62 1   
    65   32   33 1   
@<TRIPOS>SUBSTRUCTURE
     1 MON         1 TEMP              0 ****  ****    0 ROOT
