@<TRIPOS>MOLECULE
MON
   62    65     1     0     0
SMALL
bcc


@<TRIPOS>ATOM
      1 C1         -0.0680   -0.4060    0.2860 ca        1 MON      0.924900
      2 N2         -0.8730   -0.4590   -0.8730 nh        1 MON     -0.728300
      3 N3          1.3060   -0.3280    0.1250 nb        1 MON     -0.847000
      4 N4         -0.7060   -0.3720    1.5270 nb        1 MON     -0.798000
      5 C5         -2.2440   -0.9190   -0.7180 c3        1 MON      0.203300
      6 C6         -0.2300   -0.8230   -2.1250 c3        1 MON      0.203300
      7 C7          2.0340   -0.1350    1.2910 ca        1 MON      0.928900
      8 C8          0.1200   -0.2070    2.5990 ca        1 MON      0.799300
      9 C9         -3.1040   -0.7050   -1.9810 c3        1 MON      0.152300
     10 C10        -1.1340   -0.6110   -3.3570 c3        1 MON      0.152300
     11 N11         1.4780   -0.0850    2.5660 nb        1 MON     -0.834000
     12 N12         3.4080    0.0660    1.1430 nu        1 MON     -0.843900
     13 S13        -0.6830   -0.1660    4.1260 ss        1 MON     -0.206400
     14 N14        -2.4590   -1.1690   -3.1910 n7        1 MON     -0.819200
     15 C15         4.2930   -0.0410    2.2770 c3        1 MON      0.213800
     16 C16         0.6010    0.0570    5.3220 c3        1 MON     -0.038300
     17 C17         5.7700    0.0730    1.8790 c3        1 MON     -0.045100
     18 C18        -0.0970    0.1030    6.6590 c3        1 MON     -0.074400
     19 C19         6.6330   -0.0480    3.0840 ca        1 MON     -0.120300
     20 C20         0.9100    0.3010    7.7790 c3        1 MON     -0.033100
     21 C21         6.8750   -1.3060    3.6530 ca        1 MON     -0.087500
     22 C22         7.2200    1.0870    3.6530 ca        1 MON     -0.087500
     23 C23         0.2480    0.3150    9.1120 ca        1 MON     -0.079300
     24 C24         7.6880   -1.4390    4.7720 ca        1 MON     -0.183500
     25 C25         8.0380    0.9760    4.7740 ca        1 MON     -0.183500
     26 C26        -0.2170   -0.8780    9.6780 ca        1 MON     -0.118500
     27 C27         0.0930    1.5130    9.8170 ca        1 MON     -0.118500
     28 C28         8.2700   -0.2880    5.3320 ca        1 MON      0.126100
     29 C29        -0.8300   -0.8780   10.9290 ca        1 MON     -0.122000
     30 C30        -0.5180    1.5250   11.0690 ca        1 MON     -0.122000
     31 O31         9.0660   -0.4800    6.4370 oh        1 MON     -0.496100
     32 C32        -0.9790    0.3270   11.6230 ca        1 MON      0.015400
     33 Cl33       -1.7250    0.3340   13.1510 cl        1 MON     -0.096400
     34 H51        -2.2580   -2.0140   -0.4480 h1        1 MON      0.062200
     35 H52        -2.7400   -0.3420    0.1140 h1        1 MON      0.062200
     36 H61         0.6820   -0.1790   -2.2770 h1        1 MON      0.062200
     37 H62         0.0980   -1.9020   -2.0940 h1        1 MON      0.062200
     38 H91        -3.3820    0.3890   -2.0380 h1        1 MON      0.038700
     39 H92        -4.0530   -1.2960   -1.8460 h1        1 MON      0.038700
     40 H101       -1.1620    0.4950   -3.5890 h1        1 MON      0.038700
     41 H102       -0.6460   -1.1330   -4.2270 h1        1 MON      0.038700
     42 H12         3.7940   -0.1580    0.2510 hn        1 MON      0.436800
     43 H14        -3.0280   -0.9580   -3.9900 hn        1 MON      0.366800
     44 H151        4.0420    0.7860    3.0010 h1        1 MON      0.056700
     45 H152        4.1400   -1.0220    2.8150 h1        1 MON      0.056700
     46 H161        1.1650    1.0030    5.1360 h1        1 MON      0.080200
     47 H162        1.3360   -0.7830    5.2860 h1        1 MON      0.080200
     48 H171        5.9530    1.0560    1.3700 hc        1 MON      0.054200
     49 H172        6.0350   -0.7390    1.1480 hc        1 MON      0.054200
     50 H181       -0.6620   -0.8520    6.8320 hc        1 MON      0.059200
     51 H182       -0.8430    0.9420    6.6740 hc        1 MON      0.059200
     52 H201        1.6670   -0.5290    7.7480 hc        1 MON      0.053200
     53 H202        1.4650    1.2630    7.6130 hc        1 MON      0.053200
     54 H21         6.4150   -2.2010    3.2070 ha        1 MON      0.136000
     55 H22         7.0350    2.0790    3.2120 ha        1 MON      0.136000
     56 H24         7.8840   -2.4210    5.2240 ha        1 MON      0.143500
     57 H25         8.4980    1.8710    5.2170 ha        1 MON      0.143500
     58 H26        -0.0980   -1.8250    9.1290 ha        1 MON      0.137500
     59 H27         0.4560    2.4570    9.3820 ha        1 MON      0.137500
     60 H29        -1.1930   -1.8210   11.3660 ha        1 MON      0.147000
     61 H30        -0.6360    2.4720   11.6160 ha        1 MON      0.147000
     62 H31         9.4010    0.3840    6.7180 ho        1 MON      0.420000
@<TRIPOS>BOND
     1    1    2 1   
     2    1    3 ar  
     3    1    4 ar  
     4    2    5 1   
     5    2    6 1   
     6    3    7 ar  
     7    4    8 ar  
     8    5    9 1   
     9    5   34 1   
    10    5   35 1   
    11    6   10 1   
    12    6   36 1   
    13    6   37 1   
    14    7   11 ar  
    15    7   12 1   
    16    8   11 ar  
    17    8   13 1   
    18    9   14 1   
    19    9   38 1   
    20    9   39 1   
    21   10   14 1   
    22   10   40 1   
    23   10   41 1   
    24   12   15 1   
    25   12   42 1   
    26   13   16 1   
    27   14   43 1   
    28   15   17 1   
    29   15   44 1   
    30   15   45 1   
    31   16   18 1   
    32   16   46 1   
    33   16   47 1   
    34   17   19 1   
    35   17   48 1   
    36   17   49 1   
    37   18   20 1   
    38   18   50 1   
    39   18   51 1   
    40   19   21 ar  
    41   19   22 ar  
    42   20   23 1   
    43   20   52 1   
    44   20   53 1   
    45   21   24 ar  
    46   21   54 1   
    47   22   25 ar  
    48   22   55 1   
    49   23   26 ar  
    50   23   27 ar  
    51   24   28 ar  
    52   24   56 1   
    53   25   28 ar  
    54   25   57 1   
    55   26   29 ar  
    56   26   58 1   
    57   27   30 ar  
    58   27   59 1   
    59   28   31 1   
    60   29   32 ar  
    61   29   60 1   
    62   30   32 ar  
    63   30   61 1   
    64   31   62 1   
    65   32   33 1   
@<TRIPOS>SUBSTRUCTURE
     1 MON         1 TEMP              0 ****  ****    0 ROOT
