@<TRIPOS>MOLECULE
MON
   62    65     1     0     0
SMALL
bcc


@<TRIPOS>ATOM
      1 C1         -0.0700   -0.4040    0.2870 ca        1 MON      0.924900
      2 N2         -0.8760   -0.4570   -0.8710 nh        1 MON     -0.728300
      3 N3          1.3040   -0.3320    0.1260 nb        1 MON     -0.847000
      4 N4         -0.7070   -0.3640    1.5280 nb        1 MON     -0.798000
      5 C5         -2.2490   -0.9110   -0.7140 c3        1 MON      0.203300
      6 C6         -0.2350   -0.8270   -2.1230 c3        1 MON      0.203300
      7 C7          2.0340   -0.1400    1.2910 ca        1 MON      0.928900
      8 C8          0.1190   -0.2010    2.5990 ca        1 MON      0.799300
      9 C9         -3.1080   -0.6970   -1.9780 c3        1 MON      0.152300
     10 C10        -1.1390   -0.6140   -3.3550 c3        1 MON      0.152300
     11 N11         1.4780   -0.0840    2.5660 nb        1 MON     -0.834000
     12 N12         3.4080    0.0550    1.1410 nh        1 MON     -0.842900
     13 S13        -0.6830   -0.1520    4.1270 ss        1 MON     -0.206400
     14 N14        -2.4660   -1.1670   -3.1870 n3        1 MON     -0.819200
     15 C15         4.2930   -0.0540    2.2760 c3        1 MON      0.213800
     16 C16         0.6030    0.0680    5.3220 c3        1 MON     -0.038300
     17 C17         5.7700    0.0520    1.8770 c3        1 MON     -0.045100
     18 C18        -0.0950    0.1200    6.6590 c3        1 MON     -0.074400
     19 C19         6.6330   -0.0710    3.0820 ca        1 MON     -0.120300
     20 C20         0.9140    0.3140    7.7780 c3        1 MON     -0.033100
     21 C21         6.8700   -1.3290    3.6520 ca        1 MON     -0.087500
     22 C22         7.2250    1.0620    3.6500 ca        1 MON     -0.087500
     23 C23         0.2530    0.3330    9.1110 ca        1 MON     -0.079300
     24 C24         7.6820   -1.4640    4.7710 ca        1 MON     -0.183500
     25 C25         8.0430    0.9490    4.7710 ca        1 MON     -0.183500
     26 C26        -0.2210   -0.8570    9.6790 ca        1 MON     -0.118500
     27 C27         0.1060    1.5330    9.8150 ca        1 MON     -0.118500
     28 C28         8.2690   -0.3160    5.3290 ca        1 MON      0.126100
     29 C29        -0.8330   -0.8510   10.9300 ca        1 MON     -0.122000
     30 C30        -0.5050    1.5500   11.0680 ca        1 MON     -0.122000
     31 O31         9.0640   -0.5100    6.4350 oh        1 MON     -0.496100
     32 C32        -0.9730    0.3550   11.6230 ca        1 MON      0.015400
     33 CL33       -1.7180    0.3690   13.1510 cl        1 MON     -0.096400
     34 H51        -2.2670   -2.0050   -0.4410 h1        1 MON      0.061950
     35 H52        -2.7420   -0.3300    0.1160 h1        1 MON      0.061950
     36 H61         0.6790   -0.1860   -2.2760 h1        1 MON      0.061950
     37 H62         0.0890   -1.9070   -2.0890 h1        1 MON      0.061950
     38 H91        -4.0590   -1.2840   -1.8410 h1        1 MON      0.038700
     39 H92        -3.3820    0.3980   -2.0380 h1        1 MON      0.038700
     40 H101       -0.6530   -1.1410   -4.2240 h1        1 MON      0.038700
     41 H102       -1.1630    0.4900   -3.5900 h1        1 MON      0.038700
     42 H12         3.7930   -0.1720    0.2500 hn        1 MON      0.436800
     43 H14        -3.0340   -0.9560   -3.9860 hn        1 MON      0.366800
     44 H151        4.0460    0.7760    2.9980 h1        1 MON      0.056700
     45 H152        4.1350   -1.0330    2.8160 h1        1 MON      0.056700
     46 H161        1.3340   -0.7750    5.2880 h1        1 MON      0.080200
     47 H162        1.1710    1.0110    5.1340 h1        1 MON      0.080200
     48 H171        6.0310   -0.7610    1.1470 hc        1 MON      0.054200
     49 H172        5.9570    1.0340    1.3660 hc        1 MON      0.054200
     50 H181       -0.6650   -0.8320    6.8330 hc        1 MON      0.059200
     51 H182       -0.8360    0.9630    6.6730 hc        1 MON      0.059200
     52 H201        1.4740    1.2720    7.6110 hc        1 MON      0.053200
     53 H202        1.6670   -0.5200    7.7480 hc        1 MON      0.053200
     54 H21         6.4060   -2.2230    3.2070 ha        1 MON      0.136000
     55 H22         7.0450    2.0540    3.2080 ha        1 MON      0.136000
     56 H24         7.8740   -2.4470    5.2240 ha        1 MON      0.143500
     57 H25         8.5060    1.8420    5.2130 ha        1 MON      0.143500
     58 H26        -0.1080   -1.8040    9.1300 ha        1 MON      0.137500
     59 H27         0.4750    2.4740    9.3800 ha        1 MON      0.137500
     60 H29        -1.2020   -1.7910   11.3680 ha        1 MON      0.147000
     61 H30        -0.6160    2.4980   11.6150 ha        1 MON      0.147000
     62 H31         9.4030    0.3530    6.7150 ho        1 MON      0.420000
@<TRIPOS>BOND
     1    1    2 1   
     2    1    3 ar  
     3    1    4 ar  
     4    2    5 1   
     5    2    6 1   
     6    3    7 ar  
     7    4    8 ar  
     8    5    9 1   
     9    5   34 1   
    10    5   35 1   
    11    6   10 1   
    12    6   36 1   
    13    6   37 1   
    14    7   11 ar  
    15    7   12 1   
    16    8   11 ar  
    17    8   13 1   
    18    9   14 1   
    19    9   38 1   
    20    9   39 1   
    21   10   14 1   
    22   10   40 1   
    23   10   41 1   
    24   12   15 1   
    25   12   42 1   
    26   13   16 1   
    27   14   43 1   
    28   15   17 1   
    29   15   44 1   
    30   15   45 1   
    31   16   18 1   
    32   16   46 1   
    33   16   47 1   
    34   17   19 1   
    35   17   48 1   
    36   17   49 1   
    37   18   20 1   
    38   18   50 1   
    39   18   51 1   
    40   19   21 ar  
    41   19   22 ar  
    42   20   23 1   
    43   20   52 1   
    44   20   53 1   
    45   21   24 ar  
    46   21   54 1   
    47   22   25 ar  
    48   22   55 1   
    49   23   26 ar  
    50   23   27 ar  
    51   24   28 ar  
    52   24   56 1   
    53   25   28 ar  
    54   25   57 1   
    55   26   29 ar  
    56   26   58 1   
    57   27   30 ar  
    58   27   59 1   
    59   28   31 1   
    60   29   32 ar  
    61   29   60 1   
    62   30   32 ar  
    63   30   61 1   
    64   31   62 1   
    65   32   33 1   
@<TRIPOS>SUBSTRUCTURE
     1 MON         1 TEMP              0 ****  ****    0 ROOT
