@<TRIPOS>MOLECULE
MON
   63    66     1     0     0
SMALL
bcc


@<TRIPOS>ATOM
      1 C1          0.2780   -0.4130    0.8320 ca        1 MON      0.944900
      2 N2         -0.3070   -0.8890   -0.3240 nh        1 MON     -0.700300
      3 N3          1.5700    0.1620    0.7480 nb        1 MON     -0.810000
      4 N4         -0.4350   -0.4750    2.0340 nb        1 MON     -0.753000
      5 C5         -1.5350   -1.6700   -0.2320 c3        1 MON      0.203800
      6 C6          0.4830   -1.0120   -1.5410 c3        1 MON      0.203800
      7 C7          2.0190    0.6750    1.9210 ca        1 MON      0.802900
      8 C8          0.1510    0.0830    3.1260 ca        1 MON      0.783300
      9 C9         -2.2990   -1.7920   -1.5660 c3        1 MON      0.152300
     10 C10        -0.3630   -1.1570   -2.8230 c3        1 MON      0.152300
     11 N11         1.4030    0.6870    3.1380 nb        1 MON     -0.810000
     12 N12         3.3840    1.3000    1.8700 n4        1 MON     -0.752700
     13 S13        -0.7490    0.0080    4.5680 ss        1 MON     -0.073400
     14 N14        -1.4310   -2.1190   -2.6750 n3        1 MON     -0.823200
     15 C15         4.4380    0.2790    2.1680 c3        1 MON      0.106800
     16 C16         0.2360    0.7850    5.8090 c3        1 MON     -0.060300
     17 C17         5.8460    0.8750    2.1180 c3        1 MON     -0.041100
     18 C18        -0.6010    0.6940    7.0640 c3        1 MON     -0.081400
     19 C19         6.8320   -0.2040    2.3870 ca        1 MON     -0.170300
     20 C20         0.1240    1.3360    8.2350 c3        1 MON     -0.024100
     21 C21         7.2030   -1.0860    1.3610 ca        1 MON     -0.076000
     22 C22         7.4170   -0.3290    3.6520 ca        1 MON     -0.076000
     23 C23        -0.6760    1.2300    9.4860 ca        1 MON     -0.097300
     24 C24         8.1370   -2.0860    1.5890 ca        1 MON     -0.180500
     25 C25         8.3570   -1.3240    3.9000 ca        1 MON     -0.180500
     26 C26        -0.7390    0.0150   10.1780 ca        1 MON     -0.116000
     27 C27        -1.3600    2.3420    9.9870 ca        1 MON     -0.116000
     28 C28         8.7160   -2.2040    2.8670 ca        1 MON      0.160100
     29 C29        -1.4770   -0.0920   11.3540 ca        1 MON     -0.119000
     30 C30        -2.1010    2.2470   11.1630 ca        1 MON     -0.119000
     31 O31         9.6280   -3.2120    3.0290 oh        1 MON     -0.478100
     32 C32        -2.1590    1.0270   11.8450 ca        1 MON      0.022400
     33 CL33       -3.0600    0.9030   13.2780 cl        1 MON     -0.075400
     34 H51        -1.2740   -2.7020    0.1420 h1        1 MON      0.073450
     35 H52        -2.2410   -1.1880    0.5040 h1        1 MON      0.073450
     36 H61         1.1590   -1.9110   -1.4420 h1        1 MON      0.073450
     37 H62         1.1210   -0.0940   -1.6780 h1        1 MON      0.073450
     38 H91        -3.0460   -2.6270   -1.4450 h1        1 MON      0.053450
     39 H92        -2.8720   -0.8330   -1.7360 h1        1 MON      0.053450
     40 H101        0.3260   -1.5170   -3.6380 h1        1 MON      0.053450
     41 H102       -0.7420   -0.1320   -3.1150 h1        1 MON      0.053450
     42 H12         3.5410    1.6960    0.9340 hn        1 MON      0.466800
     43 H14        -1.9520   -2.2140   -3.5260 hn        1 MON      0.390800
     44 H151        4.2310   -0.1430    3.1930 hx        1 MON      0.117700
     45 H152        4.3440   -0.5490    1.4080 hx        1 MON      0.117700
     46 H161        0.4530    1.8510    5.5570 h1        1 MON      0.082200
     47 H162        1.2140    0.2630    5.9480 h1        1 MON      0.082200
     48 H171        5.9490    1.6930    2.8810 hc        1 MON      0.066200
     49 H172        6.0430    1.3230    1.1060 hc        1 MON      0.066200
     50 H181       -0.8160   -0.3820    7.3080 hc        1 MON      0.068700
     51 H182       -1.5860    1.2090    6.9080 hc        1 MON      0.068700
     52 H201        1.1160    0.8300    8.3810 hc        1 MON      0.051200
     53 H202        0.3300    2.4140    7.9990 hc        1 MON      0.051200
     54 H21         6.7570   -0.9800    0.3600 ha        1 MON      0.134000
     55 H22         7.1430    0.3680    4.4590 ha        1 MON      0.134000
     56 H24         8.4390   -2.7820    0.7920 ha        1 MON      0.159000
     57 H25         8.8190   -1.4160    4.8940 ha        1 MON      0.159000
     58 H26        -0.2000   -0.8630    9.7930 ha        1 MON      0.135000
     59 H27        -1.3130    3.3040    9.4540 ha        1 MON      0.135000
     60 H29        -1.5210   -1.0500   11.8940 ha        1 MON      0.153500
     61 H30        -2.6350    3.1270   11.5520 ha        1 MON      0.153500
     62 H31         9.9750   -3.1730    3.9340 ho        1 MON      0.434000
     63 H122        3.4310    2.0590    2.5620 hn        1 MON      0.466800
@<TRIPOS>BOND
     1    1    2 1   
     2    1    3 ar  
     3    1    4 ar  
     4    2    5 1   
     5    2    6 1   
     6    3    7 ar  
     7    4    8 ar  
     8    5    9 1   
     9    5   34 1   
    10    5   35 1   
    11    6   10 1   
    12    6   36 1   
    13    6   37 1   
    14    7   11 ar  
    15    7   12 1   
    16    8   11 ar  
    17    8   13 1   
    18    9   14 1   
    19    9   38 1   
    20    9   39 1   
    21   10   14 1   
    22   10   40 1   
    23   10   41 1   
    24   12   15 1   
    25   12   42 1   
    26   12   63 1   
    27   13   16 1   
    28   14   43 1   
    29   15   17 1   
    30   15   44 1   
    31   15   45 1   
    32   16   18 1   
    33   16   46 1   
    34   16   47 1   
    35   17   19 1   
    36   17   48 1   
    37   17   49 1   
    38   18   20 1   
    39   18   50 1   
    40   18   51 1   
    41   19   21 ar  
    42   19   22 ar  
    43   20   23 1   
    44   20   52 1   
    45   20   53 1   
    46   21   24 ar  
    47   21   54 1   
    48   22   25 ar  
    49   22   55 1   
    50   23   26 ar  
    51   23   27 ar  
    52   24   28 ar  
    53   24   56 1   
    54   25   28 ar  
    55   25   57 1   
    56   26   29 ar  
    57   26   58 1   
    58   27   30 ar  
    59   27   59 1   
    60   28   31 1   
    61   29   32 ar  
    62   29   60 1   
    63   30   32 ar  
    64   30   61 1   
    65   31   62 1   
    66   32   33 1   
@<TRIPOS>SUBSTRUCTURE
     1 MON         1 TEMP              0 ****  ****    0 ROOT
