@<TRIPOS>MOLECULE
MOP
   19    18     1     0     0
SMALL
bcc


@<TRIPOS>ATOM
      1 C1          0.1240    0.0340    0.0560 c         1 MOP      0.564900
      2 O1          1.3000   -0.3190   -0.0350 o         1 MOP     -0.528100
      3 C2         -0.6110    0.0950    1.3590 c3        1 MOP     -0.204400
      4 C3         -1.7140    1.1290    1.3290 c3        1 MOP     -0.073400
      5 C4         -2.4650    1.2050    2.6510 c3        1 MOP     -0.066700
      6 C5         -3.2610    2.4930    2.7210 c3        1 MOP     -0.091100
      7 CM4        -3.3820    0.0140    2.8360 c3        1 MOP     -0.091100
      8 H1         -0.4670    0.3210   -0.8440 h4        1 MOP     -0.006800
      9 H21         0.1090    0.3170    2.1920 hc        1 MOP      0.074200
     10 H22        -1.0410   -0.9250    1.5570 hc        1 MOP      0.074200
     11 H31        -2.4360    0.8920    0.5040 hc        1 MOP      0.043700
     12 H32        -1.2680    2.1340    1.1030 hc        1 MOP      0.043700
     13 H4         -1.7110    1.2070    3.4890 hc        1 MOP      0.049700
     14 H51        -3.8210    2.5480    3.6850 hc        1 MOP      0.035033
     15 H52        -2.5820    3.3760    2.6540 hc        1 MOP      0.035033
     16 H53        -3.9950    2.5450    1.8820 hc        1 MOP      0.035033
     17 HM41       -2.7990   -0.9380    2.8290 hc        1 MOP      0.035033
     18 HM42       -3.9210    0.0910    3.8110 hc        1 MOP      0.035033
     19 HM43       -4.1410   -0.0290    2.0170 hc        1 MOP      0.035033
@<TRIPOS>BOND
     1    1    2 2   
     2    1    3 1   
     3    1    8 1   
     4    3    4 1   
     5    3    9 1   
     6    3   10 1   
     7    4    5 1   
     8    4   11 1   
     9    4   12 1   
    10    5    6 1   
    11    5    7 1   
    12    5   13 1   
    13    6   14 1   
    14    6   15 1   
    15    6   16 1   
    16    7   17 1   
    17    7   18 1   
    18    7   19 1   
@<TRIPOS>SUBSTRUCTURE
     1 MOP         1 TEMP              0 ****  ****    0 ROOT
