@<TRIPOS>MOLECULE
MOP
   19    17     1     0     0
SMALL
bcc


@<TRIPOS>ATOM
      1 C1          1.7020   -1.2340   -2.0180 c1        1 MOP      0.183000
      2 O1          2.9180   -1.1850   -1.9800 o         1 MOP     -0.289000
      3 C2          0.9040   -1.2230   -0.7330 c2        1 MOP     -0.233000
      4 C3          0.2570    0.1320   -0.5530 c3        1 MOP     -0.152000
      5 C4         -0.5330    0.1460    0.7370 c3        1 MOP     -0.106000
      6 C5          0.0390    1.1930    1.6680 c3        1 MOP     -0.209000
      7 CM4        -1.9800    0.4740    0.4390 c3        1 MOP     -0.209000
      8 H1          1.2420   -1.2800   -2.8800 ha        1 MOP      0.086000
      9 H21         0.2110   -1.9120   -0.7740 ha        1 MOP      0.113500
     10 H22         1.4990   -1.4030    0.0220 ha        1 MOP      0.113500
     11 H31        -0.3430    0.3100   -1.3050 hc        1 MOP      0.083000
     12 H32         0.9500    0.8220   -0.5180 hc        1 MOP      0.083000
     13 H4         -0.4790   -0.7310    1.1620 hc        1 MOP      0.089000
     14 H51        -0.0520    2.0790    1.2590 hc        1 MOP      0.074333
     15 H52        -0.4470    1.1740    2.5190 hc        1 MOP      0.074333
     16 H53         0.9870    1.0030    1.8290 hc        1 MOP      0.074333
     17 HM41       -2.4820    0.5300    1.2790 hc        1 MOP      0.074333
     18 HM42       -2.0300    1.3330   -0.0300 hc        1 MOP      0.074333
     19 HM43       -2.3640   -0.2290   -0.1250 hc        1 MOP      0.074333
@<TRIPOS>BOND
     1    1    2 1   
     2    1    8 1   
     3    3    4 1   
     4    3    9 1   
     5    3   10 1   
     6    4    5 1   
     7    4   11 1   
     8    4   12 1   
     9    5    6 1   
    10    5    7 1   
    11    5   13 1   
    12    6   14 1   
    13    6   15 1   
    14    6   16 1   
    15    7   17 1   
    16    7   18 1   
    17    7   19 1   
@<TRIPOS>SUBSTRUCTURE
     1 MOP         1 TEMP              0 ****  ****    0 ROOT
