@<TRIPOS>MOLECULE
MOP
   19    18     1     0     0
SMALL
bcc


@<TRIPOS>ATOM
      1 C1          0.1180    0.0490    0.0420 c         1 MOP      0.564900
      2 O1          1.2890   -0.3220   -0.0540 o         1 MOP     -0.528100
      3 C2         -0.6200    0.0880    1.3450 c3        1 MOP     -0.204400
      4 C3         -1.7080    1.1380    1.3370 c3        1 MOP     -0.073400
      5 C4         -2.4620    1.1930    2.6580 c3        1 MOP     -0.066700
      6 C5         -3.2410    2.4890    2.7560 c3        1 MOP     -0.091100
      7 CM4        -3.3960    0.0110    2.8120 c3        1 MOP     -0.091100
      8 H1         -0.4640    0.3690   -0.8520 h4        1 MOP     -0.006800
      9 H21         0.1000    0.2800    2.1840 hc        1 MOP      0.074200
     10 H22        -1.0650   -0.9300    1.5160 hc        1 MOP      0.074200
     11 H31        -2.4320    0.9310    0.5040 hc        1 MOP      0.043700
     12 H32        -1.2480    2.1420    1.1360 hc        1 MOP      0.043700
     13 H4         -1.7110    1.1650    3.4980 hc        1 MOP      0.049700
     14 H51        -3.8020    2.5300    3.7210 hc        1 MOP      0.035033
     15 H52        -2.5500    3.3650    2.7120 hc        1 MOP      0.035033
     16 H53        -3.9720    2.5720    1.9170 hc        1 MOP      0.035033
     17 HM41       -2.8260   -0.9490    2.7840 hc        1 MOP      0.035033
     18 HM42       -3.9370    0.0720    3.7870 hc        1 MOP      0.035033
     19 HM43       -4.1530   -0.0030    1.9900 hc        1 MOP      0.035033
@<TRIPOS>BOND
     1    1    2 2   
     2    1    3 1   
     3    1    8 1   
     4    3    4 1   
     5    3    9 1   
     6    3   10 1   
     7    4    5 1   
     8    4   11 1   
     9    4   12 1   
    10    5    6 1   
    11    5    7 1   
    12    5   13 1   
    13    6   14 1   
    14    6   15 1   
    15    6   16 1   
    16    7   17 1   
    17    7   18 1   
    18    7   19 1   
@<TRIPOS>SUBSTRUCTURE
     1 MOP         1 TEMP              0 ****  ****    0 ROOT
