@<TRIPOS>MOLECULE
MOP
   19    18     1     0     0
SMALL
bcc


@<TRIPOS>ATOM
      1 C1         -0.0550   -0.3680   -2.2550 c         1 MOP      0.564900
      2 O1          0.0170    0.2160   -3.3370 o         1 MOP     -0.528100
      3 C2          0.3580    0.2620   -0.9610 c3        1 MOP     -0.204400
      4 C3         -0.4010   -0.3230    0.2100 c3        1 MOP     -0.073400
      5 C4          0.0050    0.3140    1.5320 c3        1 MOP     -0.066700
      6 C5         -1.0330    0.0090    2.5940 c3        1 MOP     -0.091100
      7 CM4         1.3690   -0.1670    1.9820 c3        1 MOP     -0.091100
      8 H1         -0.4270   -1.4150   -2.1840 h4        1 MOP     -0.006800
      9 H21         0.2010    1.3720   -1.0100 hc        1 MOP      0.074200
     10 H22         1.4610    0.0880   -0.8330 hc        1 MOP      0.074200
     11 H31        -0.2270   -1.4300    0.2620 hc        1 MOP      0.043700
     12 H32        -1.5010   -0.1650    0.0500 hc        1 MOP      0.043700
     13 H4          0.0490    1.4310    1.3900 hc        1 MOP      0.049700
     14 H51        -0.7350    0.4660    3.5670 hc        1 MOP      0.035033
     15 H52        -2.0280    0.4200    2.2980 hc        1 MOP      0.035033
     16 H53        -1.1330   -1.0940    2.7370 hc        1 MOP      0.035033
     17 HM41        1.3680   -1.2740    2.1260 hc        1 MOP      0.035033
     18 HM42        2.1480    0.0930    1.2260 hc        1 MOP      0.035033
     19 HM43        1.6450    0.3140    2.9520 hc        1 MOP      0.035033
@<TRIPOS>BOND
     1    1    2 2   
     2    1    3 1   
     3    1    8 1   
     4    3    4 1   
     5    3    9 1   
     6    3   10 1   
     7    4    5 1   
     8    4   11 1   
     9    4   12 1   
    10    5    6 1   
    11    5    7 1   
    12    5   13 1   
    13    6   14 1   
    14    6   15 1   
    15    6   16 1   
    16    7   17 1   
    17    7   18 1   
    18    7   19 1   
@<TRIPOS>SUBSTRUCTURE
     1 MOP         1 TEMP              0 ****  ****    0 ROOT
