@<TRIPOS>MOLECULE
MOR
   17    17     1     0     0
SMALL
bcc


@<TRIPOS>ATOM
      1 O1         -0.1350    0.5220    0.2530 os        1 MOR     -0.186000
      2 C2          1.2440    0.2290   -0.0010 c3        1 MOR     -0.072000
      3 C3          1.9350   -0.3430    1.2480 c3        1 MOR     -0.125000
      4 N4          1.2220   -1.4950    1.8350 n4        1 MOR     -0.136000
      5 C5         -0.2820   -1.0850    2.0090 c3        1 MOR      0.029000
      6 C6         -0.7860   -0.5890    0.7620 c2        1 MOR     -0.591000
      7 C           1.8770   -1.9680    3.1480 c2        1 MOR      0.363000
      8 O           2.1250   -1.0910    4.0030 o         1 MOR     -0.495000
      9 H21         1.2530   -2.2670    1.1730 hn        1 MOR      0.183000
     10 H22         1.7210    1.2030   -0.2750 h1        1 MOR      0.050500
     11 H31         1.3350   -0.4930   -0.8530 h1        1 MOR      0.050500
     12 H32         2.9870   -0.6460    0.9910 hx        1 MOR      0.093500
     13 H51         1.9800    0.4530    2.0450 hx        1 MOR      0.093500
     14 H52        -0.2220   -0.3160    2.8260 hx        1 MOR      0.076500
     15 H61        -0.8210   -1.9950    2.3760 hx        1 MOR      0.076500
     16 H62        -1.2820   -1.2160    0.0260 h4        1 MOR      0.085000
     17 O3          2.0870   -3.2030    3.1870 o         1 MOR     -0.495000
@<TRIPOS>BOND
     1    1    2 1   
     2    1    6 1   
     3    2    3 1   
     4    2   10 1   
     5    2   11 1   
     6    3    4 1   
     7    3   12 1   
     8    3   13 1   
     9    4    5 1   
    10    4    7 1   
    11    4    9 1   
    12    5    6 1   
    13    5   14 1   
    14    5   15 1   
    15    6   16 1   
    16    7    8 1   
    17    7   17 1   
@<TRIPOS>SUBSTRUCTURE
     1 MOR         1 TEMP              0 ****  ****    0 ROOT
