@<TRIPOS>MOLECULE
MOR
   17    17     1     0     0
SMALL
bcc


@<TRIPOS>ATOM
      1 O1         -2.4040    0.0650    0.2590 os        1 MOR     -0.448600
      2 C2         -1.6580   -1.1440    0.3890 c3        1 MOR      0.098400
      3 C3         -0.4710   -1.2070   -0.5840 c3        1 MOR      0.053000
      4 N4          0.3590   -0.0320   -0.6010 n         1 MOR     -0.486800
      5 C5         -0.3960    1.1930   -0.6120 c3        1 MOR      0.053000
      6 C6         -1.5830    1.2270    0.3620 c3        1 MOR      0.098400
      7 C           1.5850   -0.0610    0.2080 c         1 MOR      0.990600
      8 O           2.0500   -1.1950    0.5270 o         1 MOR     -0.833300
      9 H21        -1.3060   -1.2430    1.4500 h1        1 MOR      0.031200
     10 H22        -2.4020   -1.9500    0.1580 h1        1 MOR      0.031200
     11 H31         0.1650   -2.0980   -0.3200 h1        1 MOR      0.045700
     12 H32        -0.8880   -1.3540   -1.6220 h1        1 MOR      0.045700
     13 H51         0.2950    2.0480   -0.3670 h1        1 MOR      0.045700
     14 H52        -0.8040    1.3430   -1.6530 h1        1 MOR      0.045700
     15 H61        -2.2760    2.0730    0.1120 h1        1 MOR      0.031200
     16 H62        -1.2250    1.3280    1.4200 h1        1 MOR      0.031200
     17 O3          2.1210    1.0480    0.5010 o         1 MOR     -0.833300
@<TRIPOS>BOND
     1    1    2 1   
     2    1    6 1   
     3    2    3 1   
     4    2    9 1   
     5    2   10 1   
     6    3    4 1   
     7    3   11 1   
     8    3   12 1   
     9    4    5 1   
    10    4    7 1   
    11    5    6 1   
    12    5   13 1   
    13    5   14 1   
    14    6   15 1   
    15    6   16 1   
    16    7    8 1   
    17    7   17 1   
@<TRIPOS>SUBSTRUCTURE
     1 MOR         1 TEMP              0 ****  ****    0 ROOT
