@<TRIPOS>MOLECULE
MOR
   17    16     1     0     0
SMALL
bcc


@<TRIPOS>ATOM
      1 O1         -0.4450   -0.2620   -0.1240 os        1 MOR     -0.190000
      2 C2          0.5810    0.6770   -0.4330 c3        1 MOR     -0.098000
      3 C3          2.4230   -1.0620    1.8370 c2        1 MOR     -0.056000
      4 N4          1.3810   -1.4230    2.4980 n         1 MOR     -0.123000
      5 C5          0.0260   -1.6310    1.8150 c3        1 MOR      0.058000
      6 C6          0.0200   -1.4440    0.4050 c2        1 MOR     -0.618000
      7 C           1.4830   -1.6780    4.0010 c2        1 MOR      0.376000
      8 O           2.6030   -1.4300    4.5140 o         1 MOR     -0.496000
      9 H21         1.3390    0.2330   -1.1250 h1        1 MOR      0.027667
     10 H22         0.0610    1.5320   -0.9310 h1        1 MOR      0.027667
     11 H31         1.0950    1.0300    0.4950 h1        1 MOR      0.027667
     12 H32         3.3980   -0.9210    2.3400 h4        1 MOR      0.145500
     13 H51         2.3530   -0.8810    0.7450 h4        1 MOR      0.145500
     14 H52        -0.6380   -0.9130    2.3700 h1        1 MOR      0.087500
     15 H61        -0.2180   -2.6880    2.1170 h1        1 MOR      0.087500
     16 H62         0.3290   -2.1950   -0.3150 h4        1 MOR      0.093000
     17 O3          0.4490   -2.1070    4.5550 o         1 MOR     -0.496000
@<TRIPOS>BOND
     1    1    2 1   
     2    1    6 1   
     3    2    9 1   
     4    2   10 1   
     5    2   11 1   
     6    3    4 1   
     7    3   12 1   
     8    3   13 1   
     9    4    5 1   
    10    4    7 1   
    11    5    6 1   
    12    5   14 1   
    13    5   15 1   
    14    6   16 1   
    15    7    8 1   
    16    7   17 1   
@<TRIPOS>SUBSTRUCTURE
     1 MOR         1 TEMP              0 ****  ****    0 ROOT
