@<TRIPOS>MOLECULE
MOR
   17    17     1     0     0
SMALL
bcc


@<TRIPOS>ATOM
      1 O1         -0.0990    0.5520    0.2540 os        1 MOR     -0.186000
      2 C2          1.2720    0.2230    0.0010 c3        1 MOR     -0.072000
      3 C3          1.9480   -0.3680    1.2490 c3        1 MOR     -0.125000
      4 N4          1.2040   -1.5010    1.8350 n4        1 MOR     -0.136000
      5 C5         -0.2880   -1.0520    2.0100 c3        1 MOR      0.029000
      6 C6         -0.7780   -0.5420    0.7630 c2        1 MOR     -0.591000
      7 C           1.8480   -1.9920    3.1480 c2        1 MOR      0.363000
      8 O           2.1200   -1.1220    4.0030 o         1 MOR     -0.495000
      9 H21         1.2160   -2.2740    1.1730 hn        1 MOR      0.183000
     10 H22         1.7740    1.1840   -0.2730 h1        1 MOR      0.050500
     11 H31         1.3430   -0.5010   -0.8530 h1        1 MOR      0.050500
     12 H32         2.9920   -0.6990    0.9920 hx        1 MOR      0.093500
     13 H51         2.0140    0.4250    2.0460 hx        1 MOR      0.093500
     14 H52        -0.2070   -0.2850    2.8280 hx        1 MOR      0.076500
     15 H61        -0.8510   -1.9480    2.3770 hx        1 MOR      0.076500
     16 H62        -1.2910   -1.1560    0.0260 h4        1 MOR      0.085000
     17 O3          2.0240   -3.2330    3.1860 o         1 MOR     -0.495000
@<TRIPOS>BOND
     1    1    2 1   
     2    1    6 1   
     3    2    3 1   
     4    2   10 1   
     5    2   11 1   
     6    3    4 1   
     7    3   12 1   
     8    3   13 1   
     9    4    5 1   
    10    4    7 1   
    11    4    9 1   
    12    5    6 1   
    13    5   14 1   
    14    5   15 1   
    15    6   16 1   
    16    7    8 1   
    17    7   17 1   
@<TRIPOS>SUBSTRUCTURE
     1 MOR         1 TEMP              0 ****  ****    0 ROOT
