@<TRIPOS>MOLECULE
MOT
   52    54     1     0     0
SMALL
bcc


@<TRIPOS>ATOM
      1 N1         -0.5120    1.9160    6.0210 nb        1 MOT     -0.757000
      2 C2         -1.6040    1.2660    6.5870 ca        1 MOT      0.886900
      3 NA2        -2.2100    1.9000    7.6930 nh        1 MOT     -0.911500
      4 N3         -2.1350    0.0420    6.2090 nb        1 MOT     -0.831000
      5 C4         -1.4940   -0.6620    5.2230 ca        1 MOT      0.745200
      6 NA4        -1.9510   -1.9270    4.8770 nh        1 MOT     -0.933500
      7 C4A        -0.3400   -0.1150    4.5950 ca        1 MOT     -0.411400
      8 C6          0.5820   -0.4820    3.5380 cc        1 MOT     -0.108400
      9 C7          1.4410    0.5800    3.3870 cd        1 MOT     -0.028900
     10 O8          1.1650    1.6220    4.3000 os        1 MOT     -0.307400
     11 C8A         0.0660    1.1880    5.0430 ca        1 MOT      0.635600
     12 C9          0.5570   -1.7760    2.8050 c3        1 MOT      0.249000
     13 N10         1.6640   -2.1070    1.9340 nh        1 MOT     -0.637000
     14 CM          2.9430   -2.2090    2.5870 c3        1 MOT      0.177100
     15 C11         1.6180   -0.3230   -1.9100 ca        1 MOT     -0.138600
     16 C12         2.6700   -0.0470   -1.0400 ca        1 MOT     -0.084000
     17 C13         2.6890   -0.5980    0.2400 ca        1 MOT     -0.176000
     18 C14         1.6560   -1.4600    0.6580 ca        1 MOT      0.083600
     19 C15         0.6020   -1.7390   -0.2390 ca        1 MOT     -0.176000
     20 C16         0.5800   -1.1710   -1.5090 ca        1 MOT     -0.084000
     21 O           2.5250   -0.0490   -4.0990 o         1 MOT     -0.654100
     22 N           0.5700    1.0930   -3.5940 n         1 MOT     -0.485900
     23 CA          0.0510    1.2940   -4.9350 c3        1 MOT     -0.037300
     24 CT         -0.4230    2.7750   -5.1360 c         1 MOT      0.917600
     25 O1         -0.1600    3.3060   -6.2520 o         1 MOT     -0.850800
     26 O2         -1.0440    3.3570   -4.2030 o         1 MOT     -0.850800
     27 CB         -1.1430    0.3700   -5.2390 c3        1 MOT     -0.074400
     28 CG         -0.7820   -1.0990   -5.3070 c3        1 MOT     -0.190400
     29 CD         -1.8080   -1.9960   -4.6070 c         1 MOT      0.908600
     30 OE1        -1.8310   -2.0330   -3.3350 o         1 MOT     -0.874800
     31 OE2        -2.5830   -2.7100   -5.3110 o         1 MOT     -0.874800
     32 HN21       -3.1520    1.6250    7.8660 hn        1 MOT      0.408300
     33 HN22       -2.0580    2.8840    7.7410 hn        1 MOT      0.408300
     34 HN41       -2.8650   -2.1800    5.1750 hn        1 MOT      0.423300
     35 HN42       -1.6940   -2.2330    3.9650 hn        1 MOT      0.423300
     36 H7          2.2580    0.8110    2.7050 h4        1 MOT      0.209000
     37 H91        -0.3850   -1.8010    2.1790 h1        1 MOT      0.062700
     38 H92         0.4980   -2.6030    3.5740 h1        1 MOT      0.062700
     39 HM1         2.8590   -2.9650    3.4130 h1        1 MOT      0.026700
     40 HM2         3.7050   -2.5630    1.8440 h1        1 MOT      0.026700
     41 HM3         3.3010   -1.2410    3.0360 h1        1 MOT      0.026700
     42 H12         3.4900    0.6080   -1.3690 ha        1 MOT      0.188500
     43 H13         3.5270   -0.3590    0.9100 ha        1 MOT      0.121000
     44 H15        -0.2140   -2.4200    0.0480 ha        1 MOT      0.121000
     45 H16        -0.2610   -1.4070   -2.2130 ha        1 MOT      0.188500
     46 HN         -0.1070    1.2630   -2.8810 hn        1 MOT      0.310500
     47 HA          0.8810    1.0860   -5.6680 h1        1 MOT      0.066700
     48 HB1        -1.9370    0.5310   -4.4620 hc        1 MOT      0.046700
     49 HB2        -1.5690    0.7040   -6.2210 hc        1 MOT      0.046700
     50 HG1        -0.6990   -1.4170   -6.3770 hc        1 MOT      0.023200
     51 HG2         0.2140   -1.2840   -4.8270 hc        1 MOT      0.023200
     52 C           1.5970    0.2360   -3.3060 c         1 MOT      0.659700
@<TRIPOS>BOND
     1    1    2 ar  
     2    1   11 ar  
     3    2    3 1   
     4    2    4 ar  
     5    3   32 1   
     6    3   33 1   
     7    4    5 ar  
     8    5    6 1   
     9    5    7 ar  
    10    6   34 1   
    11    6   35 1   
    12    7    8 1   
    13    7   11 ar  
    14    8    9 2   
    15    8   12 1   
    16    9   10 1   
    17    9   36 1   
    18   10   11 1   
    19   12   13 1   
    20   12   37 1   
    21   12   38 1   
    22   13   14 1   
    23   13   18 1   
    24   14   39 1   
    25   14   40 1   
    26   14   41 1   
    27   15   16 ar  
    28   15   20 ar  
    29   15   52 1   
    30   16   17 ar  
    31   16   42 1   
    32   17   18 ar  
    33   17   43 1   
    34   18   19 ar  
    35   19   20 ar  
    36   19   44 1   
    37   20   45 1   
    38   21   52 2   
    39   22   23 1   
    40   22   46 1   
    41   22   52 1   
    42   23   24 1   
    43   23   27 1   
    44   23   47 1   
    45   24   25 1   
    46   24   26 1   
    47   27   28 1   
    48   27   48 1   
    49   27   49 1   
    50   28   29 1   
    51   28   50 1   
    52   28   51 1   
    53   29   30 1   
    54   29   31 1   
@<TRIPOS>SUBSTRUCTURE
     1 MOT         1 TEMP              0 ****  ****    0 ROOT
