@<TRIPOS>MOLECULE
MOT
   52    45     1     0     0
SMALL
bcc


@<TRIPOS>ATOM
      1 N1          0.3210   -5.9890   -4.0360 n1        1 MOT     -0.227000
      2 C2          1.3970   -6.2250   -4.8530 c1        1 MOT      0.172000
      3 NA2         1.2970   -7.1810   -5.9020 n2        1 MOT     -0.324500
      4 N3          2.5420   -5.4940   -4.7040 n2        1 MOT     -0.307000
      5 C4          2.6160   -4.5420   -3.7550 c1        1 MOT      0.222000
      6 NA4         3.8230   -3.8210   -3.5670 n2        1 MOT     -0.324500
      7 C4A         1.5280   -4.3010   -2.9270 c1        1 MOT     -0.272000
      8 C6          1.3110   -3.3640   -1.9110 c1        1 MOT     -0.129000
      9 C7          0.0290   -3.5310   -1.4460 c1        1 MOT     -0.062000
     10 O8         -0.5490   -4.5510   -2.1540 os        1 MOT     -0.086000
     11 C8A         0.3920   -5.0270   -3.0750 c1        1 MOT      0.139000
     12 C9          2.1090   -2.0860   -1.5540 c2        1 MOT      0.012000
     13 N10         1.8500   -1.7210   -0.1490 n3        1 MOT     -0.239000
     14 CM          2.2910   -2.5960    0.9170 c3        1 MOT     -0.105000
     15 C11         0.2230    2.0470    0.9420 c1        1 MOT     -0.096000
     16 C12        -0.4820    0.8790    1.2170 c1        1 MOT     -0.134500
     17 C13         0.0360   -0.3530    0.8330 c1        1 MOT     -0.134500
     18 C14         1.2620   -0.4190    0.1710 c1        1 MOT      0.008000
     19 C15         1.9660    0.7450   -0.1030 c1        1 MOT     -0.159000
     20 C16         1.4460    1.9820    0.2820 c1        1 MOT     -0.078000
     21 C          -0.3650    3.4040    1.3280 c2        1 MOT      0.325000
     22 O           0.2530    4.4250    1.0870 o         1 MOT     -0.419000
     23 N          -1.5970    3.4700    2.0500 n         1 MOT     -0.289000
     24 CA         -2.0170    4.7050    2.6350 c3        1 MOT     -0.069000
     25 CT         -1.3400    4.8820    3.9710 c2        1 MOT      0.324000
     26 O1         -0.8900    6.0090    4.3030 o         1 MOT     -0.586000
     27 O2         -1.2730    3.9150    4.7770 o         1 MOT     -0.586000
     28 CB         -3.5120    4.6890    2.8270 c3        1 MOT     -0.134000
     29 CG         -3.9920    6.0910    3.2090 c3        1 MOT     -0.211000
     30 CD         -5.3770    6.0000    3.8240 c2        1 MOT      0.324000
     31 OE1        -5.5100    5.6400    5.0210 o         1 MOT     -0.609000
     32 OE2        -6.3820    6.3820    3.1660 o         1 MOT     -0.609000
     33 HN21        2.0530   -7.5540   -6.2540 hn        1 MOT      0.212000
     34 HN22        0.4750   -7.4230   -6.2250 hn        1 MOT      0.212000
     35 HN41        3.8530   -3.1280   -2.9740 hn        1 MOT      0.212000
     36 HN42        4.5670   -4.0390   -4.0540 hn        1 MOT      0.212000
     37 H7         -0.4070   -2.9870   -0.7710 DU        1 MOT      0.216000
     38 H91         3.0650   -2.2540   -1.6770 h4        1 MOT      0.095000
     39 H92         1.8290   -1.3520   -2.1400 h4        1 MOT      0.095000
     40 HM1         1.5390   -2.7710    1.5340 h1        1 MOT      0.073000
     41 HM2         3.0290   -2.1670    1.4110 h1        1 MOT      0.073000
     42 HM3         2.6040   -3.4420    0.5350 h1        1 MOT      0.073000
     43 H12        -1.3410    0.9250    1.6810 ha        1 MOT      0.144500
     44 H13        -0.4450   -1.1770    1.0570 ha        1 MOT      0.144500
     45 H15         2.8240    0.7000   -0.5660 ha        1 MOT      0.118000
     46 H16         1.9450    2.8080    0.0870 ha        1 MOT      0.150000
     47 HN         -2.1390    2.7400    2.0910 hn        1 MOT      0.231000
     48 HA         -1.7710    5.4480    2.0420 h1        1 MOT      0.109000
     49 HB1        -3.9440    4.4120    1.9950 hc        1 MOT      0.090000
     50 HB2        -3.7410    4.0620    3.5370 hc        1 MOT      0.090000
     51 HG1        -4.0260    6.6520    2.4110 hc        1 MOT      0.058000
     52 HG2        -3.3730    6.4830    3.8570 hc        1 MOT      0.058000
@<TRIPOS>BOND
     1    1    2 1   
     2    2    4 1   
     3    3   33 1   
     4    3   34 1   
     5    4    5 1   
     6    5    7 1   
     7    6   35 1   
     8    6   36 1   
     9    7   11 1   
    10    8    9 1   
    11    9   10 1   
    12   10   11 1   
    13   12   13 1   
    14   12   38 1   
    15   12   39 1   
    16   13   14 1   
    17   13   18 1   
    18   14   40 1   
    19   14   41 1   
    20   14   42 1   
    21   15   20 1   
    22   15   21 1   
    23   16   17 1   
    24   16   43 1   
    25   17   44 1   
    26   18   19 1   
    27   19   45 1   
    28   20   46 1   
    29   21   22 1   
    30   21   23 1   
    31   23   24 1   
    32   23   47 1   
    33   24   25 1   
    34   24   28 1   
    35   24   48 1   
    36   25   26 1   
    37   25   27 1   
    38   28   29 1   
    39   28   49 1   
    40   28   50 1   
    41   29   30 1   
    42   29   51 1   
    43   29   52 1   
    44   30   31 1   
    45   30   32 1   
@<TRIPOS>SUBSTRUCTURE
     1 MOT         1 TEMP              0 ****  ****    0 ROOT
