@<TRIPOS>MOLECULE
MOT
   53    54     1     0     0
SMALL
bcc


@<TRIPOS>ATOM
      1 N1          0.5760    0.4090    0.4670 n2        1 MOT     -0.275000
      2 C2          1.2200    1.6590    0.3860 c2        1 MOT      0.191000
      3 NA2         1.9980    1.8760   -0.7670 nv        1 MOT     -0.319000
      4 N3          1.2040    2.6550    1.3210 n2        1 MOT     -0.324000
      5 C4          0.5410    2.4230    2.5260 c2        1 MOT      0.262000
      6 NA4         0.6160    3.3650    3.4970 nv        1 MOT     -0.301000
      7 C4A        -0.1390    1.1790    2.7140 c2        1 MOT     -0.347000
      8 C6         -0.9350    0.5810    3.7620 c2        1 MOT     -0.045000
      9 C7         -1.3360   -0.7810    3.2380 c3        1 MOT     -0.003000
     10 O8         -0.7570   -0.9330    1.9090 os        1 MOT     -0.193000
     11 C8A        -0.0610    0.2420    1.6330 c2        1 MOT      0.203000
     12 C9         -1.2830    1.0770    4.9660 c2        1 MOT     -0.105000
     13 N10        -2.0380    0.3570    5.9280 n3        1 MOT     -0.206000
     14 CM         -1.4820   -0.8620    6.4560 c3        1 MOT     -0.086000
     15 C11        -5.5600    2.0390    7.5230 c2        1 MOT     -0.289000
     16 C12        -5.0430    0.8480    8.0260 c2        1 MOT      0.095000
     17 C13        -3.8640    0.2900    7.5220 c2        1 MOT     -0.360000
     18 C14        -3.1520    0.9230    6.4890 c2        1 MOT      0.171000
     19 C15        -3.6500    2.2500    5.9810 c3        1 MOT     -0.203000
     20 C16        -4.9070    2.7380    6.5080 c1        1 MOT     -0.167000
     21 O          -7.4350    1.9930    9.0280 o         1 MOT     -0.451000
     22 N          -7.3500    3.7010    7.5280 nt        1 MOT     -0.421000
     23 CA         -2.2460    8.7460    6.3220 c2        1 MOT     -0.302000
     24 CT         -2.0960   10.1250    5.8580 c2        1 MOT      0.342000
     25 O1         -1.3710   10.4090    4.7290 oh        1 MOT     -0.311000
     26 O2         -2.5810   11.1370    6.3750 o         1 MOT     -0.341000
     27 CB         -1.3740    7.7640    6.0560 c2        1 MOT     -0.031000
     28 CG         -1.5260    6.3750    6.5330 c3        1 MOT     -0.214000
     29 CD         -0.8290    5.3720    5.6140 c2        1 MOT      0.343000
     30 OE1        -1.1110    4.1400    5.7590 o         1 MOT     -0.597500
     31 OE2         0.0070    5.7680    4.7520 o         1 MOT     -0.597500
     32 HN21        2.2110    2.8270   -0.9660 hn        1 MOT      0.208000
     33 HN22        1.7510    1.3250   -1.5580 hn        1 MOT      0.208000
     34 HN41        0.9820    4.2770    3.3070 hn        1 MOT      0.270500
     35 HN42       -0.0060    3.3320    4.2850 hn        1 MOT      0.270500
     36 H7         -2.4430   -0.8770    3.1100 h1        1 MOT      0.105000
     37 H91        -0.9280   -1.6220    3.8520 h1        1 MOT      0.105000
     38 H92        -1.0260    2.1050    5.3000 h4        1 MOT      0.215000
     39 HM1        -0.5020   -1.0800    5.9570 h1        1 MOT      0.086000
     40 HM2        -1.3090   -0.7680    7.5620 h1        1 MOT      0.086000
     41 HM3        -2.1880   -1.7170    6.2730 h1        1 MOT      0.086000
     42 H12        -3.5180   -0.6620    7.9490 ha        1 MOT      0.125000
     43 H13        -5.5790    0.3210    8.8370 ha        1 MOT      0.141000
     44 H15        -3.7080    2.2390    4.8530 hc        1 MOT      0.200000
     45 H16        -2.8650    3.0570    6.2140 hc        1 MOT      0.200000
     46 HN         -6.8290    4.1760    6.8300 hn        1 MOT      0.227500
     47 HA         -1.0450    9.5900    4.3320 ho        1 MOT      0.231000
     48 HB1        -3.1430    8.5790    6.9410 ha        1 MOT      0.152000
     49 HB2        -0.4630    7.9300    5.4470 ha        1 MOT      0.150000
     50 HG1        -1.0560    6.2820    7.5490 hc        1 MOT      0.107500
     51 HG2        -2.6050    6.0880    6.6320 hc        1 MOT      0.107500
     52 H2         -8.1440    4.1260    7.9310 hn        1 MOT      0.227500
     53 C          -6.8280    2.5610    8.0860 c2        1 MOT      0.369000
@<TRIPOS>BOND
     1    1    2 1   
     2    1   11 1   
     3    2    3 1   
     4    2    4 1   
     5    3   32 1   
     6    3   33 1   
     7    4    5 1   
     8    5    6 1   
     9    5    7 1   
    10    6   34 1   
    11    6   35 1   
    12    7    8 1   
    13    7   11 1   
    14    8    9 1   
    15    8   12 1   
    16    9   10 1   
    17    9   36 1   
    18    9   37 1   
    19   10   11 1   
    20   12   13 1   
    21   12   38 1   
    22   13   14 1   
    23   13   18 1   
    24   14   39 1   
    25   14   40 1   
    26   14   41 1   
    27   15   16 1   
    28   15   20 1   
    29   15   53 1   
    30   16   17 1   
    31   16   43 1   
    32   17   18 1   
    33   17   42 1   
    34   18   19 1   
    35   19   20 1   
    36   19   44 1   
    37   19   45 1   
    38   21   53 1   
    39   22   46 1   
    40   22   52 1   
    41   22   53 1   
    42   23   24 1   
    43   23   27 1   
    44   23   48 1   
    45   24   25 1   
    46   24   26 1   
    47   25   47 1   
    48   27   28 1   
    49   27   49 1   
    50   28   29 1   
    51   28   50 1   
    52   28   51 1   
    53   29   30 1   
    54   29   31 1   
@<TRIPOS>SUBSTRUCTURE
     1 MOT         1 TEMP              0 ****  ****    0 ROOT
