@<TRIPOS>MOLECULE
MOT
   56    56     1     0     0
SMALL
bcc


@<TRIPOS>ATOM
      1 N1        339.5910  -95.7490 -194.9440 n2        1 MOT     -0.168000
      2 C2        340.7570  -95.0250 -195.2890 c2        1 MOT      0.225000
      3 NA2       341.0550  -94.8700 -196.6110 nh        1 MOT     -0.300000
      4 N3        341.6160  -94.4600 -194.3470 n2        1 MOT     -0.269000
      5 C4        341.2790  -94.6590 -193.0480 c2        1 MOT      0.025000
      6 NA4       342.1870  -94.0400 -192.0510 n4        1 MOT     -0.023000
      7 C4A       340.1540  -95.3720 -192.6030 c2        1 MOT     -0.186000
      8 C6        339.7790  -95.5780 -191.2200 c2        1 MOT     -0.145000
      9 C7        340.9110  -95.0160 -200.7040 c1        1 MOT      0.268000
     10 O8        340.9410  -94.9790 -199.5290 o         1 MOT     -0.266000
     11 C8A       339.3310  -95.8930 -193.6590 c2        1 MOT      0.052000
     12 C9        340.5880  -96.0380 -190.2630 c2        1 MOT     -0.203000
     13 N10      -206.2040   57.1300  125.9970 nh        1 MOT     -0.285000
     14 CM       -205.1650   56.7200  126.8930 c3        1 MOT     -0.092000
     15 C11      -206.8450   61.1010  124.7850 ca        1 MOT     -0.281000
     16 C12      -205.7890   60.7810  125.6740 ca        1 MOT      0.004000
     17 C13      -205.5660   59.4860  126.0810 ca        1 MOT     -0.227500
     18 C14      -206.3950   58.4200  125.6140 ca        1 MOT      0.201000
     19 C15      -207.4580   58.7560  124.7080 ca        1 MOT     -0.227500
     20 C16      -207.6670   60.0550  124.3140 ca        1 MOT      0.004000
     21 O        -206.2660   63.4400  124.7300 o         1 MOT     -0.236000
     22 N        -208.1910   62.8370  123.5480 n4        1 MOT     -0.119000
     23 CA       -208.4130   64.3020  123.3240 c3        1 MOT     -0.075000
     24 CT       -209.5130   64.8140  124.2460 c2        1 MOT      0.295000
     25 O1       -209.6170   66.1580  124.2480 oh        1 MOT     -0.273000
     26 O2       -210.2670   64.1280  124.9380 o         1 MOT     -0.328000
     27 CB       -208.7920   64.6370  121.8760 c3        1 MOT     -0.179000
     28 CG       -207.6740   64.3340  120.9280 cx        1 MOT     -0.062000
     29 CD       -207.9220   63.6650  119.6590 cu        1 MOT      0.319000
     30 OE1      -208.2220   63.4230  118.5240 o         1 MOT     -0.145000
     31 OE2      -207.4350   62.8880  120.6970 os        1 MOT     -0.318000
     32 HN21     -210.3230   66.4380  124.8640 ho        1 MOT      0.285000
     33 HN22      340.4580  -95.2580 -197.3100 hn        1 MOT      0.274000
     34 HN41      343.0540  -94.5870 -191.9950 hn        1 MOT      0.268667
     35 HN42      342.4180  -93.0760 -192.3250 hn        1 MOT      0.268667
     36 H7        338.7160  -95.3560 -190.9990 ha        1 MOT      0.166000
     37 H91      -206.8140   56.4310  125.6350 hn        1 MOT      0.250000
     38 H92       341.6300  -96.3410 -190.4380 ha        1 MOT      0.132000
     39 HM1      -204.1550   56.9730  126.4690 h1        1 MOT      0.102667
     40 HM2      -205.2300   55.6090  127.0430 h1        1 MOT      0.102667
     41 HM3      -205.2770   57.2300  127.8890 h1        1 MOT      0.102667
     42 H12      -204.7370   59.2730  126.7750 ha        1 MOT      0.161500
     43 H13      -205.1360   61.5930  126.0440 ha        1 MOT      0.143500
     44 H15       338.4120  -96.4610 -193.4010 h4        1 MOT      0.207000
     45 H16      -208.1140   57.9590  124.3220 ha        1 MOT      0.161500
     46 HN       -209.0270   62.4370  124.0030 hn        1 MOT      0.271000
     47 HA       -208.0560   62.3680  122.6410 hn        1 MOT      0.271000
     48 HB1      -207.4530   64.8550  123.5890 hx        1 MOT      0.208000
     49 HB2      -209.0130   65.7430  121.8360 hc        1 MOT      0.152000
     50 HG1      -209.7300   64.0940  121.5790 hc        1 MOT      0.152000
     51 HG2      -206.7430   64.9220  121.0770 h1        1 MOT      0.182000
     52 HA23      341.8600  -94.3640 -196.8970 hn        1 MOT      0.274000
     53 HA43      341.7170  -94.0420 -191.1340 hn        1 MOT      0.268667
     54 H101      340.2320  -96.1940 -189.2330 ha        1 MOT      0.132000
     55 H2       -208.4940   60.2460  123.6110 ha        1 MOT      0.143500
     56 C        -206.9820   62.4900  124.4280 c2        1 MOT      0.336000
@<TRIPOS>BOND
     1    1    2 1   
     2    1   11 1   
     3    2    3 1   
     4    2    4 1   
     5    3   33 1   
     6    3   52 1   
     7    4    5 1   
     8    5    6 1   
     9    5    7 1   
    10    6   34 1   
    11    6   35 1   
    12    6   53 1   
    13    7    8 1   
    14    7   11 1   
    15    8   12 1   
    16    8   36 1   
    17    9   10 1   
    18   11   44 1   
    19   12   38 1   
    20   12   54 1   
    21   13   14 1   
    22   13   18 1   
    23   13   37 1   
    24   14   39 1   
    25   14   40 1   
    26   14   41 1   
    27   15   16 1   
    28   15   20 1   
    29   15   56 1   
    30   16   17 1   
    31   16   43 1   
    32   17   18 1   
    33   17   42 1   
    34   18   19 1   
    35   19   20 1   
    36   19   45 1   
    37   20   55 1   
    38   21   56 1   
    39   22   23 1   
    40   22   46 1   
    41   22   47 1   
    42   22   56 1   
    43   23   24 1   
    44   23   27 1   
    45   23   48 1   
    46   24   25 1   
    47   24   26 1   
    48   25   32 1   
    49   27   28 1   
    50   27   49 1   
    51   27   50 1   
    52   28   29 1   
    53   28   31 1   
    54   28   51 1   
    55   29   30 1   
    56   29   31 1   
@<TRIPOS>SUBSTRUCTURE
     1 MOT         1 TEMP              0 ****  ****    0 ROOT
