@<TRIPOS>MOLECULE
MOX
   45    46     1     0     0
SMALL
bcc


@<TRIPOS>ATOM
      1 C1          0.7100    1.1680   -2.0650 c         1 MOX      0.606900
      2 O1          0.5710    2.3210   -2.4690 o         1 MOX     -0.558100
      3 C2          1.1800    0.8150   -0.6380 c3        1 MOX      0.222200
      4 N2          0.0950    0.4090    0.2330 n         1 MOX     -0.556900
      5 C3          2.2180   -0.3850   -0.8190 c3        1 MOX      0.319300
      6 O4          3.0320    0.0470   -1.9360 os        1 MOX     -0.459600
      7 C5          4.3210   -0.5410   -2.0150 c3        1 MOX      0.175600
      8 C6          5.0320   -0.5750   -0.7020 ce        1 MOX     -0.236800
      9 C7          4.1530   -0.9270    0.4410 ce        1 MOX      0.435600
     10 C8          4.8980   -1.5360    1.6550 c         1 MOX      0.847300
     11 N8          2.8680   -0.8040    0.3990 n2        1 MOX     -0.591900
     12 C9          6.3330   -0.3130   -0.5710 c2        1 MOX     -0.187000
     13 C21        -1.2170    0.2660   -0.1840 c         1 MOX      0.689100
     14 O21        -1.5070    0.2720   -1.4030 o         1 MOX     -0.668100
     15 C22        -2.2440    0.0640    0.9210 c3        1 MOX     -0.232400
     16 C23        -3.5210   -0.4920    0.3990 ca        1 MOX     -0.035300
     17 C24        -3.8280   -1.8440    0.6000 ca        1 MOX     -0.067500
     18 C25        -5.0240   -2.3890    0.1350 ca        1 MOX     -0.201000
     19 C26        -5.9260   -1.5610   -0.5430 ca        1 MOX      0.085100
     20 O26        -7.1010   -2.1440   -0.9890 oh        1 MOX     -0.527100
     21 C27        -5.6390   -0.2050   -0.7520 ca        1 MOX     -0.201000
     22 C28        -4.4410    0.3220   -0.2800 ca        1 MOX     -0.067500
     23 C29        -2.3850    1.4250    1.6920 c         1 MOX      0.928600
     24 O30        -1.3520    1.8020    2.3130 o         1 MOX     -0.820800
     25 O31        -3.4770    2.0460    1.6680 o         1 MOX     -0.820800
     26 O61         1.9530    1.8870   -0.0900 os        1 MOX     -0.406600
     27 C62         1.2250    3.0200    0.3660 c3        1 MOX      0.097700
     28 O81         4.8380   -2.7860    1.7840 o         1 MOX     -0.817800
     29 O82         5.5710   -0.7560    2.3780 o         1 MOX     -0.817800
     30 H1          0.5500    0.2840   -2.7180 h4        1 MOX      0.008200
     31 HN2         0.2550    0.5590    1.2120 hn        1 MOX      0.359500
     32 H3          1.6230   -1.2760   -1.1920 h2        1 MOX      0.054700
     33 H5          4.2170   -1.5890   -2.4130 h1        1 MOX      0.029200
     34 H5A         4.8600    0.0920   -2.7720 h1        1 MOX      0.029200
     35 H9          6.9640   -0.0360   -1.4250 ha        1 MOX      0.117000
     36 H9A         6.8250   -0.3560    0.4140 ha        1 MOX      0.117000
     37 H22        -1.8210   -0.6560    1.6790 hc        1 MOX      0.075700
     38 H24        -3.1160   -2.4910    1.1330 ha        1 MOX      0.151000
     39 H25        -5.2640   -3.4480    0.2910 ha        1 MOX      0.117000
     40 HO26       -7.6080   -1.4520   -1.4340 ho        1 MOX      0.400000
     41 H27        -6.3570    0.4370   -1.2800 ha        1 MOX      0.117000
     42 H28        -4.2050    1.3930   -0.4050 ha        1 MOX      0.151000
     43 H62         0.6140    2.7780    1.2720 h1        1 MOX      0.046367
     44 H62A        2.0300    3.7530    0.6280 h1        1 MOX      0.046367
     45 H62B        0.5750    3.4280   -0.4450 h1        1 MOX      0.046367
@<TRIPOS>BOND
     1    1    2 2   
     2    1    3 1   
     3    1   30 1   
     4    3    4 1   
     5    3    5 1   
     6    3   26 1   
     7    4   13 1   
     8    4   31 1   
     9    5    6 1   
    10    5   11 1   
    11    5   32 1   
    12    6    7 1   
    13    7    8 1   
    14    7   33 1   
    15    7   34 1   
    16    8    9 1   
    17    8   12 2   
    18    9   10 1   
    19    9   11 2   
    20   10   28 1   
    21   10   29 1   
    22   12   35 1   
    23   12   36 1   
    24   13   14 2   
    25   13   15 1   
    26   15   16 1   
    27   15   23 1   
    28   15   37 1   
    29   16   17 ar  
    30   16   22 ar  
    31   17   18 ar  
    32   17   38 1   
    33   18   19 ar  
    34   18   39 1   
    35   19   20 1   
    36   19   21 ar  
    37   20   40 1   
    38   21   22 ar  
    39   21   41 1   
    40   22   42 1   
    41   23   24 1   
    42   23   25 1   
    43   26   27 1   
    44   27   43 1   
    45   27   44 1   
    46   27   45 1   
@<TRIPOS>SUBSTRUCTURE
     1 MOX         1 TEMP              0 ****  ****    0 ROOT
