@<TRIPOS>MOLECULE
MOX
   46    47     1     0     0
SMALL
bcc


@<TRIPOS>ATOM
      1 C1          1.7190   -0.0550   -0.2480 c         1 MOX      0.566900
      2 O1          2.3850   -0.8520    0.4040 o         1 MOX     -0.502100
      3 C2          0.1910    0.0620   -0.1030 c3        1 MOX      0.225000
      4 N2         -0.2610   -0.0180    1.3340 ny        1 MOX     -0.707800
      5 C3         -0.2660    1.4420   -0.7600 c3        1 MOX      0.330300
      6 O4          0.1460    1.3140   -2.1280 os        1 MOX     -0.453600
      7 C5         -0.6890    1.9520   -3.0950 c3        1 MOX      0.176600
      8 C6         -2.1490    1.8290   -2.8150 ce        1 MOX     -0.270800
      9 C7         -2.5040    1.9220   -1.3820 ce        1 MOX      0.482600
     10 C8         -3.9920    2.2720   -1.0630 c         1 MOX      0.845300
     11 N8         -1.6380    1.7420   -0.4400 n2        1 MOX     -0.684900
     12 C9         -3.0640    1.6580   -3.7720 c2        1 MOX     -0.139000
     13 C21         0.2680    1.0400    2.2710 c         1 MOX      0.608100
     14 O21         1.1930    1.7320    1.8630 o         1 MOX     -0.495100
     15 C22        -0.3870    1.0130    3.6260 c3        1 MOX     -0.227400
     16 C23        -0.0760    2.2620    4.3750 ca        1 MOX     -0.103300
     17 C24        -0.9060    3.3780    4.1980 ca        1 MOX     -0.059500
     18 C25        -0.6550    4.5650    4.8800 ca        1 MOX     -0.196500
     19 C26         0.4400    4.6330    5.7530 ca        1 MOX      0.121100
     20 O26         0.7510    5.7770    6.4590 oh        1 MOX     -0.508100
     21 C27         1.2740    3.5230    5.9480 ca        1 MOX     -0.196500
     22 C28         1.0090    2.3450    5.2560 ca        1 MOX     -0.059500
     23 C29        -0.0100   -0.3450    4.3450 c         1 MOX      0.935600
     24 O30         0.2480   -0.3330    5.5620 o         1 MOX     -0.784300
     25 O31        -0.0490   -1.3800    3.6110 o         1 MOX     -0.784300
     26 O61        -0.4590   -0.9490   -0.8570 os        1 MOX     -0.366600
     27 C62        -0.1960   -2.2970   -0.4820 c3        1 MOX      0.078700
     28 O81        -4.8110    1.3310   -1.2020 o         1 MOX     -0.787300
     29 O82        -4.2260    3.4580   -0.7420 o         1 MOX     -0.787300
     30 H1          2.1380    0.6230   -1.0220 h4        1 MOX      0.058200
     31 HN2         0.0280   -0.9350    1.7640 hn        1 MOX      0.490800
     32 H3          0.3910    2.2440   -0.2980 h2        1 MOX      0.081700
     33 H5         -0.4010    3.0390   -3.1340 h1        1 MOX      0.047200
     34 H5A        -0.4000    1.4510   -4.0590 h1        1 MOX      0.047200
     35 H9         -2.7960    1.5730   -4.8330 ha        1 MOX      0.129000
     36 H9A        -4.1370    1.5880   -3.5270 ha        1 MOX      0.129000
     37 H22        -1.5070    0.9460    3.4970 hc        1 MOX      0.100700
     38 H24        -1.7660    3.3240    3.5110 ha        1 MOX      0.157000
     39 H25        -1.3070    5.4360    4.7350 ha        1 MOX      0.137000
     40 HO26        0.0930    6.4490    6.2310 ho        1 MOX      0.412000
     41 H27         2.1200    3.5920    6.6450 ha        1 MOX      0.137000
     42 H28         1.6390    1.4540    5.4260 ha        1 MOX      0.157000
     43 H62        -0.5240   -2.8820   -1.3790 h1        1 MOX      0.057033
     44 H62A        0.8860   -2.4730   -0.2710 h1        1 MOX      0.057033
     45 H62B       -0.8190   -2.5770    0.4040 h1        1 MOX      0.057033
     46 H221       -1.2890    0.0170    1.3510 hn        1 MOX      0.490800
@<TRIPOS>BOND
     1    1    2 2   
     2    1    3 1   
     3    1   30 1   
     4    3    4 1   
     5    3    5 1   
     6    3   26 1   
     7    4   13 1   
     8    4   31 1   
     9    4   46 1   
    10    5    6 1   
    11    5   11 1   
    12    5   32 1   
    13    6    7 1   
    14    7    8 1   
    15    7   33 1   
    16    7   34 1   
    17    8    9 1   
    18    8   12 2   
    19    9   10 1   
    20    9   11 2   
    21   10   28 1   
    22   10   29 1   
    23   12   35 1   
    24   12   36 1   
    25   13   14 2   
    26   13   15 1   
    27   15   16 1   
    28   15   23 1   
    29   15   37 1   
    30   16   17 ar  
    31   16   22 ar  
    32   17   18 ar  
    33   17   38 1   
    34   18   19 ar  
    35   18   39 1   
    36   19   20 1   
    37   19   21 ar  
    38   20   40 1   
    39   21   22 ar  
    40   21   41 1   
    41   22   42 1   
    42   23   24 1   
    43   23   25 1   
    44   26   27 1   
    45   27   43 1   
    46   27   44 1   
    47   27   45 1   
@<TRIPOS>SUBSTRUCTURE
     1 MOX         1 TEMP              0 ****  ****    0 ROOT
