@<TRIPOS>MOLECULE
MOX
   45    42     1     0     0
SMALL
bcc


@<TRIPOS>ATOM
      1 C1          1.6610   -1.3090   -1.2910 c1        1 MOX      0.224000
      2 O1          2.2690   -1.7250   -0.2890 o         1 MOX     -0.318000
      3 C2          0.0940   -1.3210   -1.3160 c2        1 MOX      0.164000
      4 N2         -0.3970   -1.3470    0.0090 n         1 MOX     -0.367000
      5 C3         -0.4110   -0.0710   -2.0190 c3        1 MOX      0.083000
      6 O4          0.3510    0.1970   -3.1350 os        1 MOX     -0.315000
      7 C5          0.0170    1.2880   -3.9250 c3        1 MOX      0.021000
      8 C6         -1.4030    1.2600   -4.3590 c2        1 MOX     -0.146000
      9 C7         -2.3960    0.4900   -3.5230 c2        1 MOX     -0.008000
     10 C8         -3.8860    0.7490   -3.6840 c2        1 MOX      0.386000
     11 N8         -1.8970   -0.1930   -2.3330 n2        1 MOX     -0.179000
     12 C9         -1.8030    1.9100   -5.4840 c1        1 MOX     -0.188000
     13 C21         0.3770   -0.6780    1.1180 c2        1 MOX      0.333000
     14 O21         1.4330   -0.1000    0.8690 o         1 MOX     -0.429000
     15 C22        -0.1780   -0.6560    2.5080 c3        1 MOX     -0.178000
     16 C23         0.5660    0.3970    3.3390 c2        1 MOX     -0.027000
     17 C24        -0.0770    1.5880    3.6970 c2        1 MOX     -0.104000
     18 C25         0.5970    2.5440    4.4630 c1        1 MOX     -0.230000
     19 C26         1.9220    2.3120    4.8770 c1        1 MOX      0.041000
     20 O26         2.5740    3.2520    5.6870 oh        1 MOX     -0.278000
     21 C27         2.5650    1.1310    4.5260 c1        1 MOX     -0.172000
     22 C28         1.8900    0.1640    3.7530 c1        1 MOX     -0.034000
     23 C29        -0.0050   -2.0360    3.1510 c2        1 MOX      0.348000
     24 O30         1.0120   -2.7600    2.8530 o         1 MOX     -0.555500
     25 O31        -0.8880   -2.4750    3.9970 o         1 MOX     -0.555500
     26 O61        -0.3630   -2.4930   -2.0230 os        1 MOX     -0.263000
     27 C62         0.3290   -3.6830   -1.6640 c3        1 MOX     -0.092000
     28 O81        -4.3970    1.7640   -3.1860 o         1 MOX     -0.552500
     29 O82        -4.6220   -0.1140   -4.2690 o         1 MOX     -0.552500
     30 H1          2.1540   -1.0150   -2.0670 ha        1 MOX      0.101000
     31 HN2        -1.1970   -1.7800    0.1970 hn        1 MOX      0.273000
     32 H3         -0.2570    0.6120   -1.3160 h2        1 MOX      0.094000
     33 H5          0.6670    1.3730   -4.6310 h1        1 MOX      0.068500
     34 H5A         0.1590    2.1130   -3.4590 h1        1 MOX      0.068500
     35 H9         -1.1510    2.4080   -6.0230 DU        1 MOX      0.076000
     36 H9A        -2.7440    1.8810   -5.7570 ha        1 MOX      0.158000
     37 H22        -1.1610   -0.4230    2.4700 hc        1 MOX      0.114000
     38 H24        -1.0330    1.7600    3.4000 ha        1 MOX      0.125000
     39 H25         0.1160    3.3140    4.8030 ha        1 MOX      0.107000
     40 HO26        2.2150    3.2460    6.4920 ho        1 MOX      0.196000
     41 H27         3.4940    0.9710    4.8170 ha        1 MOX      0.127000
     42 H28         2.3400   -0.6650    3.5050 ha        1 MOX      0.179000
     43 H62         1.2150   -3.4540   -1.3340 h1        1 MOX      0.086000
     44 H62A       -0.1620   -4.1440   -0.9700 h1        1 MOX      0.086000
     45 H62B        0.4140   -4.2810   -2.4700 h1        1 MOX      0.086000
@<TRIPOS>BOND
     1    1    2 1   
     2    1   30 1   
     3    3    4 1   
     4    3    5 1   
     5    3   26 1   
     6    4   13 1   
     7    4   31 1   
     8    5    6 1   
     9    5   11 1   
    10    5   32 1   
    11    6    7 1   
    12    7    8 1   
    13    7   33 1   
    14    7   34 1   
    15    8    9 1   
    16    8   12 1   
    17    9   10 1   
    18    9   11 1   
    19   10   28 1   
    20   10   29 1   
    21   12   36 1   
    22   13   14 1   
    23   13   15 1   
    24   15   16 1   
    25   15   23 1   
    26   15   37 1   
    27   16   17 1   
    28   16   22 1   
    29   17   18 1   
    30   17   38 1   
    31   18   39 1   
    32   19   20 1   
    33   19   21 1   
    34   20   40 1   
    35   21   41 1   
    36   22   42 1   
    37   23   24 1   
    38   23   25 1   
    39   26   27 1   
    40   27   43 1   
    41   27   44 1   
    42   27   45 1   
@<TRIPOS>SUBSTRUCTURE
     1 MOX         1 TEMP              0 ****  ****    0 ROOT
