@<TRIPOS>MOLECULE
MOX
   46    47     1     0     0
SMALL
bcc


@<TRIPOS>ATOM
      1 C1          1.7280   -0.0450   -0.2500 c         1 MOX      0.566900
      2 O1          2.3980   -0.8390    0.4010 o         1 MOX     -0.502100
      3 C2          0.1990    0.0640   -0.1030 c3        1 MOX      0.225000
      4 N2         -0.2510   -0.0170    1.3340 n4        1 MOX     -0.707800
      5 C3         -0.2650    1.4430   -0.7600 c3        1 MOX      0.330300
      6 O4          0.1460    1.3160   -2.1290 os        1 MOX     -0.453600
      7 C5         -0.6920    1.9490   -3.0950 c3        1 MOX      0.176600
      8 C6         -2.1520    1.8190   -2.8140 ce        1 MOX     -0.270800
      9 C7         -2.5060    1.9110   -1.3800 ce        1 MOX      0.482600
     10 C8         -3.9950    2.2540   -1.0600 c         1 MOX      0.845300
     11 N8         -1.6380    1.7370   -0.4390 n2        1 MOX     -0.684900
     12 C9         -3.0670    1.6430   -3.7700 c2        1 MOX     -0.139000
     13 C21         0.2740    1.0430    2.2700 c         1 MOX      0.608100
     14 O21         1.1960    1.7390    1.8610 o         1 MOX     -0.495100
     15 C22        -0.3790    1.0140    3.6260 c3        1 MOX     -0.227400
     16 C23        -0.0730    2.2640    4.3740 ca        1 MOX     -0.103300
     17 C24        -0.9070    3.3770    4.1980 ca        1 MOX     -0.059500
     18 C25        -0.6610    4.5640    4.8800 ca        1 MOX     -0.196500
     19 C26         0.4340    4.6370    5.7520 ca        1 MOX      0.121100
     20 O26         0.7410    5.7820    6.4570 oh        1 MOX     -0.508100
     21 C27         1.2740    3.5310    5.9460 ca        1 MOX     -0.196500
     22 C28         1.0130    2.3510    5.2550 ca        1 MOX     -0.059500
     23 C29         0.0050   -0.3430    4.3440 c         1 MOX      0.935600
     24 O30         0.2640   -0.3290    5.5610 o         1 MOX     -0.784300
     25 O31        -0.0300   -1.3780    3.6100 o         1 MOX     -0.784300
     26 O61        -0.4470   -0.9490   -0.8560 os        1 MOX     -0.366600
     27 C62        -0.1780   -2.2960   -0.4810 c3        1 MOX      0.078700
     28 O81        -4.8100    1.3090   -1.1970 o         1 MOX     -0.787300
     29 O82        -4.2350    3.4400   -0.7400 o         1 MOX     -0.787300
     30 H1          2.1430    0.6350   -1.0240 h4        1 MOX      0.058200
     31 HN2         0.0420   -0.9330    1.7640 hn        1 MOX      0.490800
     32 H3          0.3890    2.2470   -0.2990 h2        1 MOX      0.081700
     33 H5         -0.4100    3.0380   -3.1350 h1        1 MOX      0.047200
     34 H5A        -0.4020    1.4490   -4.0590 h1        1 MOX      0.047200
     35 H9         -4.1390    1.5670   -3.5240 ha        1 MOX      0.129000
     36 H9A        -2.7990    1.5580   -4.8310 ha        1 MOX      0.129000
     37 H22        -1.4990    0.9420    3.4990 hc        1 MOX      0.100700
     38 H24        -1.7680    3.3180    3.5130 ha        1 MOX      0.157000
     39 H25        -1.3170    5.4330    4.7350 ha        1 MOX      0.137000
     40 HO26        0.0800    6.4510    6.2300 ho        1 MOX      0.412000
     41 H27         2.1200    3.6040    6.6420 ha        1 MOX      0.137000
     42 H28         1.6470    1.4640    5.4240 ha        1 MOX      0.157000
     43 H62         0.9060   -2.4670   -0.2720 h1        1 MOX      0.057033
     44 H62A       -0.5030   -2.8830   -1.3790 h1        1 MOX      0.057033
     45 H62B       -0.7990   -2.5790    0.4050 h1        1 MOX      0.057033
     46 H221       -1.2790    0.0140    1.3510 hn        1 MOX      0.490800
@<TRIPOS>BOND
     1    1    2 2   
     2    1    3 1   
     3    1   30 1   
     4    3    4 1   
     5    3    5 1   
     6    3   26 1   
     7    4   13 1   
     8    4   31 1   
     9    4   46 1   
    10    5    6 1   
    11    5   11 1   
    12    5   32 1   
    13    6    7 1   
    14    7    8 1   
    15    7   33 1   
    16    7   34 1   
    17    8    9 1   
    18    8   12 2   
    19    9   10 1   
    20    9   11 2   
    21   10   28 1   
    22   10   29 1   
    23   12   35 1   
    24   12   36 1   
    25   13   14 2   
    26   13   15 1   
    27   15   16 1   
    28   15   23 1   
    29   15   37 1   
    30   16   17 ar  
    31   16   22 ar  
    32   17   18 ar  
    33   17   38 1   
    34   18   19 ar  
    35   18   39 1   
    36   19   20 1   
    37   19   21 ar  
    38   20   40 1   
    39   21   22 ar  
    40   21   41 1   
    41   22   42 1   
    42   23   24 1   
    43   23   25 1   
    44   26   27 1   
    45   27   43 1   
    46   27   44 1   
    47   27   45 1   
@<TRIPOS>SUBSTRUCTURE
     1 MOX         1 TEMP              0 ****  ****    0 ROOT
