@<TRIPOS>MOLECULE
MOY
   42    44     1     0     0
SMALL
bcc


@<TRIPOS>ATOM
      1 S          -3.1530   -2.2150   -5.3130 s         1 MOY     -0.559400
      2 O3          1.0100    1.5040   -1.5520 o         1 MOY     -0.526100
      3 O4         -4.1810    3.2060   -2.0130 oh        1 MOY     -0.493100
      4 N1         -2.2350   -1.6900   -2.9420 n         1 MOY     -0.496900
      5 N2         -1.0660   -0.6700   -4.7630 n         1 MOY     -0.342000
      6 C1         -2.1190   -1.4790   -4.3030 c         1 MOY      0.566400
      7 C2         -0.1400   -0.1050   -3.8670 c2        1 MOY      0.107400
      8 C3         -0.3150   -0.2200   -2.5180 ce        1 MOY     -0.300400
      9 C4         -1.5310   -0.9030   -1.9460 c3        1 MOY      0.198200
     10 C6          1.0380    0.6090   -4.4530 c3        1 MOY     -0.078900
     11 C17         0.6420    0.3220   -1.5320 c         1 MOY      0.608900
     12 C18         1.1540   -0.6200   -0.5090 ca        1 MOY     -0.170600
     13 C19         1.3100   -1.9830   -0.7890 ca        1 MOY     -0.085500
     14 C20         1.8250   -2.8400    0.1820 ca        1 MOY     -0.143000
     15 C21         2.1820   -2.3440    1.4360 ca        1 MOY     -0.104000
     16 C22         2.0310   -0.9860    1.7180 ca        1 MOY     -0.143000
     17 C23         1.5250   -0.1230    0.7480 ca        1 MOY     -0.085500
     18 C24        -2.4410    0.0980   -1.2600 ca        1 MOY     -0.096300
     19 C25        -2.9080    1.2180   -1.9460 ca        1 MOY     -0.126000
     20 C26        -3.7540    2.1220   -1.2820 ca        1 MOY      0.126100
     21 C27        -4.1320    1.9100    0.0510 ca        1 MOY     -0.202000
     22 C28        -3.6560    0.7830    0.7190 ca        1 MOY     -0.093000
     23 C29        -2.8180   -0.1220    0.0710 ca        1 MOY     -0.151000
     24 HO4        -4.7420    3.7490   -1.4410 ho        1 MOY      0.420000
     25 HN1        -3.0790   -2.1390   -2.6470 hn        1 MOY      0.349500
     26 H4         -1.1790   -1.6470   -1.1580 h1        1 MOY      0.077700
     27 H51        -0.7090    0.5850   -6.4080 h1        1 MOY      0.068367
     28 H52        -1.7700   -0.8740   -6.7440 h1        1 MOY      0.068367
     29 H53         0.0340   -1.0870   -6.5140 h1        1 MOY      0.068367
     30 H61         1.7730    0.8760   -3.6540 hc        1 MOY      0.069033
     31 H62         0.7000    1.5580   -4.9430 hc        1 MOY      0.069033
     32 H63         1.5570   -0.0250   -5.2150 hc        1 MOY      0.069033
     33 H19         1.0310   -2.3750   -1.7800 ha        1 MOY      0.147500
     34 H20         1.9500   -3.9090   -0.0440 ha        1 MOY      0.138000
     35 H21         2.5850   -3.0240    2.2010 ha        1 MOY      0.136000
     36 H22         2.3160   -0.5930    2.7050 ha        1 MOY      0.138000
     37 H23         1.4190    0.9540    0.9540 ha        1 MOY      0.147500
     38 H25        -2.6180    1.4120   -2.9890 ha        1 MOY      0.157000
     39 H27        -4.7940    2.6240    0.5620 ha        1 MOY      0.136000
     40 H28        -3.9470    0.6080    1.7660 ha        1 MOY      0.136000
     41 H29        -2.4500   -1.0070    0.6100 ha        1 MOY      0.136000
     42 C5         -0.8650   -0.5030   -6.1820 c3        1 MOY      0.060300
@<TRIPOS>BOND
     1    1    6 2   
     2    2   11 2   
     3    3   20 1   
     4    3   24 1   
     5    4    6 1   
     6    4    9 1   
     7    4   25 1   
     8    5    6 1   
     9    5    7 1   
    10    5   42 1   
    11    7    8 2   
    12    7   10 1   
    13    8    9 1   
    14    8   11 1   
    15    9   18 1   
    16    9   26 1   
    17   10   30 1   
    18   10   31 1   
    19   10   32 1   
    20   11   12 1   
    21   12   13 ar  
    22   12   17 ar  
    23   13   14 ar  
    24   13   33 1   
    25   14   15 ar  
    26   14   34 1   
    27   15   16 ar  
    28   15   35 1   
    29   16   17 ar  
    30   16   36 1   
    31   17   37 1   
    32   18   19 ar  
    33   18   23 ar  
    34   19   20 ar  
    35   19   38 1   
    36   20   21 ar  
    37   21   22 ar  
    38   21   39 1   
    39   22   23 ar  
    40   22   40 1   
    41   23   41 1   
    42   27   42 1   
    43   28   42 1   
    44   29   42 1   
@<TRIPOS>SUBSTRUCTURE
     1 MOY         1 TEMP              0 ****  ****    0 ROOT
