@<TRIPOS>MOLECULE
MOY
   42    44     1     0     0
SMALL
bcc


@<TRIPOS>ATOM
      1 S           0.0660   -1.4290    0.0230 s         1 MOY     -0.543400
      2 O3          6.1480    1.3550   -0.9670 o         1 MOY     -0.530100
      3 O4          6.2180    4.1800    2.4610 oh        1 MOY     -0.496100
      4 N1          2.1820   -0.2470    0.9520 ns        1 MOY     -0.419100
      5 N2          2.2150   -0.7450   -1.3820 n         1 MOY     -0.334000
      6 C1          1.5360   -0.7760   -0.1540 c         1 MOY      0.564400
      7 C2          3.5640   -0.3590   -1.4350 cc        1 MOY      0.096400
      8 C3          4.1770    0.1810   -0.3310 cd        1 MOY     -0.243200
      9 C4          3.3860    0.4890    0.8700 cd        1 MOY      0.050600
     10 C6          4.2970   -0.5850   -2.7190 c3        1 MOY     -0.079900
     11 C17         5.6450    0.4070   -0.3470 c         1 MOY      0.621500
     12 C18         6.4730   -0.5620    0.3740 ce        1 MOY     -0.253500
     13 C19         5.9250   -1.5570    1.3690 c3        1 MOY     -0.010000
     14 C20         6.5690   -2.9040    1.1540 c2        1 MOY     -0.147200
     15 C21         7.7760   -3.0760    0.5700 ce        1 MOY     -0.148000
     16 C22         8.5670   -1.8570    0.3190 ce        1 MOY     -0.160100
     17 C23         7.7570   -0.8250    0.1280 c1        1 MOY      0.067200
     18 C24         3.7160    1.4300    1.8150 ce        1 MOY     -0.102200
     19 C25         4.9570    2.2430    1.6420 c3        1 MOY     -0.037000
     20 C26         5.1330    3.3500    2.6230 c2        1 MOY      0.096900
     21 C27         4.3000    3.5710    3.6690 cf        1 MOY     -0.206000
     22 C28         3.1750    2.6960    3.8520 cf        1 MOY     -0.078000
     23 C29         2.9050    1.6920    2.9870 ce        1 MOY     -0.165000
     24 HO4         6.6770    3.9220    1.6480 ho        1 MOY      0.424000
     25 HN1         2.0310    1.0560    3.1920 ha        1 MOY      0.118000
     26 H4          1.6490   -0.2320    1.7980 hn        1 MOY      0.359500
     27 H51         2.0700   -2.0760   -3.0090 h1        1 MOY      0.070033
     28 H52         0.4770   -1.4450   -2.3580 h1        1 MOY      0.070033
     29 H53         1.5700   -0.3440   -3.3400 h1        1 MOY      0.070033
     30 H61         3.7900   -0.0450   -3.5580 hc        1 MOY      0.069700
     31 H62         5.3460   -0.2040   -2.6500 hc        1 MOY      0.069700
     32 H63         4.3300   -1.6770   -2.9640 hc        1 MOY      0.069700
     33 H19         4.8170   -1.6410    1.2020 hc        1 MOY      0.086200
     34 H20         6.0870   -1.2430    2.4350 hc        1 MOY      0.086200
     35 H21         5.9890   -3.7580    1.5350 ha        1 MOY      0.143000
     36 H22         8.2300   -4.0550    0.3800 ha        1 MOY      0.148000
     37 H23         9.6550   -1.8580    0.4200 ha        1 MOY      0.170000
     38 H25         5.8610    1.5700    1.7290 hc        1 MOY      0.078200
     39 H27         4.9630    2.6870    0.6040 hc        1 MOY      0.078200
     40 H28         4.4660    4.3950    4.3760 ha        1 MOY      0.151000
     41 H29         2.5340    2.8760    4.7290 ha        1 MOY      0.133000
     42 C5          1.5480   -1.1760   -2.5860 c3        1 MOY      0.061300
@<TRIPOS>BOND
     1    1    6 2   
     2    2   11 2   
     3    3   20 1   
     4    3   24 1   
     5    4    6 1   
     6    4    9 1   
     7    4   26 1   
     8    5    6 1   
     9    5    7 1   
    10    5   42 1   
    11    7    8 2   
    12    7   10 1   
    13    8    9 1   
    14    8   11 1   
    15    9   18 2   
    16   10   30 1   
    17   10   31 1   
    18   10   32 1   
    19   11   12 1   
    20   12   13 1   
    21   12   17 2   
    22   13   14 1   
    23   13   33 1   
    24   13   34 1   
    25   14   15 2   
    26   14   35 1   
    27   15   16 1   
    28   15   36 1   
    29   16   17 2   
    30   16   37 1   
    31   18   19 1   
    32   18   23 1   
    33   19   20 1   
    34   19   38 1   
    35   19   39 1   
    36   20   21 2   
    37   21   22 1   
    38   21   40 1   
    39   22   23 2   
    40   22   41 1   
    41   23   25 1   
    42   27   42 1   
    43   28   42 1   
    44   29   42 1   
@<TRIPOS>SUBSTRUCTURE
     1 MOY         1 TEMP              0 ****  ****    0 ROOT
