@<TRIPOS>MOLECULE
MOY
   42    44     1     0     0
SMALL
bcc


@<TRIPOS>ATOM
      1 S           0.4030    0.8140   -1.7800 s         1 MOY     -0.513400
      2 O3          6.8700    0.7520   -0.5720 o         1 MOY     -0.523100
      3 O4          2.7640    3.8170    3.7680 oh        1 MOY     -0.496100
      4 N1          2.2230    0.2380   -0.0030 n4        1 MOY     -0.410600
      5 N2          2.8930    0.0170   -2.3500 n         1 MOY     -0.173400
      6 C1          1.9040    0.3320   -1.4730 c         1 MOY      0.298400
      7 C2          4.2240   -0.2170   -1.9310 cc        1 MOY     -0.009100
      8 C3          4.5790    0.0750   -0.6280 cc        1 MOY     -0.081800
      9 C4          3.6090    0.4920    0.3250 cd        1 MOY     -0.258000
     10 C6          5.1930   -0.7370   -2.9340 c3        1 MOY     -0.109400
     11 C17         5.9990   -0.0310   -0.1760 c         1 MOY      0.643500
     12 C18         6.3160   -1.2000    0.6590 ce        1 MOY     -0.179500
     13 C19         7.4480   -1.1330    1.6550 c3        1 MOY     -0.014000
     14 C20         7.0850   -1.8910    2.9030 c2        1 MOY     -0.128200
     15 C21         6.1280   -2.8460    2.9580 ce        1 MOY     -0.160000
     16 C22         5.5840   -3.3080    1.6730 ce        1 MOY     -0.148100
     17 C23         5.6420   -2.3400    0.7630 c1        1 MOY     -0.021800
     18 C24         3.9860    1.1180    1.5370 cf        1 MOY      0.014700
     19 C25         3.0340    1.6770    2.5590 c3        1 MOY     -0.049000
     20 C26         3.6250    2.9460    3.1360 c2        1 MOY      0.046900
     21 C27         4.9540    3.2370    3.1340 ce        1 MOY     -0.173000
     22 C28         5.8590    2.1800    2.6840 ce        1 MOY     -0.108100
     23 C29         5.2900    1.2840    1.8800 c1        1 MOY     -0.194800
     24 HO4         1.8700    3.6420    3.4430 ho        1 MOY      0.410000
     25 HN1         1.5930    0.9010    0.4720 hn        1 MOY      0.434800
     26 H4          1.9820   -0.7140    0.3040 hn        1 MOY      0.434800
     27 H51         2.9160   -0.9890   -4.1930 h1        1 MOY      0.080700
     28 H52         1.4960    0.1520   -3.9400 h1        1 MOY      0.080700
     29 H53         3.1710    0.8260   -4.2710 h1        1 MOY      0.080700
     30 H61         4.8930   -1.7550   -3.2890 hc        1 MOY      0.050367
     31 H62         6.2100   -0.8090   -2.4730 hc        1 MOY      0.050367
     32 H63         5.2660   -0.0560   -3.8200 hc        1 MOY      0.050367
     33 H19         7.5700   -0.0400    1.9040 hc        1 MOY      0.092200
     34 H20         8.4240   -1.5120    1.2550 hc        1 MOY      0.092200
     35 H21         7.6720   -1.6200    3.7930 ha        1 MOY      0.135000
     36 H22         5.8340   -3.3570    3.8810 ha        1 MOY      0.138000
     37 H23         5.3160   -4.3560    1.5200 ha        1 MOY      0.155000
     38 H25         2.0420    1.9220    2.0970 hc        1 MOY      0.060700
     39 H27         2.8530    0.9590    3.4050 hc        1 MOY      0.060700
     40 H28         5.3490    4.1740    3.5420 ha        1 MOY      0.151000
     41 H29         6.8850    2.1480    3.0610 ha        1 MOY      0.142000
     42 C5          2.5990    0.0000   -3.7680 c3        1 MOY      0.049300
@<TRIPOS>BOND
     1    1    6 2   
     2    2   11 2   
     3    3   20 1   
     4    3   24 1   
     5    4    6 1   
     6    4    9 1   
     7    4   25 1   
     8    4   26 1   
     9    5    6 1   
    10    5    7 2   
    11    5   42 1   
    12    7    8 1   
    13    7   10 1   
    14    8    9 2   
    15    8   11 1   
    16    9   18 1   
    17   10   30 1   
    18   10   31 1   
    19   10   32 1   
    20   11   12 1   
    21   12   13 1   
    22   12   17 2   
    23   13   14 1   
    24   13   33 1   
    25   13   34 1   
    26   14   15 2   
    27   14   35 1   
    28   15   16 1   
    29   15   36 1   
    30   16   17 2   
    31   16   37 1   
    32   18   19 1   
    33   18   23 2   
    34   19   20 1   
    35   19   38 1   
    36   19   39 1   
    37   20   21 2   
    38   21   22 1   
    39   21   40 1   
    40   22   23 2   
    41   22   41 1   
    42   27   42 1   
    43   28   42 1   
    44   29   42 1   
@<TRIPOS>SUBSTRUCTURE
     1 MOY         1 TEMP              0 ****  ****    0 ROOT
