@<TRIPOS>MOLECULE
MOY
   42    40     1     0     0
SMALL
bcc


@<TRIPOS>ATOM
      1 S          -4.4460   -0.2910   -0.1600 s         1 MOY     -0.274000
      2 O3          2.2180    0.5270   -0.5770 o         1 MOY     -0.295000
      3 O4         -2.1390    4.9560    1.4530 oh        1 MOY     -0.251000
      4 N1         -2.0690   -0.2290    0.9900 n         1 MOY     -0.302000
      5 N2         -2.0700   -0.6300   -1.4230 n         1 MOY     -0.233000
      6 C1         -2.7870   -0.2470   -0.1980 c2        1 MOY      0.148000
      7 C2         -0.6310   -0.8150   -1.3410 c2        1 MOY      0.108000
      8 C3          0.0570   -0.4230   -0.0050 c1        1 MOY     -0.281000
      9 C4         -0.7450    0.2290    0.9590 c3        1 MOY      0.107000
     10 C5         -2.7920   -1.1170   -2.5580 c3        1 MOY     -0.095000
     11 C6          0.0640   -1.7740   -2.3070 c3        1 MOY     -0.202000
     12 C17         1.6120   -0.3270    0.0820 c1        1 MOY      0.332000
     13 C18         2.3900   -1.3000    0.9780 c2        1 MOY     -0.151000
     14 C19         2.2510   -2.6580    0.7960 c2        1 MOY     -0.091000
     15 C20         3.0570   -3.5320    1.4880 c1        1 MOY     -0.143000
     16 C21         4.0150   -3.0430    2.3740 c1        1 MOY     -0.122000
     17 C22         4.1540   -1.6940    2.5560 c1        1 MOY     -0.122000
     18 C23         3.3440   -0.8140    1.8600 c1        1 MOY     -0.074000
     19 C24        -0.8850    1.6310    0.3920 c2        1 MOY     -0.087000
     20 C25        -1.5200    2.6270    1.1370 c2        1 MOY     -0.154000
     21 C26        -1.6190    3.9060    0.6340 c2        1 MOY      0.079000
     22 C27        -1.0850    4.2030   -0.6150 c2        1 MOY     -0.202000
     23 C28        -0.4610    3.2210   -1.3470 c1        1 MOY     -0.090000
     24 C29        -0.3610    1.9250   -0.8370 c1        1 MOY     -0.136000
     25 HO4        -2.7680    5.4130    0.9930 ho        1 MOY      0.220000
     26 HN1        -2.5000   -0.3170    1.7800 hn        1 MOY      0.261000
     27 H4         -0.3080    0.3960    1.8670 h1        1 MOY      0.120000
     28 H51        -3.7090   -0.7170   -2.5690 h1        1 MOY      0.107667
     29 H52        -2.3100   -0.8610   -3.3890 h1        1 MOY      0.107667
     30 H53        -2.8630   -2.1140   -2.5060 h1        1 MOY      0.107667
     31 H61         1.0040   -1.7620   -2.1480 hc        1 MOY      0.107667
     32 H62        -0.1200   -1.4860   -3.2550 hc        1 MOY      0.107667
     33 H63        -0.2850   -2.6960   -2.1670 hc        1 MOY      0.107667
     34 H19         1.5710   -3.0040    0.1680 ha        1 MOY      0.142000
     35 H20         2.9580   -4.4970    1.3590 ha        1 MOY      0.138000
     36 H21         4.5890   -3.6660    2.8670 ha        1 MOY      0.137500
     37 H22         4.8390   -1.3460    3.1890 ha        1 MOY      0.137500
     38 H23         3.4430    0.1490    1.9900 ha        1 MOY      0.153000
     39 H25        -1.9240    2.4070    2.0290 ha        1 MOY      0.149000
     40 H27        -1.1540    5.0950   -0.9690 ha        1 MOY      0.136000
     41 H28        -0.0880    3.4300   -2.2230 ha        1 MOY      0.139000
     42 H29         0.0730    1.2430   -1.3460 ha        1 MOY      0.154000
@<TRIPOS>BOND
     1    1    6 1   
     2    2   12 1   
     3    3   21 1   
     4    3   25 1   
     5    4    6 1   
     6    4    9 1   
     7    4   26 1   
     8    5    6 1   
     9    5    7 1   
    10    5   10 1   
    11    7    8 1   
    12    7   11 1   
    13    8    9 1   
    14    9   19 1   
    15    9   27 1   
    16   10   28 1   
    17   10   29 1   
    18   10   30 1   
    19   11   31 1   
    20   11   32 1   
    21   11   33 1   
    22   12   13 1   
    23   13   14 1   
    24   13   18 1   
    25   14   15 1   
    26   14   34 1   
    27   15   35 1   
    28   16   17 1   
    29   16   36 1   
    30   17   37 1   
    31   18   38 1   
    32   19   20 1   
    33   19   24 1   
    34   20   21 1   
    35   20   39 1   
    36   21   22 1   
    37   22   23 1   
    38   22   40 1   
    39   23   41 1   
    40   24   42 1   
@<TRIPOS>SUBSTRUCTURE
     1 MOY         1 TEMP              0 ****  ****    0 ROOT
