@<TRIPOS>MOLECULE
MOY
   42    44     1     0     0
SMALL
bcc


@<TRIPOS>ATOM
      1 S           0.1210   -1.4730   -0.1820 s         1 MOY     -0.543400
      2 O3          6.1310    1.5570   -0.8260 o         1 MOY     -0.530100
      3 O4          6.0390    4.1260    2.7960 oh        1 MOY     -0.496100
      4 N1          2.1780   -0.2980    0.8780 n         1 MOY     -0.419100
      5 N2          2.2760   -0.6250   -1.4840 n         1 MOY     -0.334000
      6 C1          1.5730   -0.7660   -0.2770 c         1 MOY      0.564400
      7 C2          3.6130   -0.1960   -1.4770 cc        1 MOY      0.096400
      8 C3          4.1860    0.2810   -0.3230 cd        1 MOY     -0.243200
      9 C4          3.3590    0.4770    0.8780 cd        1 MOY      0.050600
     10 C6          4.3800   -0.3070   -2.7560 c3        1 MOY     -0.079900
     11 C17         5.6450    0.5510   -0.2890 c         1 MOY      0.621500
     12 C18         6.4890   -0.4430    0.3800 ce        1 MOY     -0.253500
     13 C19         5.9510   -1.5230    1.2890 c3        1 MOY     -0.010000
     14 C20         6.6410   -2.8310    0.9920 c2        1 MOY     -0.147200
     15 C21         7.8650   -2.9240    0.4250 ce        1 MOY     -0.148000
     16 C22         8.6230   -1.6680    0.2800 ce        1 MOY     -0.160100
     17 C23         7.7850   -0.6490    0.1440 c1        1 MOY      0.067200
     18 C24         3.6400    1.3570    1.8960 ce        1 MOY     -0.102200
     19 C25         4.8570    2.2160    1.8110 c3        1 MOY     -0.037000
     20 C26         4.9780    3.2550    2.8730 c2        1 MOY      0.096900
     21 C27         4.1170    3.3730    3.9120 cf        1 MOY     -0.206000
     22 C28         3.0160    2.4550    4.0050 cf        1 MOY     -0.078000
     23 C29         2.7970    1.5080    3.0640 ce        1 MOY     -0.165000
     24 HO4         6.5240    3.9410    1.9770 ho        1 MOY      0.424000
     25 HN1         1.9390    0.8330    3.2030 ha        1 MOY      0.118000
     26 H4          1.6270   -0.3610    1.7110 hn        1 MOY      0.359500
     27 H51         2.2080   -1.8390   -3.2040 h1        1 MOY      0.070033
     28 H52         0.5830   -1.3040   -2.5470 h1        1 MOY      0.070033
     29 H53         1.6610   -0.1030   -3.4230 h1        1 MOY      0.070033
     30 H61         4.4530   -1.3760   -3.0780 hc        1 MOY      0.069700
     31 H62         5.4150    0.1000   -2.6350 hc        1 MOY      0.069700
     32 H63         3.8740    0.2780   -3.5660 hc        1 MOY      0.069700
     33 H19         4.8500   -1.6270    1.0910 hc        1 MOY      0.086200
     34 H20         6.0810   -1.2820    2.3770 hc        1 MOY      0.086200
     35 H21         6.0810   -3.7270    1.2980 ha        1 MOY      0.143000
     36 H22         8.3530   -3.8730    0.1750 ha        1 MOY      0.148000
     37 H23         9.7070   -1.6440    0.4050 ha        1 MOY      0.170000
     38 H25         5.7800    1.5670    1.8710 hc        1 MOY      0.078200
     39 H27         4.8720    2.7340    0.8080 hc        1 MOY      0.078200
     40 H28         4.2410    4.1490    4.6800 ha        1 MOY      0.151000
     41 H29         2.3510    2.5510    4.8770 ha        1 MOY      0.133000
     42 C5          1.6490   -0.9870   -2.7310 c3        1 MOY      0.061300
@<TRIPOS>BOND
     1    1    6 2   
     2    2   11 2   
     3    3   20 1   
     4    3   24 1   
     5    4    6 1   
     6    4    9 1   
     7    4   26 1   
     8    5    6 1   
     9    5    7 1   
    10    5   42 1   
    11    7    8 2   
    12    7   10 1   
    13    8    9 1   
    14    8   11 1   
    15    9   18 2   
    16   10   30 1   
    17   10   31 1   
    18   10   32 1   
    19   11   12 1   
    20   12   13 1   
    21   12   17 2   
    22   13   14 1   
    23   13   33 1   
    24   13   34 1   
    25   14   15 2   
    26   14   35 1   
    27   15   16 1   
    28   15   36 1   
    29   16   17 2   
    30   16   37 1   
    31   18   19 1   
    32   18   23 1   
    33   19   20 1   
    34   19   38 1   
    35   19   39 1   
    36   20   21 2   
    37   21   22 1   
    38   21   40 1   
    39   22   23 2   
    40   22   41 1   
    41   23   25 1   
    42   27   42 1   
    43   28   42 1   
    44   29   42 1   
@<TRIPOS>SUBSTRUCTURE
     1 MOY         1 TEMP              0 ****  ****    0 ROOT
