@<TRIPOS>MOLECULE
MP0
   55    55     1     0     0
SMALL
bcc


@<TRIPOS>ATOM
      1 N5         -1.5030    0.4170    1.7870 n3        1 MP0     -0.901800
      2 O5          0.0160    1.9850   -0.1390 oh        1 MP0     -0.605800
      3 N6          4.2820   -1.6160   -0.9850 n         1 MP0     -0.574900
      4 O6          3.2730   -1.7310    1.0680 o         1 MP0     -0.608100
      5 C21        -1.3940    0.0520    0.3890 c3        1 MP0      0.134500
      6 C22        -2.5450    0.5220   -0.5150 c3        1 MP0     -0.115400
      7 C23        -3.9290    0.1360   -0.0240 c3        1 MP0     -0.064700
      8 C24        -4.0940   -1.3740    0.0740 c3        1 MP0     -0.074900
      9 C25        -4.9790    0.7200   -0.9630 c3        1 MP0     -0.074900
     10 C26        -5.4970   -1.7510    0.5030 c3        1 MP0     -0.076400
     11 C27        -6.3800    0.3460   -0.5280 c3        1 MP0     -0.076400
     12 C28        -6.5400   -1.1560   -0.4210 c3        1 MP0     -0.076400
     13 C29        -0.0670    0.5730   -0.2340 c3        1 MP0      0.147100
     14 C30         1.1340   -0.1280    0.3920 c3        1 MP0     -0.101400
     15 C31         2.3530   -0.1300   -0.5200 c3        1 MP0     -0.123700
     16 C32         3.0340    1.2260   -0.6360 c3        1 MP0     -0.080400
     17 C33         4.1030    1.5490    0.3990 c3        1 MP0     -0.067700
     18 C34         4.7750    2.8570    0.0250 c3        1 MP0     -0.094600
     19 C35         3.5530    1.6290    1.8060 c3        1 MP0     -0.094600
     20 C36         3.3360   -1.2070   -0.0610 c         1 MP0      0.657100
     21 C37         5.3140   -2.5490   -0.6650 c3        1 MP0      0.077300
     22 HN5        -1.6510    1.4040    1.8790 hn        1 MP0      0.348800
     23 HO5         0.2590    2.2060    0.7690 ho        1 MP0      0.406000
     24 H21        -1.3550   -1.0780    0.3450 h1        1 MP0      0.062700
     25 H22        -2.4880    1.6390   -0.6170 hc        1 MP0      0.052200
     26 H22A       -2.3860    0.0860   -1.5360 hc        1 MP0      0.052200
     27 H23        -4.1010    0.5790    0.9980 hc        1 MP0      0.040700
     28 H24        -3.8670   -1.8370   -0.9220 hc        1 MP0      0.040950
     29 H24A       -3.3600   -1.7860    0.8140 hc        1 MP0      0.040950
     30 H25        -4.8770    1.8360   -0.9870 hc        1 MP0      0.040950
     31 H25A       -4.7950    0.3430   -2.0040 hc        1 MP0      0.040950
     32 H26        -5.5960   -2.8680    0.5120 hc        1 MP0      0.039200
     33 H26A       -5.6780   -1.3890    1.5500 hc        1 MP0      0.039200
     34 H27        -6.6010    0.8170    0.4660 hc        1 MP0      0.039200
     35 H27A       -7.1200    0.7520   -1.2650 hc        1 MP0      0.039200
     36 H28        -6.4420   -1.6160   -1.4390 hc        1 MP0      0.039700
     37 H28A       -7.5650   -1.4000   -0.0380 hc        1 MP0      0.039700
     38 H29        -0.1070    0.3820   -1.3450 h1        1 MP0      0.067700
     39 H30         1.3840    0.3560    1.3710 hc        1 MP0      0.074700
     40 H30A        0.8590   -1.1930    0.6210 hc        1 MP0      0.074700
     41 H31         1.9930   -0.4120   -1.5540 hc        1 MP0      0.058700
     42 H32         3.5150    1.2840   -1.6510 hc        1 MP0      0.052700
     43 H32A        2.2400    2.0210   -0.6020 hc        1 MP0      0.052700
     44 H33         4.8850    0.7370    0.3770 hc        1 MP0      0.046700
     45 H34         4.0370    3.6950    0.0460 hc        1 MP0      0.037033
     46 H34A        5.5940    3.0900    0.7470 hc        1 MP0      0.037033
     47 H34B        5.2130    2.7970   -1.0000 hc        1 MP0      0.037033
     48 H35         2.6450    2.2790    1.8400 hc        1 MP0      0.037033
     49 H35A        3.2840    0.6070    2.1730 hc        1 MP0      0.037033
     50 H35B        4.3200    2.0580    2.4960 hc        1 MP0      0.037033
     51 H55         4.3870   -1.0890   -1.8180 hn        1 MP0      0.305500
     52 H37         6.2920   -2.0240   -0.4860 h1        1 MP0      0.042700
     53 H37A        5.0400   -3.1230    0.2610 h1        1 MP0      0.042700
     54 H58         5.4450   -3.2670   -1.5190 h1        1 MP0      0.042700
     55 H2         -2.2760   -0.0630    2.2070 hn        1 MP0      0.348800
@<TRIPOS>BOND
     1    1    5 1   
     2    1   22 1   
     3    1   55 1   
     4    2   13 1   
     5    2   23 1   
     6    3   20 1   
     7    3   21 1   
     8    3   51 1   
     9    4   20 2   
    10    5    6 1   
    11    5   13 1   
    12    5   24 1   
    13    6    7 1   
    14    6   25 1   
    15    6   26 1   
    16    7    8 1   
    17    7    9 1   
    18    7   27 1   
    19    8   10 1   
    20    8   28 1   
    21    8   29 1   
    22    9   11 1   
    23    9   30 1   
    24    9   31 1   
    25   10   12 1   
    26   10   32 1   
    27   10   33 1   
    28   11   12 1   
    29   11   34 1   
    30   11   35 1   
    31   12   36 1   
    32   12   37 1   
    33   13   14 1   
    34   13   38 1   
    35   14   15 1   
    36   14   39 1   
    37   14   40 1   
    38   15   16 1   
    39   15   20 1   
    40   15   41 1   
    41   16   17 1   
    42   16   42 1   
    43   16   43 1   
    44   17   18 1   
    45   17   19 1   
    46   17   44 1   
    47   18   45 1   
    48   18   46 1   
    49   18   47 1   
    50   19   48 1   
    51   19   49 1   
    52   19   50 1   
    53   21   52 1   
    54   21   53 1   
    55   21   54 1   
@<TRIPOS>SUBSTRUCTURE
     1 MP0         1 TEMP              0 ****  ****    0 ROOT
