@<TRIPOS>MOLECULE
MP2
   38    38     1     0     0
SMALL
bcc


@<TRIPOS>ATOM
      1 O20         0.3470    0.5870   -0.7110 o         1 MP2     -0.442000
      2 C19         1.0070   -0.4170   -0.4760 c         1 MP2      0.627100
      3 N18         1.5670   -0.7340    0.8710 ny        1 MP2     -0.653800
      4 C15         0.9980    0.1130    1.9740 c3        1 MP2      0.038500
      5 C17        -0.1430   -0.6150    2.6960 c3        1 MP2     -0.052300
      6 S21         0.0980   -2.3550    2.8380 sh        1 MP2     -0.327900
      7 C13         2.1230    0.4910    2.9750 c         1 MP2      0.640100
      8 O14         3.2570   -0.0040    2.8450 o         1 MP2     -0.566100
      9 N           1.8170    1.4290    3.9440 ns        1 MP2     -0.492900
     10 CA          2.5150    1.3710    5.2030 c3        1 MP2     -0.028000
     11 C           2.0630    0.2090    6.0770 c         1 MP2      0.608100
     12 O1          1.2810   -0.6800    5.7250 o         1 MP2     -0.533000
     13 O2          2.5330    0.0910    7.3400 oh        1 MP2     -0.532100
     14 O22         1.3110   -1.3980   -1.3400 os        1 MP2     -0.402900
     15 C23         1.0020   -1.1610   -2.7580 c3        1 MP2      0.211700
     16 C24         2.0610   -0.3440   -3.3950 ca        1 MP2     -0.185300
     17 C29         1.8670    1.0290   -3.5930 ca        1 MP2     -0.093500
     18 C28         2.8420    1.7850   -4.2390 ca        1 MP2     -0.130500
     19 C27         4.0160    1.1760   -4.6880 ca        1 MP2     -0.086000
     20 C26         4.2140   -0.1910   -4.4890 ca        1 MP2     -0.130500
     21 C25         3.2400   -0.9520   -3.8450 ca        1 MP2     -0.093500
     22 H18         1.3790   -1.7460    1.1080 hn        1 MP2      0.498300
     23 H15         0.5930    1.0670    1.5080 hx        1 MP2      0.152700
     24 H171       -0.3150   -0.1520    3.7000 h1        1 MP2      0.125200
     25 H172       -1.0890   -0.4880    2.1050 h1        1 MP2      0.125200
     26 H21         0.7450   -2.4160    4.0120 hs        1 MP2      0.277800
     27 HN          0.8680    1.7370    3.9970 hn        1 MP2      0.321500
     28 HA1         2.3390    2.3420    5.7500 h1        1 MP2      0.117200
     29 HA2         3.6230    1.2560    5.0080 h1        1 MP2      0.117200
     30 H231        0.9870   -2.2220   -3.1350 h1        1 MP2      0.101200
     31 H232       -0.0110   -0.6860   -2.8280 h1        1 MP2      0.101200
     32 H29         0.9380    1.5080   -3.2420 ha        1 MP2      0.142500
     33 H28         2.6830    2.8630   -4.4020 ha        1 MP2      0.152000
     34 H27         4.7830    1.7740   -5.2040 ha        1 MP2      0.153000
     35 H26         5.1370   -0.6720   -4.8480 ha        1 MP2      0.152000
     36 H25         3.3930   -2.0320   -3.6990 ha        1 MP2      0.142500
     37 H182        2.5950   -0.6080    0.8360 hn        1 MP2      0.498300
     38 HN3         3.1510    0.8110    7.5430 ho        1 MP2      0.444000
@<TRIPOS>BOND
     1    1    2 2   
     2    2    3 1   
     3    2   14 1   
     4    3    4 1   
     5    3   22 1   
     6    3   37 1   
     7    4    5 1   
     8    4    7 1   
     9    4   23 1   
    10    5    6 1   
    11    5   24 1   
    12    5   25 1   
    13    6   26 1   
    14    7    8 2   
    15    7    9 1   
    16    9   10 1   
    17    9   27 1   
    18   10   11 1   
    19   10   28 1   
    20   10   29 1   
    21   11   12 2   
    22   11   13 1   
    23   13   38 1   
    24   14   15 1   
    25   15   16 1   
    26   15   30 1   
    27   15   31 1   
    28   16   17 ar  
    29   16   21 ar  
    30   17   18 ar  
    31   17   32 1   
    32   18   19 ar  
    33   18   33 1   
    34   19   20 ar  
    35   19   34 1   
    36   20   21 ar  
    37   20   35 1   
    38   21   36 1   
@<TRIPOS>SUBSTRUCTURE
     1 MP2         1 TEMP              0 ****  ****    0 ROOT
