@<TRIPOS>MOLECULE
MP2
   38    38     1     0     0
SMALL
bcc


@<TRIPOS>ATOM
      1 O20        -0.2820    0.5390   -0.2780 o         1 MP2     -0.446000
      2 C19         0.9170    0.2930   -0.2480 c         1 MP2      0.618100
      3 N18         1.6950    0.1200    1.0130 n4        1 MP2     -0.652800
      4 C15         0.8430    0.1380    2.2510 c3        1 MP2      0.038500
      5 C17         0.5100   -1.2880    2.7110 c3        1 MP2     -0.052300
      6 S21         1.8100   -2.4470    2.4390 sh        1 MP2     -0.327900
      7 C13         1.5740    0.9170    3.3760 c         1 MP2      0.640100
      8 O14         2.7410    1.3100    3.1980 o         1 MP2     -0.566100
      9 N           0.8510    1.1970    4.5210 n         1 MP2     -0.491900
     10 CA          1.5610    1.3250    5.7690 c3        1 MP2     -0.028000
     11 C           2.0510   -0.0120    6.3100 c         1 MP2      0.608100
     12 O1          1.9800   -1.0890    5.7080 o         1 MP2     -0.533000
     13 O2          2.6250   -0.0770    7.5330 oh        1 MP2     -0.532100
     14 O22         1.7200    0.1430   -1.3110 os        1 MP2     -0.400900
     15 C23         1.0670    0.2840   -2.6330 c3        1 MP2      0.217700
     16 C24         2.1580    0.0910   -3.6170 ca        1 MP2     -0.151300
     17 C29         2.8760    1.1950   -4.0920 ca        1 MP2     -0.088000
     18 C28         3.8710    1.0160   -5.0520 ca        1 MP2     -0.129500
     19 C27         4.1550   -0.2620   -5.5350 ca        1 MP2     -0.083000
     20 C26         3.4440   -1.3650   -5.0580 ca        1 MP2     -0.129500
     21 C25         2.4490   -1.1920   -4.0990 ca        1 MP2     -0.088000
     22 H18         2.4050    0.8730    1.0710 hn        1 MP2      0.498800
     23 H15        -0.1240    0.6790    2.0020 hx        1 MP2      0.152700
     24 H171        0.2000   -1.2790    3.7860 h1        1 MP2      0.125700
     25 H172       -0.3630   -1.6690    2.1160 h1        1 MP2      0.125700
     26 H21         2.4800   -2.3360    3.5960 hs        1 MP2      0.278800
     27 HN          2.6620    0.8030    7.9390 ho        1 MP2      0.445000
     28 HA1         0.8700    1.8030    6.5220 h1        1 MP2      0.117700
     29 HA2         2.4590    1.9950    5.6180 h1        1 MP2      0.117700
     30 H231        0.2740   -0.5050   -2.6920 h1        1 MP2      0.082700
     31 H232        0.6140    1.3080   -2.6690 h1        1 MP2      0.082700
     32 H29         2.6500    2.2050   -3.7160 ha        1 MP2      0.137000
     33 H28         4.4300    1.8860   -5.4310 ha        1 MP2      0.152000
     34 H27         4.9400   -0.4010   -6.2950 ha        1 MP2      0.153000
     35 H26         3.6670   -2.3720   -5.4420 ha        1 MP2      0.152000
     36 H25         1.8860   -2.0620   -3.7270 ha        1 MP2      0.137000
     37 H182        2.2120   -0.8010    0.9870 hn        1 MP2      0.498800
     38 HN3        -0.0650    0.8040    4.5910 hn        1 MP2      0.321500
@<TRIPOS>BOND
     1    1    2 2   
     2    2    3 1   
     3    2   14 1   
     4    3    4 1   
     5    3   22 1   
     6    3   37 1   
     7    4    5 1   
     8    4    7 1   
     9    4   23 1   
    10    5    6 1   
    11    5   24 1   
    12    5   25 1   
    13    6   26 1   
    14    7    8 2   
    15    7    9 1   
    16    9   10 1   
    17    9   38 1   
    18   10   11 1   
    19   10   28 1   
    20   10   29 1   
    21   11   12 2   
    22   11   13 1   
    23   13   27 1   
    24   14   15 1   
    25   15   16 1   
    26   15   30 1   
    27   15   31 1   
    28   16   17 ar  
    29   16   21 ar  
    30   17   18 ar  
    31   17   32 1   
    32   18   19 ar  
    33   18   33 1   
    34   19   20 ar  
    35   19   34 1   
    36   20   21 ar  
    37   20   35 1   
    38   21   36 1   
@<TRIPOS>SUBSTRUCTURE
     1 MP2         1 TEMP              0 ****  ****    0 ROOT
