@<TRIPOS>MOLECULE
MP2
   36    36     1     0     0
SMALL
bcc


@<TRIPOS>ATOM
      1 O20        -1.0080    0.7680   -1.9730 o         1 MP2     -0.588000
      2 C19        -1.0730    0.6020   -0.7440 c         1 MP2      0.726100
      3 N18        -0.1560    0.9370    0.2400 n         1 MP2     -0.482900
      4 C15         1.2520    1.0160   -0.1230 c3        1 MP2     -0.000300
      5 C17         1.9010    2.2870    0.4480 c3        1 MP2      0.020700
      6 S21         3.1860    2.8940   -0.6060 sh        1 MP2     -0.498900
      7 C13         2.0520   -0.2060    0.4170 c         1 MP2      0.609100
      8 O14         1.5550   -0.9230    1.3150 o         1 MP2     -0.645100
      9 N           3.2570   -0.4660   -0.1880 n         1 MP2     -0.489900
     10 CA          4.2840   -1.2250    0.4890 c3        1 MP2     -0.074000
     11 C           5.5540   -0.4000    0.8460 c         1 MP2      0.904600
     12 O1          6.5070   -1.0360    1.3640 o         1 MP2     -0.838300
     13 O2          5.5680    0.8440    0.6010 o         1 MP2     -0.838300
     14 O22        -2.2550    0.1010   -0.2190 os        1 MP2     -0.447900
     15 C23        -3.3040   -0.0960   -1.1820 c3        1 MP2      0.194700
     16 C24        -4.4830   -0.6670   -0.4690 ca        1 MP2     -0.085300
     17 C29        -5.7600   -0.4560   -1.0040 ca        1 MP2     -0.114000
     18 C28        -6.8780   -1.0080   -0.3820 ca        1 MP2     -0.134500
     19 C27        -6.7300   -1.7670    0.7790 ca        1 MP2     -0.134000
     20 C26        -5.4600   -1.9740    1.3170 ca        1 MP2     -0.134500
     21 C25        -4.3380   -1.4280    0.6950 ca        1 MP2     -0.114000
     22 H18        -0.3230    0.5220    1.1370 hn        1 MP2      0.325500
     23 H15         1.3270    1.0520   -1.2540 h1        1 MP2      0.115700
     24 H171        1.1530    3.1170    0.4990 h1        1 MP2      0.082200
     25 H172        2.2820    2.0960    1.4780 h1        1 MP2      0.082200
     26 H21         4.2770    2.2780   -0.0540 hs        1 MP2      0.342800
     27 HN          3.6310    0.2830   -0.7450 hn        1 MP2      0.313500
     28 HA1         4.5930   -2.0620   -0.1960 h1        1 MP2      0.056700
     29 HA2         3.8770   -1.6730    1.4350 h1        1 MP2      0.056700
     30 H231       -3.5450    0.8920   -1.6570 h1        1 MP2      0.061700
     31 H232       -2.9380   -0.8040   -1.9750 h1        1 MP2      0.061700
     32 H29        -5.8780    0.1480   -1.9160 ha        1 MP2      0.143000
     33 H28        -7.8780   -0.8420   -0.8070 ha        1 MP2      0.128000
     34 H27        -7.6140   -2.2000    1.2690 ha        1 MP2      0.124000
     35 H26        -5.3400   -2.5700    2.2340 ha        1 MP2      0.128000
     36 H25        -3.3330   -1.5850    1.1190 ha        1 MP2      0.143000
@<TRIPOS>BOND
     1    1    2 2   
     2    2    3 1   
     3    2   14 1   
     4    3    4 1   
     5    3   22 1   
     6    4    5 1   
     7    4    7 1   
     8    4   23 1   
     9    5    6 1   
    10    5   24 1   
    11    5   25 1   
    12    6   26 1   
    13    7    8 2   
    14    7    9 1   
    15    9   10 1   
    16    9   27 1   
    17   10   11 1   
    18   10   28 1   
    19   10   29 1   
    20   11   12 1   
    21   11   13 1   
    22   14   15 1   
    23   15   16 1   
    24   15   30 1   
    25   15   31 1   
    26   16   17 ar  
    27   16   21 ar  
    28   17   18 ar  
    29   17   32 1   
    30   18   19 ar  
    31   18   33 1   
    32   19   20 ar  
    33   19   34 1   
    34   20   21 ar  
    35   20   35 1   
    36   21   36 1   
@<TRIPOS>SUBSTRUCTURE
     1 MP2         1 TEMP              0 ****  ****    0 ROOT
