@<TRIPOS>MOLECULE
MP2
   38    38     1     0     0
SMALL
bcc


@<TRIPOS>ATOM
      1 O20         0.5130    1.0260   -0.6360 o         1 MP2     -0.442000
      2 C19         0.8960   -0.1240   -0.4630 c         1 MP2      0.627100
      3 N18         1.3850   -0.6380    0.8500 n4        1 MP2     -0.653800
      4 C15         1.0770    0.2730    2.0050 c3        1 MP2      0.038500
      5 C17        -0.1970   -0.1720    2.7340 c3        1 MP2     -0.052300
      6 S21        -0.4080   -1.9200    2.7980 sh        1 MP2     -0.327900
      7 C13         2.2820    0.3020    2.9820 c         1 MP2      0.640100
      8 O14         3.2480   -0.4600    2.7950 o         1 MP2     -0.566100
      9 N           2.2490    1.2400    3.9980 n         1 MP2     -0.492900
     10 CA          2.9360    0.9460    5.2300 c3        1 MP2     -0.028000
     11 C           2.2200   -0.1020    6.0710 c         1 MP2      0.608100
     12 O1          1.2280   -0.7440    5.7100 o         1 MP2     -0.533000
     13 O2          2.6710   -0.3970    7.3110 oh        1 MP2     -0.532100
     14 O22         0.9160   -1.1080   -1.3760 os        1 MP2     -0.402900
     15 C23         0.6470   -0.7330   -2.7720 c3        1 MP2      0.211700
     16 C24         1.8680   -0.1880   -3.4110 ca        1 MP2     -0.185300
     17 C29         2.0310    1.1970   -3.5480 ca        1 MP2     -0.093500
     18 C28         3.1550    1.7060   -4.1950 ca        1 MP2     -0.130500
     19 C27         4.1200    0.8370   -4.7080 ca        1 MP2     -0.086000
     20 C26         3.9620   -0.5430   -4.5710 ca        1 MP2     -0.130500
     21 C25         2.8380   -1.0570   -3.9250 ca        1 MP2     -0.093500
     22 H18         2.4100   -0.7770    0.7850 hn        1 MP2      0.498300
     23 H15         0.9200    1.3210    1.5920 hx        1 MP2      0.152700
     24 H171       -1.0920    0.2210    2.1810 h1        1 MP2      0.125200
     25 H172       -0.2230    0.2720    3.7620 h1        1 MP2      0.125200
     26 H21         0.2260   -2.2000    3.9460 hs        1 MP2      0.277800
     27 HN          3.4580    0.1300    7.5220 ho        1 MP2      0.444000
     28 HA1         3.0270    1.9020    5.8210 h1        1 MP2      0.117200
     29 HA2         3.9730    0.5600    4.9930 h1        1 MP2      0.117200
     30 H231       -0.2100   -0.0110   -2.7890 h1        1 MP2      0.101200
     31 H232        0.3500   -1.7360   -3.1890 h1        1 MP2      0.101200
     32 H29         1.2670    1.8820   -3.1460 ha        1 MP2      0.142500
     33 H28         3.2770    2.7940   -4.3100 ha        1 MP2      0.152000
     34 H27         5.0050    1.2400   -5.2250 ha        1 MP2      0.153000
     35 H26         4.7200   -1.2280   -4.9800 ha        1 MP2      0.152000
     36 H25         2.7090   -2.1460   -3.8280 ha        1 MP2      0.142500
     37 H182        0.9480   -1.5770    1.0520 hn        1 MP2      0.498300
     38 HN3         1.4130    1.7780    4.0960 hn        1 MP2      0.321500
@<TRIPOS>BOND
     1    1    2 2   
     2    2    3 1   
     3    2   14 1   
     4    3    4 1   
     5    3   22 1   
     6    3   37 1   
     7    4    5 1   
     8    4    7 1   
     9    4   23 1   
    10    5    6 1   
    11    5   24 1   
    12    5   25 1   
    13    6   26 1   
    14    7    8 2   
    15    7    9 1   
    16    9   10 1   
    17    9   38 1   
    18   10   11 1   
    19   10   28 1   
    20   10   29 1   
    21   11   12 2   
    22   11   13 1   
    23   13   27 1   
    24   14   15 1   
    25   15   16 1   
    26   15   30 1   
    27   15   31 1   
    28   16   17 ar  
    29   16   21 ar  
    30   17   18 ar  
    31   17   32 1   
    32   18   19 ar  
    33   18   33 1   
    34   19   20 ar  
    35   19   34 1   
    36   20   21 ar  
    37   20   35 1   
    38   21   36 1   
@<TRIPOS>SUBSTRUCTURE
     1 MP2         1 TEMP              0 ****  ****    0 ROOT
