@<TRIPOS>MOLECULE
MP3
   15    14     1     0     0
SMALL
bcc


@<TRIPOS>ATOM
      1 O1          0.0870    0.0530   -0.0080 o         1 MP3     -0.900300
      2 C1          1.2880   -0.3710    0.0410 c         1 MP3      0.885600
      3 O2          1.7690   -1.0730   -0.9040 o         1 MP3     -0.900300
      4 C2          2.1240   -0.0920    1.3050 c3        1 MP3      0.019100
      5 OH          1.2550   -0.1730    2.4340 oh        1 MP3     -0.639800
      6 C3          2.8740    1.2610    1.2600 c3        1 MP3      0.205400
      7 OPC         4.0180    1.2260    2.0270 os        1 MP3     -0.583200
      8 PC          4.5270    2.7080    2.7430 p5        1 MP3      1.326900
      9 OC1         3.2530    3.3930    3.1790 o         1 MP3     -0.950500
     10 OC2         5.4180    2.2330    3.8670 o         1 MP3     -0.950500
     11 OC3         5.2570    3.4120    1.6220 o         1 MP3     -0.950500
     12 H2          2.8650   -0.9200    1.4640 h1        1 MP3      0.049700
     13 HO          0.5960    0.5170    2.2960 ho        1 MP3      0.391000
     14 H31         2.1910    2.0830    1.6160 h1        1 MP3     -0.001800
     15 H32         3.1310    1.4390    0.1720 h1        1 MP3     -0.001800
@<TRIPOS>BOND
     1    1    2 1   
     2    2    3 1   
     3    2    4 1   
     4    4    5 1   
     5    4    6 1   
     6    4   12 1   
     7    5   13 1   
     8    6    7 1   
     9    6   14 1   
    10    6   15 1   
    11    7    8 1   
    12    8    9 1   
    13    8   10 1   
    14    8   11 1   
@<TRIPOS>SUBSTRUCTURE
     1 MP3         1 TEMP              0 ****  ****    0 ROOT
