@<TRIPOS>MOLECULE
MP3
   15    13     1     0     0
SMALL
bcc


@<TRIPOS>ATOM
      1 O1         -1.6540   -1.8840    0.7080 o         1 MP3     -0.614000
      2 C1         -1.5510   -1.3550   -0.4300 c1        1 MP3      0.329000
      3 O2         -2.5850   -1.1060   -1.1050 os        1 MP3     -0.651000
      4 C2         -0.1860   -1.0200   -0.9870 c3        1 MP3     -0.035000
      5 OH          0.7550   -1.9550   -0.5160 oh        1 MP3     -0.386000
      6 C3          0.2140    0.3680   -0.5390 c3        1 MP3      0.047000
      7 OPC         0.2340    0.4190    0.8690 os        1 MP3     -0.760000
      8 PC          0.6840    1.7630    1.5670 p5        1 MP3      1.563500
      9 OC1        -0.1530    2.9060    1.0450 o         1 MP3     -0.948500
     10 OC2         2.1400    2.0250    1.2640 o         1 MP3     -0.948500
     11 OC3         0.4950    1.6420    3.0610 o         1 MP3     -0.948500
     12 H2         -0.2160   -1.0510   -1.9640 h1        1 MP3      0.049000
     13 HO          1.1510   -2.3500   -1.2080 ho        1 MP3      0.215000
     14 H31        -0.4320    1.0200   -0.8800 h1        1 MP3      0.043500
     15 H32         1.1050    0.5790   -0.8860 h1        1 MP3      0.043500
@<TRIPOS>BOND
     1    1    2 1   
     2    2    4 1   
     3    4    5 1   
     4    4    6 1   
     5    4   12 1   
     6    5   13 1   
     7    6    7 1   
     8    6   14 1   
     9    6   15 1   
    10    7    8 1   
    11    8    9 1   
    12    8   10 1   
    13    8   11 1   
@<TRIPOS>SUBSTRUCTURE
     1 MP3         1 TEMP              0 ****  ****    0 ROOT
