@<TRIPOS>MOLECULE
MP3
   15    14     1     0     0
SMALL
bcc


@<TRIPOS>ATOM
      1 O1          0.2130   -0.0260   -0.1570 o         1 MP3     -0.900300
      2 C1          1.3980   -0.4580    0.0250 c         1 MP3      0.885600
      3 O2          1.9480   -1.2290   -0.8240 o         1 MP3     -0.900300
      4 C2          2.1280   -0.1000    1.3340 c3        1 MP3      0.019100
      5 OH          1.1640   -0.0930    2.3870 oh        1 MP3     -0.639800
      6 C3          2.9010    1.2390    1.2610 c3        1 MP3      0.205400
      7 OPC         3.9750    1.2460    2.1250 os        1 MP3     -0.583200
      8 PC          4.4440    2.7690    2.7780 p5        1 MP3      1.326900
      9 OC1         3.1500    3.4960    3.0530 o         1 MP3     -0.950500
     10 OC2         5.2270    2.3650    4.0060 o         1 MP3     -0.950500
     11 OC3         5.2800    3.3840    1.6800 o         1 MP3     -0.950500
     12 H2          2.8390   -0.9220    1.6130 h1        1 MP3      0.049700
     13 HO          0.5300    0.5930    2.1450 ho        1 MP3      0.391000
     14 H31         2.2040    2.0910    1.4990 h1        1 MP3     -0.001800
     15 H32         3.2530    1.3380    0.1900 h1        1 MP3     -0.001800
@<TRIPOS>BOND
     1    1    2 1   
     2    2    3 1   
     3    2    4 1   
     4    4    5 1   
     5    4    6 1   
     6    4   12 1   
     7    5   13 1   
     8    6    7 1   
     9    6   14 1   
    10    6   15 1   
    11    7    8 1   
    12    8    9 1   
    13    8   10 1   
    14    8   11 1   
@<TRIPOS>SUBSTRUCTURE
     1 MP3         1 TEMP              0 ****  ****    0 ROOT
