@<TRIPOS>MOLECULE
MP3
   15    14     1     0     0
SMALL
bcc


@<TRIPOS>ATOM
      1 O1          0.0240   -0.9210   -3.5420 o         1 MP3     -0.900300
      2 C1         -0.2730    0.1710   -2.9560 c         1 MP3      0.885600
      3 O2         -1.0820    0.9960   -3.4860 o         1 MP3     -0.900300
      4 C2          0.4320    0.5180   -1.6300 c3        1 MP3      0.019100
      5 OH          1.7800    0.0550   -1.7140 oh        1 MP3     -0.639800
      6 C3         -0.2880   -0.0490   -0.3840 c3        1 MP3      0.205400
      7 OPC        -0.0470    0.7240    0.7310 os        1 MP3     -0.583200
      8 PC         -0.0450   -0.0780    2.2550 p5        1 MP3      1.326900
      9 OC1         0.6290   -1.4060    2.0020 o         1 MP3     -0.950500
     10 OC2         0.7340    0.8820    3.1230 o         1 MP3     -0.950500
     11 OC3        -1.5120   -0.1840    2.6030 o         1 MP3     -0.950500
     12 H2          0.5260    1.6320   -1.5270 h1        1 MP3      0.049700
     13 HO          1.7120   -0.9000   -1.8300 ho        1 MP3      0.391000
     14 H31        -1.3920   -0.0500   -0.6340 h1        1 MP3     -0.001800
     15 H32         0.0470   -1.1090   -0.2030 h1        1 MP3     -0.001800
@<TRIPOS>BOND
     1    1    2 1   
     2    2    3 1   
     3    2    4 1   
     4    4    5 1   
     5    4    6 1   
     6    4   12 1   
     7    5   13 1   
     8    6    7 1   
     9    6   14 1   
    10    6   15 1   
    11    7    8 1   
    12    8    9 1   
    13    8   10 1   
    14    8   11 1   
@<TRIPOS>SUBSTRUCTURE
     1 MP3         1 TEMP              0 ****  ****    0 ROOT
