@<TRIPOS>MOLECULE
MP4
   24    24     1     0     0
SMALL
bcc


@<TRIPOS>ATOM
      1 C4         -2.3720    0.1490   -0.1070 ca        1 MP4     -0.217300
      2 C5         -1.6070   -1.0260   -0.2260 ca        1 MP4      0.136600
      3 C6         -0.2520   -1.0640    0.1090 ca        1 MP4     -0.212000
      4 N           2.4780    1.2310    1.3230 n3        1 MP4     -0.885800
      5 C3         -1.6970    1.2910    0.3600 ca        1 MP4      0.136600
      6 O3         -2.3360    2.5060    0.5300 oh        1 MP4     -0.520600
      7 C2         -0.3360    1.2760    0.6960 ca        1 MP4     -0.212000
      8 C1          0.3970    0.0920    0.5680 ca        1 MP4      0.044700
      9 CA          1.8510   -0.0260    0.9320 c3        1 MP4      0.042800
     10 C           2.6380   -0.7750   -0.2120 c         1 MP4      0.898600
     11 O           3.4090   -0.0910   -0.9360 o         1 MP4     -0.831800
     12 CH3        -3.8070    0.1780   -0.4600 c3        1 MP4     -0.029800
     13 O10        -2.2590   -2.1560   -0.6850 oh        1 MP4     -0.520600
     14 H6          0.3410   -1.9900   -0.0150 ha        1 MP4      0.172000
     15 HO3        -3.2440    2.4130    0.2150 ho        1 MP4      0.413500
     16 H3          0.1210    2.2050    1.0620 ha        1 MP4      0.172000
     17 HA          1.8980   -0.7070    1.8360 h1        1 MP4      0.062700
     18 OXT         2.4810   -2.0240   -0.2980 o         1 MP4     -0.831800
     19 HH3        -4.4260    0.4770    0.4240 hc        1 MP4      0.031367
     20 HH3A       -3.9960    0.9120   -1.2840 hc        1 MP4      0.031367
     21 HH3B       -4.1520   -0.8280   -0.8030 hc        1 MP4      0.031367
     22 HO10       -1.5860   -2.8430   -0.8040 ho        1 MP4      0.413500
     23 H2          3.4620    1.0480    1.4300 hn        1 MP4      0.336300
     24 H           2.3950    1.8770    0.5570 hn        1 MP4      0.336300
@<TRIPOS>BOND
     1    1    2 ar  
     2    1    5 ar  
     3    1   12 1   
     4    2    3 ar  
     5    2   13 1   
     6    3    8 ar  
     7    3   14 1   
     8    4    9 1   
     9    4   23 1   
    10    4   24 1   
    11    5    6 1   
    12    5    7 ar  
    13    6   15 1   
    14    7    8 ar  
    15    7   16 1   
    16    8    9 1   
    17    9   10 1   
    18    9   17 1   
    19   10   11 1   
    20   10   18 1   
    21   12   19 1   
    22   12   20 1   
    23   12   21 1   
    24   13   22 1   
@<TRIPOS>SUBSTRUCTURE
     1 MP4         1 TEMP              0 ****  ****    0 ROOT
