@<TRIPOS>MOLECULE
MP5
   22    22     1     0     0
SMALL
bcc


@<TRIPOS>ATOM
      1 C1         -0.2360    0.3690    0.9200 ca        1 MP5     -0.282900
      2 C2         -1.1850    0.1010    1.9560 ca        1 MP5      0.584200
      3 C3         -0.6330    0.6290   -0.5100 c3        1 MP5      0.259700
      4 N1         -2.5700    0.1380    1.6710 nh        1 MP5     -0.911500
      5 N2         -0.7820   -0.1370    3.2490 nb        1 MP5     -0.779000
      6 C4          0.5580   -0.0750    3.4910 ca        1 MP5      0.597300
      7 C5          1.0080   -0.3170    4.9130 c3        1 MP5     -0.112400
      8 N3          1.5370    0.1700    2.5660 nb        1 MP5     -0.748000
      9 C6          1.1190    0.3710    1.3020 ca        1 MP5      0.442200
     10 O1          0.4430    0.6400   -1.3490 os        1 MP5     -0.554200
     11 P1          0.2400   -0.3980   -2.7600 p5        1 MP5      1.308900
     12 O2          1.6630   -0.5880   -3.1950 o         1 MP5     -0.924833
     13 O3         -0.6450    0.4590   -3.6200 o         1 MP5     -0.924833
     14 O4         -0.4520   -1.5800   -2.1320 o         1 MP5     -0.924833
     15 H31        -1.3810   -0.1610   -0.8340 h1        1 MP5      0.016200
     16 H32        -1.1480    1.6420   -0.4980 h1        1 MP5      0.016200
     17 HN11       -3.1150   -0.4570    2.2590 hn        1 MP5      0.384800
     18 HN12       -2.7410   -0.0410    0.6990 hn        1 MP5      0.384800
     19 H51         1.6230    0.5460    5.2670 hc        1 MP5      0.031367
     20 H52         0.1390   -0.4430    5.6030 hc        1 MP5      0.031367
     21 H53         1.6330   -1.2430    4.9530 hc        1 MP5      0.031367
     22 H6          1.8850    0.5300    0.5120 h4        1 MP5      0.074100
@<TRIPOS>BOND
     1    1    2 ar  
     2    1    3 1   
     3    1    9 ar  
     4    2    4 1   
     5    2    5 ar  
     6    3   10 1   
     7    3   15 1   
     8    3   16 1   
     9    4   17 1   
    10    4   18 1   
    11    5    6 ar  
    12    6    7 1   
    13    6    8 ar  
    14    7   19 1   
    15    7   20 1   
    16    7   21 1   
    17    8    9 ar  
    18    9   22 1   
    19   10   11 1   
    20   11   12 1   
    21   11   13 1   
    22   11   14 1   
@<TRIPOS>SUBSTRUCTURE
     1 MP5         1 TEMP              0 ****  ****    0 ROOT
