@<TRIPOS>MOLECULE
MP5
   22    22     1     0     0
SMALL
bcc


@<TRIPOS>ATOM
      1 C1          0.0100   -0.3590   -0.1030 ca        1 MP5     -0.282900
      2 C2          1.4190   -0.1090   -0.0510 ca        1 MP5      0.587200
      3 C3         -0.7300   -0.6230   -1.3890 c3        1 MP5      0.259700
      4 N1          2.1880   -0.1690   -1.2360 nv        1 MP5     -0.911500
      5 N2          2.0570    0.1320    1.1400 nb        1 MP5     -0.781000
      6 C4          1.2850    0.0900    2.2660 ca        1 MP5      0.597300
      7 C5          1.9970    0.3420    3.5750 c3        1 MP5     -0.112400
      8 N3         -0.0620   -0.1350    2.3130 nb        1 MP5     -0.746000
      9 C6         -0.6710   -0.3410    1.1280 ca        1 MP5      0.440200
     10 O1         -2.0830   -0.6130   -1.2150 os        1 MP5     -0.554200
     11 P1         -2.9290    0.4240   -2.3650 p5        1 MP5      1.308900
     12 O2         -4.2370    0.6380   -1.6640 o         1 MP5     -0.924833
     13 O3         -2.9260   -0.4460   -3.5900 o         1 MP5     -0.924833
     14 O4         -1.9790    1.5930   -2.4250 o         1 MP5     -0.924833
     15 H31        -0.4240    0.1550   -2.1560 h1        1 MP5      0.016200
     16 H32        -0.3730   -1.6440   -1.7360 h1        1 MP5      0.016200
     17 HN11        2.9980    0.4130   -1.2170 hn        1 MP5      0.385300
     18 HN12        1.6200    0.0090   -2.0430 hn        1 MP5      0.385300
     19 H51         1.3170    0.1680    4.4430 hc        1 MP5      0.031033
     20 H52         2.8790   -0.3370    3.6710 hc        1 MP5      0.031033
     21 H53         2.3540    1.4000    3.6070 hc        1 MP5      0.031033
     22 H6         -1.7730   -0.4840    1.1200 h4        1 MP5      0.074100
@<TRIPOS>BOND
     1    1    2 ar  
     2    1    3 1   
     3    1    9 ar  
     4    2    4 1   
     5    2    5 ar  
     6    3   10 1   
     7    3   15 1   
     8    3   16 1   
     9    4   17 1   
    10    4   18 1   
    11    5    6 ar  
    12    6    7 1   
    13    6    8 ar  
    14    7   19 1   
    15    7   20 1   
    16    7   21 1   
    17    8    9 ar  
    18    9   22 1   
    19   10   11 1   
    20   11   12 1   
    21   11   13 1   
    22   11   14 1   
@<TRIPOS>SUBSTRUCTURE
     1 MP5         1 TEMP              0 ****  ****    0 ROOT
