@<TRIPOS>MOLECULE
MP5
   22    19     1     0     0
SMALL
bcc


@<TRIPOS>ATOM
      1 C1         -0.0130    0.1290   -0.1340 c1        1 MP5     -0.118100
      2 C2          1.3620    0.0790   -0.1440 c1        1 MP5      0.447600
      3 C3         -0.8210    0.0800   -1.4990 c3        1 MP5      0.225500
      4 N1          2.0590    0.1210   -1.3610 n3        1 MP5     -0.774400
      5 N2          2.0470    0.0420    1.0350 n1        1 MP5     -0.580800
      6 C4          1.3620    0.0540    2.2270 c1        1 MP5      0.329700
      7 C5          2.1240   -0.0180    3.5600 c3        1 MP5     -0.045000
      8 N3         -0.0260    0.1040    2.2310 n1        1 MP5     -0.545800
      9 C6         -0.7020    0.1410    1.0840 c1        1 MP5      0.032500
     10 O1         -2.2180    0.0400   -1.2220 os        1 MP5     -0.554200
     11 P1         -3.2180   -0.2510   -2.4250 p5        1 MP5      1.308900
     12 O2         -3.1910   -1.6760   -2.7510 o         1 MP5     -0.924833
     13 O3         -2.8050    0.5350   -3.6080 o         1 MP5     -0.924833
     14 O4         -4.5580    0.1270   -2.0390 o         1 MP5     -0.924833
     15 H31        -0.6090    0.8990   -2.0450 h1        1 MP5      0.016200
     16 H32        -0.5640   -0.7320   -2.0070 h1        1 MP5      0.016200
     17 HN11        2.9150   -0.3130   -1.4410 hn        1 MP5      0.385300
     18 HN12        1.6930    0.5790   -2.0980 hn        1 MP5      0.385300
     19 H51         2.6450    0.8150    3.6880 hc        1 MP5      0.031033
     20 H52         2.7570   -0.8180    3.5500 hc        1 MP5      0.031033
     21 H53         1.4740   -0.1170    4.3060 hc        1 MP5      0.031033
     22 H6         -1.7130    0.1790    1.0940 ha        1 MP5      0.153500
@<TRIPOS>BOND
     1    1    3 1   
     2    1    9 3   
     3    2    4 1   
     4    2    5 3   
     5    3   10 1   
     6    3   15 1   
     7    3   16 1   
     8    4   17 1   
     9    4   18 1   
    10    6    7 1   
    11    6    8 3   
    12    7   19 1   
    13    7   20 1   
    14    7   21 1   
    15    9   22 1   
    16   10   11 1   
    17   11   12 1   
    18   11   13 1   
    19   11   14 1   
@<TRIPOS>SUBSTRUCTURE
     1 MP5         1 TEMP              0 ****  ****    0 ROOT
