@<TRIPOS>MOLECULE
MP5
   22    22     1     0     0
SMALL
bcc


@<TRIPOS>ATOM
      1 C1          0.0060   -0.3600   -0.1010 ca        1 MP5     -0.282900
      2 C2          1.4170   -0.1200   -0.0560 ca        1 MP5      0.587200
      3 C3         -0.7410   -0.6240   -1.3830 c3        1 MP5      0.259700
      4 N1          2.1810   -0.1920   -1.2440 nh        1 MP5     -0.911500
      5 N2          2.0620    0.1220    1.1320 nb        1 MP5     -0.781000
      6 C4          1.2940    0.0930    2.2610 ca        1 MP5      0.597300
      7 C5          2.0140    0.3450    3.5650 c3        1 MP5     -0.112400
      8 N3         -0.0550   -0.1220    2.3150 nb        1 MP5     -0.746000
      9 C6         -0.6700   -0.3290    1.1330 ca        1 MP5      0.440200
     10 O1         -2.0930   -0.6030   -1.2030 os        1 MP5     -0.554200
     11 P1         -2.9360    0.4340   -2.3540 p5        1 MP5      1.308900
     12 O2         -4.2390    0.6620   -1.6490 o         1 MP5     -0.924833
     13 O3         -2.9450   -0.4430   -3.5750 o         1 MP5     -0.924833
     14 O4         -1.9780    1.5960   -2.4250 o         1 MP5     -0.924833
     15 H31        -0.4320    0.1480   -2.1550 h1        1 MP5      0.016200
     16 H32        -0.3930   -1.6500   -1.7250 h1        1 MP5      0.016200
     17 HN11        2.9960    0.3840   -1.2310 hn        1 MP5      0.385300
     18 HN12        1.6110   -0.0130   -2.0500 hn        1 MP5      0.385300
     19 H51         1.3300    0.2030    4.4360 hc        1 MP5      0.031033
     20 H52         2.8760   -0.3580    3.6710 hc        1 MP5      0.031033
     21 H53         2.4020    1.3920    3.5820 hc        1 MP5      0.031033
     22 H6         -1.7730   -0.4640    1.1300 h4        1 MP5      0.074100
@<TRIPOS>BOND
     1    1    2 ar  
     2    1    3 1   
     3    1    9 ar  
     4    2    4 1   
     5    2    5 ar  
     6    3   10 1   
     7    3   15 1   
     8    3   16 1   
     9    4   17 1   
    10    4   18 1   
    11    5    6 ar  
    12    6    7 1   
    13    6    8 ar  
    14    7   19 1   
    15    7   20 1   
    16    7   21 1   
    17    8    9 ar  
    18    9   22 1   
    19   10   11 1   
    20   11   12 1   
    21   11   13 1   
    22   11   14 1   
@<TRIPOS>SUBSTRUCTURE
     1 MP5         1 TEMP              0 ****  ****    0 ROOT
