@<TRIPOS>MOLECULE
MP5
   23    23     1     0     0
SMALL
bcc


@<TRIPOS>ATOM
      1 C1         -0.1480   -0.0240    0.1070 ca        1 MP5     -0.169900
      2 C2          1.2630    0.0560    0.0580 ca        1 MP5      0.330200
      3 C3         -0.9200   -0.0060   -1.1370 c3        1 MP5      0.132700
      4 N1          1.8700    0.1530   -1.2790 n4        1 MP5     -0.803300
      5 N2          2.0780    0.0480    1.1630 nb        1 MP5     -0.702000
      6 C4          1.4410   -0.0440    2.3500 ca        1 MP5      0.608300
      7 C5          2.2760   -0.0580    3.6060 c3        1 MP5     -0.123400
      8 N3          0.0590   -0.1280    2.5230 nb        1 MP5     -0.682000
      9 C6         -0.6930   -0.1170    1.4340 ca        1 MP5      0.461200
     10 O1         -2.2740   -0.0860   -1.0350 os        1 MP5     -0.518200
     11 P1         -2.7700   -0.0290   -2.7850 p5        1 MP5      1.305900
     12 O2         -4.2520   -0.1120   -2.7500 o         1 MP5     -0.891833
     13 O3         -2.0790    1.2720   -3.1090 o         1 MP5     -0.891833
     14 O4         -1.9430   -1.2110   -3.2280 o         1 MP5     -0.891833
     15 H31        -0.6680    0.9630   -1.7130 h1        1 MP5      0.099700
     16 H32        -0.5670   -0.8840   -1.8010 h1        1 MP5      0.099700
     17 HN11        1.5660   -0.6710   -1.8210 hn        1 MP5      0.462133
     18 HN12        1.4750    0.9870   -1.7420 hn        1 MP5      0.462133
     19 H51         3.3660    0.0130    3.3750 hc        1 MP5      0.053700
     20 H52         2.0860   -1.0060    4.1660 hc        1 MP5      0.053700
     21 H53         1.9860    0.8060    4.2530 hc        1 MP5      0.053700
     22 H6         -1.7990   -0.1820    1.5260 h4        1 MP5      0.088100
     23 H13         2.8860    0.2070   -1.2390 hn        1 MP5      0.462133
@<TRIPOS>BOND
     1    1    2 ar  
     2    1    3 1   
     3    1    9 ar  
     4    2    4 1   
     5    2    5 ar  
     6    3   10 1   
     7    3   15 1   
     8    3   16 1   
     9    4   17 1   
    10    4   18 1   
    11    4   23 1   
    12    5    6 ar  
    13    6    7 1   
    14    6    8 ar  
    15    7   19 1   
    16    7   20 1   
    17    7   21 1   
    18    8    9 ar  
    19    9   22 1   
    20   10   11 1   
    21   11   12 1   
    22   11   13 1   
    23   11   14 1   
@<TRIPOS>SUBSTRUCTURE
     1 MP5         1 TEMP              0 ****  ****    0 ROOT
