@<TRIPOS>MOLECULE
MP6
   62    66     1     0     0
SMALL
bcc


@<TRIPOS>ATOM
      1 C           0.2210   -0.6560    0.1380 ca        1 MP6      0.509200
      2 N           1.5560   -0.7360    0.1760 nb        1 MP6     -0.674000
      3 O           1.8480    1.2080    4.5400 o         1 MP6     -0.475100
      4 C1         -0.6090   -0.2580    1.2370 ca        1 MP6     -0.153300
      5 C2          0.0670    0.0700    2.4550 ca        1 MP6      0.052000
      6 C3         -0.7110    0.4180    3.5900 ca        1 MP6     -0.124000
      7 C4         -2.0940    0.4740    3.5370 ca        1 MP6      0.080000
      8 C5         -2.7470    0.1750    2.3040 ca        1 MP6     -0.079000
      9 C6         -2.0260   -0.1760    1.1930 ca        1 MP6     -0.153000
     10 C7          1.4890    0.0210    2.4830 ca        1 MP6     -0.216900
     11 C8          2.1940   -0.4070    1.3410 ca        1 MP6      0.509100
     12 C9          3.6590   -0.5440    1.4030 cc        1 MP6     -0.376400
     13 C10         4.2020   -0.5480    2.7710 cc        1 MP6      0.542500
     14 N11         3.5950   -0.1240    3.8250 nd        1 MP6     -0.602100
     15 C12         2.2860    0.4250    3.6910 c         1 MP6      0.695100
     16 N13        -0.3990   -1.0530   -1.1510 n4        1 MP6     -0.755700
     17 C14        -0.3590    0.0480   -2.1920 c3        1 MP6      0.139500
     18 C15        -1.2970    1.1850   -1.8190 c3        1 MP6     -0.133100
     19 C16        -0.6480   -0.5360   -3.6020 c3        1 MP6     -0.073000
     20 C17        -1.9410   -1.3350   -3.6340 c3        1 MP6     -0.107100
     21 C18        -0.7510    0.6280   -4.5820 c3        1 MP6     -0.107100
     22 C19         0.5100   -1.4280   -4.0330 c3        1 MP6     -0.107100
     23 C20         4.4510   -0.6560    0.3140 c2        1 MP6      0.007800
     24 C21         5.9240   -0.7970    0.3750 c3        1 MP6     -0.055200
     25 C22         6.5500   -0.8520   -0.9820 cx        1 MP6     -0.148700
     26 C23         7.9620   -1.3650   -1.1090 cx        1 MP6     -0.121400
     27 C24         6.8230   -2.1820   -1.6380 cx        1 MP6     -0.121400
     28 C25        -2.8640    0.8310    4.6890 cc        1 MP6     -0.268300
     29 C26        -2.3660    1.3690    5.9470 cc        1 MP6      0.337200
     30 N27        -3.3970    1.5810    6.7980 nd        1 MP6     -0.489800
     31 N28        -4.5120    1.2100    6.1610 na        1 MP6      0.000400
     32 C29        -4.2640    0.7480    4.8770 cd        1 MP6     -0.099300
     33 H3         -0.1990    0.6520    4.5410 ha        1 MP6      0.191000
     34 H5         -3.8460    0.2380    2.2560 ha        1 MP6      0.152000
     35 H6         -2.5750   -0.3760    0.2600 ha        1 MP6      0.121000
     36 H10         5.2280   -0.9530    2.9060 h4        1 MP6      0.051800
     37 HN13       -1.3740   -1.3200   -0.9800 hn        1 MP6      0.460300
     38 H14         0.7050    0.4390   -2.1920 hx        1 MP6      0.115700
     39 H15        -2.3670    0.9100   -1.9810 hc        1 MP6      0.076700
     40 H15A       -1.1600    1.4930   -0.7510 hc        1 MP6      0.076700
     41 H15B       -1.0570    2.0700   -2.4620 hc        1 MP6      0.076700
     42 H17        -2.7830   -0.7610   -3.1780 hc        1 MP6      0.054811
     43 H17A       -2.2130   -1.5560   -4.6970 hc        1 MP6      0.054811
     44 H17B       -1.8350   -2.3130   -3.1060 hc        1 MP6      0.054811
     45 H18        -1.6910    1.2070   -4.4120 hc        1 MP6      0.054811
     46 H18A       -0.7680    0.2370   -5.6290 hc        1 MP6      0.054811
     47 H18B        0.1260    1.3120   -4.4750 hc        1 MP6      0.054811
     48 H19         0.5450   -2.3800   -3.4490 hc        1 MP6      0.054811
     49 H19A        1.4840   -0.8940   -3.9190 hc        1 MP6      0.054811
     50 H19B        0.3880   -1.7040   -5.1100 hc        1 MP6      0.054811
     51 H20         4.0180   -0.6400   -0.7030 ha        1 MP6      0.148000
     52 H21         6.1850   -1.7260    0.9570 hc        1 MP6      0.080200
     53 H21A        6.3610    0.0750    0.9400 hc        1 MP6      0.080200
     54 H22         6.2480   -0.0040   -1.6300 hc        1 MP6      0.083700
     55 H23         8.4910   -1.7060   -0.2010 hc        1 MP6      0.078700
     56 H23A        8.6450   -0.8660   -1.8190 hc        1 MP6      0.078700
     57 H24         6.5400   -3.1100   -1.1090 hc        1 MP6      0.078700
     58 H24A        6.6880   -2.2730   -2.7300 hc        1 MP6      0.078700
     59 H26        -1.3320    1.5960    6.2150 h4        1 MP6      0.062100
     60 HN28       -5.3950    1.2820    6.6150 hn        1 MP6      0.337700
     61 H29        -5.0590    0.3990    4.2160 h4        1 MP6      0.182000
     62 H132        0.1010   -1.8690   -1.5320 hn        1 MP6      0.460300
@<TRIPOS>BOND
     1    1    2 ar  
     2    1    4 ar  
     3    1   16 1   
     4    2   11 ar  
     5    3   15 2   
     6    4    5 ar  
     7    4    9 ar  
     8    5    6 ar  
     9    5   10 ar  
    10    6    7 ar  
    11    6   33 1   
    12    7    8 ar  
    13    7   28 1   
    14    8    9 ar  
    15    8   34 1   
    16    9   35 1   
    17   10   11 ar  
    18   10   15 1   
    19   11   12 1   
    20   12   13 1   
    21   12   23 2   
    22   13   14 2   
    23   13   36 1   
    24   14   15 1   
    25   16   17 1   
    26   16   37 1   
    27   16   62 1   
    28   17   18 1   
    29   17   19 1   
    30   17   38 1   
    31   18   39 1   
    32   18   40 1   
    33   18   41 1   
    34   19   20 1   
    35   19   21 1   
    36   19   22 1   
    37   20   42 1   
    38   20   43 1   
    39   20   44 1   
    40   21   45 1   
    41   21   46 1   
    42   21   47 1   
    43   22   48 1   
    44   22   49 1   
    45   22   50 1   
    46   23   24 1   
    47   23   51 1   
    48   24   25 1   
    49   24   52 1   
    50   24   53 1   
    51   25   26 1   
    52   25   27 1   
    53   25   54 1   
    54   26   27 1   
    55   26   55 1   
    56   26   56 1   
    57   27   57 1   
    58   27   58 1   
    59   28   29 1   
    60   28   32 2   
    61   29   30 2   
    62   29   59 1   
    63   30   31 1   
    64   31   32 1   
    65   31   60 1   
    66   32   61 1   
@<TRIPOS>SUBSTRUCTURE
     1 MP6         1 TEMP              0 ****  ****    0 ROOT
