@<TRIPOS>MOLECULE
MP6
   61    65     1     0     0
SMALL
bcc


@<TRIPOS>ATOM
      1 C          -0.2640   -1.1630    0.0330 ca        1 MP6      0.712200
      2 N          -1.2230   -0.2100    0.0300 nb        1 MP6     -0.772000
      3 O           1.7810    3.4430    0.8690 o         1 MP6     -0.523100
      4 C1          1.1580   -0.8210    0.0800 ca        1 MP6     -0.202300
      5 C2          1.5110    0.5520    0.1750 ca        1 MP6      0.069000
      6 C3          2.8860    0.9000    0.2140 ca        1 MP6     -0.131000
      7 C4          3.8810   -0.0630    0.1690 ca        1 MP6      0.043000
      8 C5          3.5110   -1.4300    0.0660 ca        1 MP6     -0.141000
      9 C6          2.1870   -1.7920    0.0190 ca        1 MP6     -0.098000
     10 C7          0.4730    1.5340    0.2020 ca        1 MP6     -0.327900
     11 C8         -0.8580    1.1030    0.0850 ca        1 MP6      0.552100
     12 C9         -1.9360    2.1130    0.0200 cc        1 MP6     -0.349400
     13 C10        -1.4640    3.4840   -0.2250 cc        1 MP6      0.524500
     14 N11        -0.2560    3.9060   -0.0850 nd        1 MP6     -0.624100
     15 C12         0.7470    2.9840    0.3630 c         1 MP6      0.708100
     16 N13        -0.6290   -2.5030   -0.0850 nh        1 MP6     -0.839900
     17 C14        -2.0090   -2.9490    0.0260 c3        1 MP6      0.218500
     18 C15        -2.5350   -2.9270    1.4630 c3        1 MP6     -0.123100
     19 C16        -2.1920   -4.3550   -0.6230 c3        1 MP6     -0.056000
     20 C17        -1.2310   -5.3850   -0.0520 c3        1 MP6     -0.089433
     21 C18        -3.6220   -4.8230   -0.3850 c3        1 MP6     -0.089433
     22 C19        -1.9660   -4.2420   -2.1260 c3        1 MP6     -0.089433
     23 C20        -3.2440    1.8180    0.1670 c2        1 MP6     -0.030200
     24 C21        -4.3300    2.8260    0.1000 c3        1 MP6     -0.048200
     25 C22        -5.6750    2.2340    0.3770 cx        1 MP6     -0.131700
     26 C23        -6.9070    3.0140   -0.0020 cx        1 MP6     -0.128900
     27 C24        -6.5480    1.7730   -0.7620 cx        1 MP6     -0.128900
     28 C25         5.2680    0.3060    0.2180 cc        1 MP6     -0.220300
     29 C26         5.8240    1.6000    0.5830 cc        1 MP6      0.322200
     30 N27         7.1770    1.5620    0.5120 nd        1 MP6     -0.514800
     31 N28         7.5090    0.3270    0.1250 na        1 MP6     -0.020600
     32 C29         6.3970   -0.4880   -0.0700 cd        1 MP6     -0.127300
     33 H3          3.1700    1.9640    0.2800 ha        1 MP6      0.174000
     34 H5          4.2990   -2.1960    0.0240 ha        1 MP6      0.131000
     35 H6          1.9500   -2.8620   -0.0830 ha        1 MP6      0.126000
     36 H10        -2.2210    4.2220   -0.5640 h4        1 MP6      0.026800
     37 HN13        0.0340   -3.1490    0.2860 hn        1 MP6      0.417800
     38 H14        -2.6480   -2.2380   -0.5820 h1        1 MP6      0.083700
     39 H15        -3.6450   -3.0480    1.4560 hc        1 MP6      0.044367
     40 H15A       -2.0900   -3.7470    2.0750 hc        1 MP6      0.044367
     41 H15B       -2.3010   -1.9510    1.9550 hc        1 MP6      0.044367
     42 H17        -1.2160   -5.3440    1.0630 hc        1 MP6      0.037922
     43 H17A       -1.5510   -6.4100   -0.3600 hc        1 MP6      0.037922
     44 H17B       -0.1940   -5.2240   -0.4320 hc        1 MP6      0.037922
     45 H18        -4.3480   -4.0150   -0.6450 hc        1 MP6      0.037922
     46 H18A       -3.8400   -5.7130   -1.0240 hc        1 MP6      0.037922
     47 H18B       -3.7700   -5.1150    0.6820 hc        1 MP6      0.037922
     48 H19        -0.9250   -3.9100   -2.3520 hc        1 MP6      0.037922
     49 H19A       -2.1310   -5.2350   -2.6100 hc        1 MP6      0.037922
     50 H19B       -2.6790   -3.5070   -2.5710 hc        1 MP6      0.037922
     51 H20        -3.5700    0.7780    0.3520 ha        1 MP6      0.157000
     52 H21        -4.1340    3.6420    0.8510 hc        1 MP6      0.066700
     53 H21A       -4.3260    3.3090   -0.9180 hc        1 MP6      0.066700
     54 H22        -5.7000    1.6490    1.3180 hc        1 MP6      0.083700
     55 H23        -7.7760    2.9980    0.6790 hc        1 MP6      0.072950
     56 H23A       -6.7870    3.9960   -0.4930 hc        1 MP6      0.072950
     57 H24        -6.1730    1.8670   -1.7960 hc        1 MP6      0.072950
     58 H24A       -7.1590    0.8630   -0.6270 hc        1 MP6      0.072950
     59 H26         5.2770    2.4970    0.8810 h4        1 MP6      0.058100
     60 HN28        8.4630    0.0790    0.0040 hn        1 MP6      0.322700
     61 H29         6.4820   -1.5250   -0.3920 h4        1 MP6      0.176000
@<TRIPOS>BOND
     1    1    2 ar  
     2    1    4 ar  
     3    1   16 1   
     4    2   11 ar  
     5    3   15 2   
     6    4    5 ar  
     7    4    9 ar  
     8    5    6 ar  
     9    5   10 ar  
    10    6    7 ar  
    11    6   33 1   
    12    7    8 ar  
    13    7   28 1   
    14    8    9 ar  
    15    8   34 1   
    16    9   35 1   
    17   10   11 ar  
    18   10   15 1   
    19   11   12 1   
    20   12   13 1   
    21   12   23 2   
    22   13   14 2   
    23   13   36 1   
    24   14   15 1   
    25   16   17 1   
    26   16   37 1   
    27   17   18 1   
    28   17   19 1   
    29   17   38 1   
    30   18   39 1   
    31   18   40 1   
    32   18   41 1   
    33   19   20 1   
    34   19   21 1   
    35   19   22 1   
    36   20   42 1   
    37   20   43 1   
    38   20   44 1   
    39   21   45 1   
    40   21   46 1   
    41   21   47 1   
    42   22   48 1   
    43   22   49 1   
    44   22   50 1   
    45   23   24 1   
    46   23   51 1   
    47   24   25 1   
    48   24   52 1   
    49   24   53 1   
    50   25   26 1   
    51   25   27 1   
    52   25   54 1   
    53   26   27 1   
    54   26   55 1   
    55   26   56 1   
    56   27   57 1   
    57   27   58 1   
    58   28   29 1   
    59   28   32 2   
    60   29   30 2   
    61   29   59 1   
    62   30   31 1   
    63   31   32 1   
    64   31   60 1   
    65   32   61 1   
@<TRIPOS>SUBSTRUCTURE
     1 MP6         1 TEMP              0 ****  ****    0 ROOT
