@<TRIPOS>MOLECULE
MP6
   61    65     1     0     0
SMALL
bcc


@<TRIPOS>ATOM
      1 C           0.0870   -0.1400    0.1070 ca        1 MP6      0.712200
      2 N           1.4350   -0.2220    0.1700 nb        1 MP6     -0.772000
      3 O           1.7120    0.7130    4.8740 o         1 MP6     -0.523100
      4 C1         -0.7320   -0.0160    1.3120 ca        1 MP6     -0.202300
      5 C2         -0.0680    0.0690    2.5650 ca        1 MP6      0.069000
      6 C3         -0.8490    0.1820    3.7440 ca        1 MP6     -0.131000
      7 C4         -2.2330    0.2170    3.6980 ca        1 MP6      0.043000
      8 C5         -2.8820    0.1240    2.4390 ca        1 MP6     -0.141000
      9 C6         -2.1480    0.0060    1.2840 ca        1 MP6     -0.098000
     10 C7          1.3610    0.0120    2.5970 ca        1 MP6     -0.327900
     11 C8          2.0490   -0.1750    1.3880 ca        1 MP6      0.552100
     12 C9          3.5190   -0.3270    1.4160 cc        1 MP6     -0.349400
     13 C10         4.0750   -0.5740    2.7550 cc        1 MP6      0.524500
     14 N11         3.4730   -0.3710    3.8740 nd        1 MP6     -0.624100
     15 C12         2.1390    0.1570    3.8520 c         1 MP6      0.708100
     16 N13        -0.5480   -0.2500   -1.1300 nu        1 MP6     -0.839900
     17 C14         0.1800   -0.2110   -2.3870 c3        1 MP6      0.218500
     18 C15         0.6690    1.1920   -2.7570 c3        1 MP6     -0.123100
     19 C16        -0.6660   -0.8380   -3.5380 c3        1 MP6     -0.056000
     20 C17        -2.0330   -0.1870   -3.6710 c3        1 MP6     -0.089433
     21 C18         0.0920   -0.6750   -4.8490 c3        1 MP6     -0.089433
     22 C19        -0.8460   -2.3270   -3.2680 c3        1 MP6     -0.089433
     23 C20         4.2970   -0.2530    0.3170 c2        1 MP6     -0.030200
     24 C21         5.7720   -0.4080    0.3380 c3        1 MP6     -0.048200
     25 C22         6.3870   -0.2010   -1.0110 cx        1 MP6     -0.131700
     26 C23         7.7980   -0.6700   -1.2480 cx        1 MP6     -0.128900
     27 C24         6.6550   -1.3800   -1.9090 cx        1 MP6     -0.128900
     28 C25        -3.0090    0.3410    4.9000 cc        1 MP6     -0.220300
     29 C26        -2.5310    0.7090    6.2240 cc        1 MP6      0.322200
     30 N27        -3.5610    0.7210    7.1040 nd        1 MP6     -0.514800
     31 N28        -4.6580    0.3810    6.4200 na        1 MP6     -0.020600
     32 C29        -4.3940    0.1380    5.0750 cd        1 MP6     -0.127300
     33 H3         -0.3410    0.2410    4.7210 ha        1 MP6      0.174000
     34 H5         -3.9810    0.1460    2.3990 ha        1 MP6      0.131000
     35 H6         -2.6970   -0.0870    0.3340 ha        1 MP6      0.126000
     36 H10         5.1100   -0.9740    2.8030 h4        1 MP6      0.026800
     37 HN13       -1.4500    0.1740   -1.1730 hn        1 MP6      0.417800
     38 H14         1.0930   -0.8730   -2.2740 h1        1 MP6      0.083700
     39 H15         1.1790    1.6740   -1.8880 hc        1 MP6      0.044367
     40 H15A        1.4080    1.1200   -3.5910 hc        1 MP6      0.044367
     41 H15B       -0.1730    1.8470   -3.0810 hc        1 MP6      0.044367
     42 H17        -2.7160   -0.5090   -2.8480 hc        1 MP6      0.037922
     43 H17A       -1.9510    0.9250   -3.6560 hc        1 MP6      0.037922
     44 H17B       -2.5020   -0.4910   -4.6390 hc        1 MP6      0.037922
     45 H18         1.1550   -0.9960   -4.7310 hc        1 MP6      0.037922
     46 H18A       -0.3820   -1.3050   -5.6410 hc        1 MP6      0.037922
     47 H18B        0.0700    0.3880   -5.1900 hc        1 MP6      0.037922
     48 H19        -1.4190   -2.7970   -4.1040 hc        1 MP6      0.037922
     49 H19A       -1.4070   -2.4980   -2.3190 hc        1 MP6      0.037922
     50 H19B        0.1470   -2.8300   -3.1900 hc        1 MP6      0.037922
     51 H20         3.8520   -0.0650   -0.6770 ha        1 MP6      0.157000
     52 H21         6.2200    0.3360    1.0550 hc        1 MP6      0.066700
     53 H21A        6.0330   -1.4330    0.7240 hc        1 MP6      0.066700
     54 H22         6.0690    0.7500   -1.4840 hc        1 MP6      0.083700
     55 H23         8.3390   -1.1730   -0.4270 hc        1 MP6      0.072950
     56 H23A        8.4700   -0.0430   -1.8600 hc        1 MP6      0.072950
     57 H24         6.5060   -1.2640   -2.9970 hc        1 MP6      0.072950
     58 H24A        6.3800   -2.3920   -1.5620 hc        1 MP6      0.072950
     59 H26        -1.5080    0.9550    6.5150 h4        1 MP6      0.058100
     60 HN28       -5.5360    0.3220    6.8790 hn        1 MP6      0.322700
     61 H29        -5.1700   -0.1550    4.3700 h4        1 MP6      0.176000
@<TRIPOS>BOND
     1    1    2 ar  
     2    1    4 ar  
     3    1   16 1   
     4    2   11 ar  
     5    3   15 2   
     6    4    5 ar  
     7    4    9 ar  
     8    5    6 ar  
     9    5   10 ar  
    10    6    7 ar  
    11    6   33 1   
    12    7    8 ar  
    13    7   28 1   
    14    8    9 ar  
    15    8   34 1   
    16    9   35 1   
    17   10   11 ar  
    18   10   15 1   
    19   11   12 1   
    20   12   13 1   
    21   12   23 2   
    22   13   14 2   
    23   13   36 1   
    24   14   15 1   
    25   16   17 1   
    26   16   37 1   
    27   17   18 1   
    28   17   19 1   
    29   17   38 1   
    30   18   39 1   
    31   18   40 1   
    32   18   41 1   
    33   19   20 1   
    34   19   21 1   
    35   19   22 1   
    36   20   42 1   
    37   20   43 1   
    38   20   44 1   
    39   21   45 1   
    40   21   46 1   
    41   21   47 1   
    42   22   48 1   
    43   22   49 1   
    44   22   50 1   
    45   23   24 1   
    46   23   51 1   
    47   24   25 1   
    48   24   52 1   
    49   24   53 1   
    50   25   26 1   
    51   25   27 1   
    52   25   54 1   
    53   26   27 1   
    54   26   55 1   
    55   26   56 1   
    56   27   57 1   
    57   27   58 1   
    58   28   29 1   
    59   28   32 2   
    60   29   30 2   
    61   29   59 1   
    62   30   31 1   
    63   31   32 1   
    64   31   60 1   
    65   32   61 1   
@<TRIPOS>SUBSTRUCTURE
     1 MP6         1 TEMP              0 ****  ****    0 ROOT
