@<TRIPOS>MOLECULE
MP7
   61    62     1     0     0
SMALL
bcc


@<TRIPOS>ATOM
      1 C           0.4220    0.2670   -0.5140 c3        1 MP7     -0.135000
      2 F          -1.3530   -0.3460    5.7190 f         1 MP7     -0.097000
      3 N          -0.0950    0.8600    1.8900 n         1 MP7     -0.191000
      4 O          -1.2080   -0.8910    0.8370 o         1 MP7     -0.342000
      5 C1          1.2480    1.5100   -0.5110 c2        1 MP7     -0.112000
      6 C2          1.4060    2.2420    0.6000 c2        1 MP7     -0.202000
      7 C3          0.7340    1.9110    1.8550 c1        1 MP7      0.011000
      8 C4         -0.3800    0.0350    0.7670 c2        1 MP7      0.275000
      9 C5         -0.7600    0.5420    3.1550 c3        1 MP7     -0.005000
     10 C6         -2.1260    1.1250    3.3090 c2        1 MP7     -0.157000
     11 C7         -5.2290    2.2340    7.0200 c1        1 MP7     -0.120000
     12 C8         -4.2700    1.5210    6.9420 c1        1 MP7     -0.178000
     13 C9         -3.1350    0.6820    6.8740 c2        1 MP7      0.157000
     14 C10        -2.4380    0.4680    5.7050 c2        1 MP7      0.038000
     15 C11        -2.8340    1.0830    4.4460 c2        1 MP7     -0.139000
     16 F12        -2.7400    0.0830    8.0230 f         1 MP7     -0.073000
     17 C13        -7.8050    0.2600    0.3960 c2        1 MP7     -0.285000
     18 C14        -7.0690    1.1830   -0.4930 c2        1 MP7      0.117000
     19 C15        -5.6160    1.1550   -0.2460 c2        1 MP7     -0.247000
     20 C16        -5.0310    0.2410    0.5640 c2        1 MP7      0.053000
     21 C17        -5.7880   -0.7630    1.3750 c3        1 MP7     -0.131000
     22 C18        -7.2300   -0.6080    1.2760 c1        1 MP7     -0.234000
     23 N19        -9.2240    0.2030    0.3400 n3        1 MP7     -0.043000
     24 N20        -7.5280    1.9340   -1.4420 n2        1 MP7     -0.321000
     25 C22        -2.1290   -2.2680   -3.7510 c2        1 MP7     -0.180000
     26 C23        -2.0140   -1.0750   -3.1300 c2        1 MP7     -0.005000
     27 C24        -2.7350    0.1000   -3.6690 c2        1 MP7      0.147000
     28 C25        -2.2890    0.6420   -4.9620 c3        1 MP7     -0.218000
     29 C26        -3.1030    1.7310   -5.5070 c2        1 MP7      0.026000
     30 C27        -4.1510    2.2660   -4.8050 c2        1 MP7     -0.208000
     31 C28        -4.4920    1.7560   -3.5330 c2        1 MP7      0.129000
     32 C29        -3.7790    0.6820   -2.9770 c2        1 MP7     -0.206000
     33 C30        -9.9690    1.2880    0.4650 c1        1 MP7      0.329000
     34 O31       -10.6640    2.1990    0.1820 o         1 MP7     -0.037000
     35 N32        -1.2470   -0.8870   -1.9640 n         1 MP7     -0.329000
     36 C33        -0.4440    0.2240   -1.7720 c2        1 MP7      0.340000
     37 O34        -0.3880    1.1190   -2.6390 o         1 MP7     -0.381000
     38 H1          1.1430   -0.6110   -0.5760 hc        1 MP7      0.173000
     39 H2          1.7180    1.7620   -1.4770 ha        1 MP7      0.163000
     40 H3          2.0460    3.1400    0.6360 ha        1 MP7      0.181000
     41 H5         -0.0960    0.9290    3.9860 h1        1 MP7      0.140500
     42 H5A        -0.8250   -0.5830    3.2460 h1        1 MP7      0.140500
     43 H7         -2.5610    1.6240    2.4240 ha        1 MP7      0.145000
     44 H8         -6.0790    2.8670    7.0910 ha        1 MP7      0.236000
     45 H11        -3.8300    1.5640    4.4820 ha        1 MP7      0.152000
     46 H17        -5.4940   -0.6630    2.4590 hc        1 MP7      0.139500
     47 H18        -5.5140   -1.8070    1.0520 hc        1 MP7      0.139500
     48 HN19       -9.5810   -0.6230    0.8320 hn        1 MP7      0.301000
     49 HN20       -8.5150    1.9190   -1.5750 hn        1 MP7      0.126000
     50 H22        -3.3680   -0.3920    1.2890 ho        1 MP7      0.244000
     51 H22A       -1.6370   -3.1810   -3.3860 ha        1 MP7      0.150000
     52 H23        -2.7590   -2.3950   -4.6410 ha        1 MP7      0.150000
     53 H25        -1.2280    1.0530   -4.7740 hc        1 MP7      0.226000
     54 H26        -2.1440   -0.1830   -5.7230 hc        1 MP7      0.226000
     55 H27        -2.8250    2.1160   -6.5050 ha        1 MP7      0.179000
     56 H28        -4.7440    3.1000   -5.2220 ha        1 MP7      0.188000
     57 H29        -5.3420    2.1980   -2.9690 ha        1 MP7      0.216000
     58 HN32       -4.0690    0.3040   -1.9740 ha        1 MP7      0.210000
     59 H322       -1.3480   -1.5600   -1.2300 hn        1 MP7      0.278000
     60 O21        -3.6570    0.2640    0.6330 oh        1 MP7     -0.284000
     61 H15        -5.0070    1.9280   -0.7410 ha        1 MP7      0.137000
@<TRIPOS>BOND
     1    1    5 1   
     2    1    8 1   
     3    1   36 1   
     4    1   38 1   
     5    2   14 1   
     6    3    7 1   
     7    3    8 1   
     8    3    9 1   
     9    4    8 1   
    10    5    6 1   
    11    5   39 1   
    12    6    7 1   
    13    6   40 1   
    14    9   10 1   
    15    9   41 1   
    16    9   42 1   
    17   10   15 1   
    18   10   43 1   
    19   11   12 1   
    20   11   44 1   
    21   12   13 1   
    22   13   14 1   
    23   13   16 1   
    24   14   15 1   
    25   15   45 1   
    26   17   18 1   
    27   17   22 1   
    28   17   23 1   
    29   18   19 1   
    30   18   24 1   
    31   19   20 1   
    32   19   61 1   
    33   20   21 1   
    34   20   60 1   
    35   21   22 1   
    36   21   46 1   
    37   21   47 1   
    38   23   33 1   
    39   23   48 1   
    40   24   49 1   
    41   25   26 1   
    42   25   51 1   
    43   25   52 1   
    44   26   27 1   
    45   26   35 1   
    46   27   28 1   
    47   27   32 1   
    48   28   29 1   
    49   28   53 1   
    50   28   54 1   
    51   29   30 1   
    52   29   55 1   
    53   30   31 1   
    54   30   56 1   
    55   31   32 1   
    56   31   57 1   
    57   32   58 1   
    58   33   34 1   
    59   35   36 1   
    60   35   59 1   
    61   36   37 1   
    62   50   60 1   
@<TRIPOS>SUBSTRUCTURE
     1 MP7         1 TEMP              0 ****  ****    0 ROOT
