@<TRIPOS>MOLECULE
MP7
   61    63     1     0     0
SMALL
bcc


@<TRIPOS>ATOM
      1 C          -0.0580   -0.2990   -0.1660 c3        1 MP7     -0.079000
      2 F          -3.4290    3.0230    6.2310 f         1 MP7     -0.080000
      3 N           0.3640    0.9320    2.0340 n         1 MP7      0.067000
      4 O          -1.7710    0.8570    1.0850 o         1 MP7     -0.288000
      5 C1          1.3500    0.0110   -0.5140 c2        1 MP7     -0.266000
      6 C2          2.1520    0.6100    0.3880 c2        1 MP7     -0.036000
      7 C3          1.6810    1.0080    1.6740 c2        1 MP7     -0.310000
      8 C4         -0.5840    0.5290    0.9990 c2        1 MP7      0.311000
      9 C5         -0.0340    1.3150    3.2600 c2        1 MP7     -0.205000
     10 C6         -1.3330    1.1490    3.8780 ca        1 MP7     -0.010000
     11 C7         -2.1030   -0.0130    3.7300 ca        1 MP7     -0.129000
     12 C8         -3.3090   -0.1620    4.4050 ca        1 MP7     -0.146000
     13 C9         -3.7740    0.8560    5.2530 ca        1 MP7      0.066000
     14 C10        -2.9950    2.0360    5.4170 ca        1 MP7      0.073000
     15 C11        -1.7800    2.1700    4.7310 ca        1 MP7     -0.132000
     16 F12        -4.9460    0.7200    5.9090 f         1 MP7     -0.080000
     17 C13        -7.8250    0.0840   -0.0550 c2        1 MP7     -0.295000
     18 C14        -6.8280    1.1760   -0.0750 c2        1 MP7      0.114000
     19 C15        -5.5430    0.7640    0.5210 c2        1 MP7     -0.280000
     20 C16        -5.2550   -0.5310    0.7810 c2        1 MP7      0.060000
     21 C17        -6.2110   -1.6670    0.5770 c3        1 MP7     -0.099000
     22 C18        -7.5520   -1.2180    0.2440 c1        1 MP7     -0.238000
     23 N19        -9.1760    0.3500   -0.4140 n3        1 MP7     -0.046000
     24 N20        -6.9420    2.3570   -0.5930 n2        1 MP7     -0.317000
     25 C22        -3.7940   -1.6910   -2.8610 c2        1 MP7     -0.159000
     26 C23        -3.1330   -0.6060   -2.4090 c2        1 MP7     -0.009000
     27 C24        -3.3310    0.7050   -3.0700 c2        1 MP7      0.144000
     28 C25        -2.7910    0.8760   -4.4260 c3        1 MP7     -0.225000
     29 C26        -3.0770    2.1610   -5.0660 c2        1 MP7      0.026000
     30 C27        -3.7330    3.1640   -4.4020 c2        1 MP7     -0.211000
     31 C28        -4.1810    2.9670   -3.0770 c2        1 MP7      0.128000
     32 C29        -3.9710    1.7450   -2.4230 c2        1 MP7     -0.201000
     33 C30        -9.8730    1.2940    0.1970 c1        1 MP7      0.336000
     34 O31       -10.4260    2.3150    0.4020 o         1 MP7     -0.031000
     35 N32        -2.2530   -0.6370   -1.3060 n         1 MP7     -0.340000
     36 C33        -0.9590   -0.1450   -1.3950 c2        1 MP7      0.332000
     37 O34        -0.5480    0.3570   -2.4590 o         1 MP7     -0.371000
     38 H1         -0.1080   -1.3820    0.1760 hc        1 MP7      0.161000
     39 H2          1.6830   -0.2830   -1.5180 ha        1 MP7      0.167000
     40 H3          3.2170    0.8050    0.1770 ha        1 MP7      0.163000
     41 H5          2.3900    1.3660    2.4360 h4        1 MP7      0.180000
     42 H5A         0.7390    1.8050    3.8850 h4        1 MP7      0.181000
     43 H7         -1.7510   -0.8290    3.0800 ha        1 MP7      0.131000
     44 H8         -3.9060   -1.0790    4.2870 ha        1 MP7      0.162000
     45 H11        -1.1840    3.0850    4.8700 ha        1 MP7      0.163000
     46 H17        -6.2600   -2.2750    1.5270 hc        1 MP7      0.140000
     47 H18        -5.8330   -2.3550   -0.2290 hc        1 MP7      0.140000
     48 HN19       -9.6900   -0.5190   -0.5830 hn        1 MP7      0.299000
     49 HN20       -7.8370    2.5780   -0.9720 hn        1 MP7      0.123000
     50 H22        -3.6080   -0.1770    1.7120 ho        1 MP7      0.240000
     51 H22A       -4.4950   -1.6290   -3.7040 ha        1 MP7      0.149500
     52 H23        -3.7000   -2.6830   -2.3930 ha        1 MP7      0.149500
     53 H25        -1.6450    0.7730   -4.3200 hc        1 MP7      0.233000
     54 H26        -3.0810    0.0090   -5.0950 hc        1 MP7      0.233000
     55 H27        -2.7270    2.2960   -6.1060 ha        1 MP7      0.179000
     56 H28        -3.9230    4.1350   -4.8930 ha        1 MP7      0.186000
     57 H29        -4.7190    3.7790   -2.5470 ha        1 MP7      0.196000
     58 HN32       -4.3490    1.6150   -1.3880 ha        1 MP7      0.215000
     59 H322       -2.6250   -0.9410   -0.4290 hn        1 MP7      0.274000
     60 O21        -4.0340   -0.9330    1.2690 oh        1 MP7     -0.292000
     61 H15        -4.8320    1.5670    0.7780 ha        1 MP7      0.150000
@<TRIPOS>BOND
     1    1    5 1   
     2    1    8 1   
     3    1   36 1   
     4    1   38 1   
     5    2   14 1   
     6    3    7 1   
     7    3    8 1   
     8    3    9 1   
     9    4    8 1   
    10    5    6 1   
    11    5   39 1   
    12    6    7 1   
    13    6   40 1   
    14    7   41 1   
    15    9   10 1   
    16    9   42 1   
    17   10   11 1   
    18   10   15 1   
    19   11   12 1   
    20   11   43 1   
    21   12   13 1   
    22   12   44 1   
    23   13   14 1   
    24   13   16 1   
    25   14   15 1   
    26   15   45 1   
    27   17   18 1   
    28   17   22 1   
    29   17   23 1   
    30   18   19 1   
    31   18   24 1   
    32   19   20 1   
    33   19   61 1   
    34   20   21 1   
    35   20   60 1   
    36   21   22 1   
    37   21   46 1   
    38   21   47 1   
    39   23   33 1   
    40   23   48 1   
    41   24   49 1   
    42   25   26 1   
    43   25   51 1   
    44   25   52 1   
    45   26   27 1   
    46   26   35 1   
    47   27   28 1   
    48   27   32 1   
    49   28   29 1   
    50   28   53 1   
    51   28   54 1   
    52   29   30 1   
    53   29   55 1   
    54   30   31 1   
    55   30   56 1   
    56   31   32 1   
    57   31   57 1   
    58   32   58 1   
    59   33   34 1   
    60   35   36 1   
    61   35   59 1   
    62   36   37 1   
    63   50   60 1   
@<TRIPOS>SUBSTRUCTURE
     1 MP7         1 TEMP              0 ****  ****    0 ROOT
