@<TRIPOS>MOLECULE
MP7
   60    64     1     0     0
SMALL
bcc


@<TRIPOS>ATOM
      1 C          -1.6930   -1.5920   -1.7850 cc        1 MP7     -0.278400
      2 F          -7.6700    3.0090    0.5810 f         1 MP7     -0.124900
      3 N          -3.0190    0.4760   -1.7410 n         1 MP7     -0.334000
      4 O          -1.2140    0.2990   -0.3530 o         1 MP7     -0.664500
      5 C1         -2.5500   -2.1010   -2.7290 cd        1 MP7      0.037000
      6 C2         -3.6620   -1.3440   -3.1800 cd        1 MP7     -0.262000
      7 C3         -3.8650   -0.0840   -2.6700 cc        1 MP7      0.038600
      8 C4         -1.9130   -0.2570   -1.2280 c         1 MP7      0.707700
      9 C5         -3.2850    1.8180   -1.2490 c3        1 MP7      0.124300
     10 C6         -4.2620    1.8750   -0.1100 ca        1 MP7     -0.111300
     11 C7         -3.8750    1.4230    1.1570 ca        1 MP7     -0.095000
     12 C8         -4.7530    1.4980    2.2320 ca        1 MP7     -0.144000
     13 C9         -6.0400    2.0320    2.0520 ca        1 MP7      0.105900
     14 C10        -6.4350    2.4920    0.7670 ca        1 MP7      0.088900
     15 C11        -5.5360    2.4060   -0.3090 ca        1 MP7     -0.135000
     16 F12        -6.9000    2.1100    3.0910 f         1 MP7     -0.121900
     17 C13         5.7730    1.3020   -1.6830 ca        1 MP7     -0.058400
     18 C14         4.6620    1.9010   -0.9660 ca        1 MP7      0.033600
     19 C15         3.6540    1.1180   -0.4280 ca        1 MP7     -0.162000
     20 C16         3.7620   -0.2790   -0.6060 ca        1 MP7      0.141100
     21 C17         4.8300   -0.8640   -1.2950 ca        1 MP7     -0.207000
     22 C18         5.8460   -0.0730   -1.8430 ca        1 MP7     -0.084000
     23 N19         6.6030    2.3460   -2.1620 n         1 MP7     -0.418100
     24 N20         4.8370    3.2970   -0.9910 n         1 MP7     -0.451100
     25 C22         2.6420   -2.3720   -0.3890 c3        1 MP7      0.104400
     26 C23         1.3090   -2.9330    0.1660 c3        1 MP7      0.150000
     27 C24         1.3930   -3.0990    1.6640 ca        1 MP7     -0.100300
     28 C25         1.2990   -4.3800    2.2180 ca        1 MP7     -0.111000
     29 C26         1.3750   -4.5510    3.6000 ca        1 MP7     -0.134500
     30 C27         1.5350   -3.4460    4.4350 ca        1 MP7     -0.123000
     31 C28         1.6220   -2.1670    3.8850 ca        1 MP7     -0.134500
     32 C29         1.5500   -1.9920    2.5040 ca        1 MP7     -0.111000
     33 C30         6.0890    3.5710   -1.6220 c         1 MP7      0.774500
     34 O31         6.5970    4.6960   -1.7520 o         1 MP7     -0.621500
     35 N32         0.1470   -2.1630   -0.2170 n         1 MP7     -0.538900
     36 C33        -0.5420   -2.4460   -1.3750 c         1 MP7      0.687300
     37 O34        -0.2510   -3.4530   -2.0640 o         1 MP7     -0.640100
     38 H1         -2.3720   -3.1090   -3.1470 ha        1 MP7      0.174000
     39 H2         -4.3490   -1.7610   -3.9270 ha        1 MP7      0.161000
     40 H3         -4.7200    0.5410   -2.9920 h4        1 MP7      0.158000
     41 H5         -2.3020    2.2570   -0.9010 h1        1 MP7      0.084200
     42 H5A        -3.6650    2.4410   -2.1090 h1        1 MP7      0.084200
     43 H7         -2.8610    1.0070    1.2950 ha        1 MP7      0.171000
     44 H8         -4.4530    1.1430    3.2290 ha        1 MP7      0.160000
     45 H11        -5.8530    2.7670   -1.2980 ha        1 MP7      0.150000
     46 H17         4.8890   -1.9550   -1.4160 ha        1 MP7      0.144000
     47 H18         6.6770   -0.5420   -2.3890 ha        1 MP7      0.145000
     48 HN19        7.5800    2.2260   -2.2700 hn        1 MP7      0.333500
     49 HN20        4.3950    3.9300   -0.3760 hn        1 MP7      0.348500
     50 H22         2.6570   -2.4630   -1.5070 h1        1 MP7      0.054200
     51 H22A        3.4980   -2.9390    0.0610 h1        1 MP7      0.054200
     52 H23         1.2090   -3.9610   -0.3090 h1        1 MP7      0.095700
     53 H25         1.1630   -5.2550    1.5650 ha        1 MP7      0.142000
     54 H26         1.3050   -5.5610    4.0300 ha        1 MP7      0.132000
     55 H27         1.5920   -3.5830    5.5240 ha        1 MP7      0.131000
     56 H28         1.7480   -1.2930    4.5420 ha        1 MP7      0.132000
     57 H29         1.6330   -0.9830    2.0670 ha        1 MP7      0.142000
     58 HN32        0.0300   -1.2810    0.2320 hn        1 MP7      0.345500
     59 O21         2.7390   -0.9940   -0.0120 os        1 MP7     -0.331900
     60 H15         2.7960    1.5400    0.1120 ha        1 MP7      0.162000
@<TRIPOS>BOND
     1    1    5 2   
     2    1    8 1   
     3    1   36 1   
     4    2   14 1   
     5    3    7 1   
     6    3    8 1   
     7    3    9 1   
     8    4    8 2   
     9    5    6 1   
    10    5   38 1   
    11    6    7 2   
    12    6   39 1   
    13    7   40 1   
    14    9   10 1   
    15    9   41 1   
    16    9   42 1   
    17   10   11 ar  
    18   10   15 ar  
    19   11   12 ar  
    20   11   43 1   
    21   12   13 ar  
    22   12   44 1   
    23   13   14 ar  
    24   13   16 1   
    25   14   15 ar  
    26   15   45 1   
    27   17   18 ar  
    28   17   22 ar  
    29   17   23 1   
    30   18   19 ar  
    31   18   24 1   
    32   19   20 ar  
    33   19   60 1   
    34   20   21 ar  
    35   20   59 1   
    36   21   22 ar  
    37   21   46 1   
    38   22   47 1   
    39   23   33 1   
    40   23   48 1   
    41   24   33 1   
    42   24   49 1   
    43   25   26 1   
    44   25   50 1   
    45   25   51 1   
    46   25   59 1   
    47   26   27 1   
    48   26   35 1   
    49   26   52 1   
    50   27   28 ar  
    51   27   32 ar  
    52   28   29 ar  
    53   28   53 1   
    54   29   30 ar  
    55   29   54 1   
    56   30   31 ar  
    57   30   55 1   
    58   31   32 ar  
    59   31   56 1   
    60   32   57 1   
    61   33   34 2   
    62   35   36 1   
    63   35   58 1   
    64   36   37 2   
@<TRIPOS>SUBSTRUCTURE
     1 MP7         1 TEMP              0 ****  ****    0 ROOT
