@<TRIPOS>MOLECULE
MP7
   61    63     1     0     0
SMALL
bcc


@<TRIPOS>ATOM
      1 C          -1.1120   -1.4860   -0.2270 c3        1 MP7     -0.068000
      2 F          -3.4010    4.3310    3.4360 f         1 MP7     -0.091000
      3 N          -0.3040   -0.4550    1.9560 n         1 MP7      0.075000
      4 O          -2.3960   -1.5100    1.8200 o         1 MP7     -0.259000
      5 C1          0.2740   -1.9800   -0.4120 c2        1 MP7     -0.354000
      6 C2          1.2300   -1.6720    0.4950 c2        1 MP7      0.009000
      7 C3          0.9690   -0.8610    1.6330 c2        1 MP7     -0.367000
      8 C4         -1.3760   -1.1480    1.2360 c2        1 MP7      0.335000
      9 C5         -0.5310    0.4960    2.8630 c2        1 MP7     -0.147000
     10 C6         -1.8140    1.0310    3.2970 ca        1 MP7     -0.046000
     11 C7         -2.8060    0.2440    3.8940 ca        1 MP7     -0.090000
     12 C8         -3.9960    0.8160    4.3330 ca        1 MP7     -0.138000
     13 C9         -4.2130    2.1950    4.1810 ca        1 MP7      0.074000
     14 C10        -3.2030    3.0020    3.5890 ca        1 MP7      0.051000
     15 C11        -2.0060    2.4130    3.1590 ca        1 MP7     -0.123000
     16 F12        -5.3720    2.7580    4.5900 f         1 MP7     -0.089000
     17 C13        -7.2150    0.5310    1.1770 c2        1 MP7     -0.282000
     18 C14        -6.6580    0.7140   -0.1790 c2        1 MP7      0.146000
     19 C15        -5.6710   -0.3230   -0.5270 c2        1 MP7     -0.245000
     20 C16        -5.2330   -1.2410    0.3670 c2        1 MP7      0.081000
     21 C17        -5.6990   -1.3140    1.7860 c3        1 MP7     -0.141000
     22 C18        -6.7320   -0.3470    2.1070 c1        1 MP7     -0.228000
     23 N19        -8.3410    1.2820    1.5990 n7        1 MP7     -0.037000
     24 N20        -6.9150    1.6510   -1.0390 n2        1 MP7     -0.367000
     25 C22        -0.5760    0.9000   -4.3870 c2        1 MP7     -0.197000
     26 C23        -1.4310    0.6180   -3.3830 c2        1 MP7     -0.008000
     27 C24        -2.6710    1.4140   -3.2310 c2        1 MP7      0.146000
     28 C25        -2.5230    2.8150   -2.8040 c3        1 MP7     -0.217000
     29 C26        -3.7590    3.6010   -2.7740 c2        1 MP7      0.021000
     30 C27        -4.9790    3.0340   -3.0310 c2        1 MP7     -0.187000
     31 C28        -5.0740    1.6620   -3.3510 c2        1 MP7      0.168000
     32 C29        -3.9170    0.8670   -3.4550 c2        1 MP7     -0.208000
     33 C30        -8.3760    2.6040    1.5470 c1        1 MP7      0.324000
     34 O31        -8.6470    3.6920    1.1750 o         1 MP7     -0.052000
     35 N32        -1.2490   -0.4400   -2.4700 ns        1 MP7     -0.318000
     36 C33        -1.3900   -0.2610   -1.0960 c2        1 MP7      0.333000
     37 O34        -1.7720    0.8280   -0.6250 o         1 MP7     -0.382000
     38 H1         -1.8690   -2.2820   -0.5090 hc        1 MP7      0.168000
     39 H2          0.4640   -2.6130   -1.2860 ha        1 MP7      0.145000
     40 H3          2.2680   -2.0270    0.3780 ha        1 MP7      0.157000
     41 H5          1.7880   -0.5020    2.2710 h4        1 MP7      0.177000
     42 H5A         0.3660    0.9670    3.3160 h4        1 MP7      0.182000
     43 H7         -2.6490   -0.8400    4.0210 ha        1 MP7      0.161000
     44 H8         -4.7820    0.1950    4.7930 ha        1 MP7      0.173000
     45 H11        -1.2250    3.0450    2.7110 ha        1 MP7      0.157000
     46 H17        -4.8180   -1.1390    2.4750 hc        1 MP7      0.146000
     47 H18        -6.0940   -2.3480    2.0040 hc        1 MP7      0.146000
     48 HN19       -8.7540    0.8800    2.4470 hn        1 MP7      0.302000
     49 HN20       -7.6020    2.3170   -0.7650 hn        1 MP7      0.118000
     50 H22        -4.0170   -2.6740    0.7050 ho        1 MP7      0.237000
     51 H22A        0.3520    0.3360   -4.5580 ha        1 MP7      0.149000
     52 H23        -0.7840    1.6960   -5.1150 ha        1 MP7      0.149000
     53 H25        -2.1110    2.7650   -1.7280 hc        1 MP7      0.224500
     54 H26        -1.7150    3.3400   -3.3970 hc        1 MP7      0.224500
     55 H27        -3.6680    4.6710   -2.5140 ha        1 MP7      0.177000
     56 H28        -5.9090    3.6280   -2.9670 ha        1 MP7      0.190000
     57 H29        -6.0700    1.2090   -3.5320 ha        1 MP7      0.201000
     58 HN32       -4.0190   -0.2020   -3.7170 ha        1 MP7      0.190000
     59 H322       -0.7090   -1.2160   -2.7880 hn        1 MP7      0.256000
     60 O21        -4.3010   -2.1550   -0.0660 oh        1 MP7     -0.275000
     61 H15        -5.2930   -0.3320   -1.5600 ha        1 MP7      0.128000
@<TRIPOS>BOND
     1    1    5 1   
     2    1    8 1   
     3    1   36 1   
     4    1   38 1   
     5    2   14 1   
     6    3    7 1   
     7    3    8 1   
     8    3    9 1   
     9    4    8 1   
    10    5    6 1   
    11    5   39 1   
    12    6    7 1   
    13    6   40 1   
    14    7   41 1   
    15    9   10 1   
    16    9   42 1   
    17   10   11 1   
    18   10   15 1   
    19   11   12 1   
    20   11   43 1   
    21   12   13 1   
    22   12   44 1   
    23   13   14 1   
    24   13   16 1   
    25   14   15 1   
    26   15   45 1   
    27   17   18 1   
    28   17   22 1   
    29   17   23 1   
    30   18   19 1   
    31   18   24 1   
    32   19   20 1   
    33   19   61 1   
    34   20   21 1   
    35   20   60 1   
    36   21   22 1   
    37   21   46 1   
    38   21   47 1   
    39   23   33 1   
    40   23   48 1   
    41   24   49 1   
    42   25   26 1   
    43   25   51 1   
    44   25   52 1   
    45   26   27 1   
    46   26   35 1   
    47   27   28 1   
    48   27   32 1   
    49   28   29 1   
    50   28   53 1   
    51   28   54 1   
    52   29   30 1   
    53   29   55 1   
    54   30   31 1   
    55   30   56 1   
    56   31   32 1   
    57   31   57 1   
    58   32   58 1   
    59   33   34 1   
    60   35   36 1   
    61   35   59 1   
    62   36   37 1   
    63   50   60 1   
@<TRIPOS>SUBSTRUCTURE
     1 MP7         1 TEMP              0 ****  ****    0 ROOT
