@<TRIPOS>MOLECULE
MP8
   19    19     1     0     0
SMALL
bcc


@<TRIPOS>ATOM
      1 C          -1.8410    0.0640   -0.0530 c         1 MP8      0.934600
      2 N           0.2010   -1.2520    0.5990 n3        1 MP8     -0.785200
      3 O          -2.0820    0.4300   -1.2360 o         1 MP8     -0.839800
      4 CA         -0.3650    0.0960    0.4560 c3        1 MP8      0.044500
      5 CB          0.5750    0.8920   -0.4630 c3        1 MP8     -0.079400
      6 CD          1.6200   -1.1900    0.2750 c3        1 MP8      0.161800
      7 CE          3.0420    0.8920    0.0940 c3        1 MP8     -0.081100
      8 CG          1.8950    0.1160   -0.5030 c3        1 MP8     -0.080700
      9 OXT        -2.7160   -0.2830    0.7880 o         1 MP8     -0.839800
     10 H2          0.0500   -1.5930    1.5280 hn        1 MP8      0.344800
     11 HA         -0.4000    0.6140    1.4610 h1        1 MP8      0.000700
     12 HB          0.1160    0.9590   -1.4840 hc        1 MP8      0.053700
     13 HBA         0.7200    1.9280   -0.0750 hc        1 MP8      0.053700
     14 HD          2.2830   -1.2450    1.1850 h1        1 MP8      0.006700
     15 HDA         1.8620   -2.0820   -0.3650 h1        1 MP8      0.006700
     16 HE          2.8190    1.1790    1.1500 hc        1 MP8      0.019700
     17 HEA         3.9780    0.2810    0.0850 hc        1 MP8      0.019700
     18 HEB         3.2240    1.8260   -0.4920 hc        1 MP8      0.019700
     19 HG          2.1480   -0.1400   -1.5660 hc        1 MP8      0.039700
@<TRIPOS>BOND
     1    1    3 1   
     2    1    4 1   
     3    1    9 1   
     4    2    4 1   
     5    2    6 1   
     6    2   10 1   
     7    4    5 1   
     8    4   11 1   
     9    5    8 1   
    10    5   12 1   
    11    5   13 1   
    12    6    8 1   
    13    6   14 1   
    14    6   15 1   
    15    7    8 1   
    16    7   16 1   
    17    7   17 1   
    18    7   18 1   
    19    8   19 1   
@<TRIPOS>SUBSTRUCTURE
     1 MP8         1 TEMP              0 ****  ****    0 ROOT
