@<TRIPOS>MOLECULE
MP9
   38    40     1     0     0
SMALL
bcc


@<TRIPOS>ATOM
      1 C1         -0.1310    0.2220   -0.0900 cc        1 MP9     -0.306900
      2 C2          1.1110   -0.3720    0.0790 cd        1 MP9      0.289700
      3 O3          1.2270   -0.8180    1.4160 os        1 MP9     -0.071100
      4 N4          0.1330   -0.5180    2.0900 nd        1 MP9     -0.401300
      5 C5         -0.7250    0.1110    1.2470 cc        1 MP9      0.501600
      6 C6          2.2130   -0.5740   -0.8120 cd        1 MP9      0.393000
      7 N7          3.1970   -1.6120   -0.7380 nd        1 MP9     -0.318000
      8 N8          3.9640   -1.4620   -1.7330 nc        1 MP9     -0.149800
      9 N9          3.5550   -0.3710   -2.4480 na        1 MP9      0.227900
     10 N10         2.4740    0.2040   -1.9160 nc        1 MP9     -0.439800
     11 C11         4.1250    0.0510   -3.7480 c3        1 MP9      0.120600
     12 C12         1.6280   -0.8220   -7.1210 ca        1 MP9     -0.113000
     13 C13         2.8120   -1.5340   -6.9210 ca        1 MP9     -0.132500
     14 C14         3.6120   -1.2620   -5.8140 ca        1 MP9     -0.098000
     15 C15         3.2350   -0.2650   -4.9070 ca        1 MP9     -0.152300
     16 C16         2.0460    0.4470   -5.1050 ca        1 MP9     -0.098000
     17 C17         1.2460    0.1640   -6.2130 ca        1 MP9     -0.132500
     18 O23        -1.9500    0.6400    1.5380 oh        1 MP9     -0.629300
     19 C24        -0.7540    0.7680   -1.2990 c3        1 MP9     -0.017100
     20 C25        -0.7180    2.2870   -1.3540 c3        1 MP9     -0.063500
     21 C26        -1.0870    2.7780   -2.8360 c         1 MP9      0.939600
     22 O27        -0.4010    2.2770   -3.7440 o         1 MP9     -0.763800
     23 O28        -2.0120    3.6280   -2.8960 o         1 MP9     -0.763800
     24 N29        -1.6450    2.9200   -0.3670 n4        1 MP9     -0.834600
     25 HO23       -2.2540    0.2800    2.3890 ho        1 MP9      0.458000
     26 H111        5.1210   -0.4640   -3.8550 h1        1 MP9      0.087700
     27 H112        4.2900    1.1660   -3.6860 h1        1 MP9      0.087700
     28 H16         1.7180    1.2280   -4.3960 ha        1 MP9      0.153500
     29 H17         0.3100    0.7290   -6.3550 ha        1 MP9      0.146000
     30 H241       -1.8120    0.3930   -1.3770 hc        1 MP9      0.102700
     31 H242       -0.2110    0.4130   -2.2240 hc        1 MP9      0.102700
     32 H25         0.3220    2.6610   -1.1440 hx        1 MP9      0.096700
     33 H291       -1.1330    3.3910    0.3720 hn        1 MP9      0.448467
     34 H292       -2.2140    3.6120   -0.9060 hn        1 MP9      0.448467
     35 H12         0.9960   -1.0410   -7.9950 ha        1 MP9      0.134000
     36 H13         3.1130   -2.3150   -7.6360 ha        1 MP9      0.146000
     37 H293       -2.2650    2.2210    0.0450 hn        1 MP9      0.448467
     38 H14         4.5410   -1.8300   -5.6560 ha        1 MP9      0.153500
@<TRIPOS>BOND
     1    1    2 2   
     2    1    5 1   
     3    1   19 1   
     4    2    3 1   
     5    2    6 1   
     6    3    4 1   
     7    4    5 2   
     8    5   18 1   
     9    6    7 1   
    10    6   10 2   
    11    7    8 2   
    12    8    9 1   
    13    9   10 1   
    14    9   11 1   
    15   11   15 1   
    16   11   26 1   
    17   11   27 1   
    18   12   13 ar  
    19   12   17 ar  
    20   12   35 1   
    21   13   14 ar  
    22   13   36 1   
    23   14   15 ar  
    24   14   38 1   
    25   15   16 ar  
    26   16   17 ar  
    27   16   28 1   
    28   17   29 1   
    29   18   25 1   
    30   19   20 1   
    31   19   30 1   
    32   19   31 1   
    33   20   21 1   
    34   20   24 1   
    35   20   32 1   
    36   21   22 1   
    37   21   23 1   
    38   24   33 1   
    39   24   34 1   
    40   24   37 1   
@<TRIPOS>SUBSTRUCTURE
     1 MP9         1 TEMP              0 ****  ****    0 ROOT
