@<TRIPOS>MOLECULE
MP9
   37    33     1     0     0
SMALL
bcc


@<TRIPOS>ATOM
      1 C1         -2.0330   -1.8100    1.5960 c1        1 MP9     -0.125000
      2 C2         -0.6170   -1.7900    1.6110 c1        1 MP9      0.020000
      3 O3         -0.1240   -1.7840    3.0300 os        1 MP9     -0.058000
      4 N4         -1.4360   -1.7940    3.7830 n2        1 MP9     -0.078000
      5 C5         -2.5080   -1.8070    2.8810 c2        1 MP9      0.047000
      6 C6          0.1390   -1.0140    0.5410 c1        1 MP9     -0.073000
      7 N7          0.9360   -1.6520   -0.3150 n2        1 MP9     -0.081000
      8 N8          1.9840   -0.8660   -0.6300 n1        1 MP9      0.006000
      9 N9          1.8820    0.4220    0.0840 n2        1 MP9     -0.156000
     10 N10         0.6530    0.2200    0.8230 n2        1 MP9     -0.024000
     11 C11         2.9930    1.2670    0.4830 c3        1 MP9      0.058000
     12 C12         4.1740    4.0270   -2.6650 c1        1 MP9     -0.117250
     13 C13         4.6100    2.7020   -2.7060 c1        1 MP9     -0.117250
     14 C14         4.2040    1.8010   -1.7160 c1        1 MP9     -0.117250
     15 C15         3.3550    2.2330   -0.6790 c1        1 MP9     -0.144000
     16 C16         2.9210    3.5590   -0.6420 c1        1 MP9     -0.125000
     17 C17         3.3280    4.4560   -1.6310 c1        1 MP9     -0.117250
     18 O23        -3.6910   -2.5000    3.1980 oh        1 MP9     -0.250000
     19 C24        -2.7870   -2.5770    0.4980 c2        1 MP9     -0.102000
     20 C25        -3.9740   -1.7160   -0.0110 c3        1 MP9     -0.133000
     21 C26        -3.7510   -1.3550   -1.4840 c2        1 MP9      0.319000
     22 O27        -3.4370   -2.2590   -2.3190 o         1 MP9     -0.572500
     23 O28        -3.8330   -0.1450   -1.8600 o         1 MP9     -0.572500
     24 N29        -5.1650   -2.4400    0.1260 n3        1 MP9     -0.350000
     25 HO23       -4.0870   -2.1100    3.9070 ho        1 MP9      0.285000
     26 H111        3.7800    0.7000    0.7000 h1        1 MP9      0.114000
     27 H112        2.7200    1.8250    1.3280 h1        1 MP9      0.114000
     28 H12         4.5020    4.6820   -3.3500 ha        1 MP9      0.155750
     29 H13         5.2240    2.3890   -3.4580 ha        1 MP9      0.155750
     30 H14         4.5250    0.8280   -1.7440 ha        1 MP9      0.155750
     31 H16         2.3130    3.8710    0.1010 ha        1 MP9      0.116000
     32 H17         3.0340    5.3520   -1.6040 ha        1 MP9      0.155750
     33 H241       -3.1350   -3.4320    0.8710 ha        1 MP9      0.115000
     34 H242       -2.1680   -2.7750   -0.2590 ha        1 MP9      0.115000
     35 H25        -4.0370   -0.8440    0.5510 h1        1 MP9      0.092000
     36 H291       -5.0040   -3.3240   -0.0400 hn        1 MP9      0.145000
     37 H292       -5.4890   -2.3420    1.0030 hn        1 MP9      0.145000
@<TRIPOS>BOND
     1    1    2 1   
     2    1    5 1   
     3    2    3 1   
     4    3    4 1   
     5    4    5 1   
     6    5   18 1   
     7    6    7 1   
     8    6   10 1   
     9    7    8 1   
    10    9   10 1   
    11    9   11 1   
    12   11   15 1   
    13   11   26 1   
    14   11   27 1   
    15   12   17 1   
    16   12   28 1   
    17   13   14 1   
    18   13   29 1   
    19   14   30 1   
    20   15   16 1   
    21   16   31 1   
    22   17   32 1   
    23   18   25 1   
    24   19   20 1   
    25   19   33 1   
    26   19   34 1   
    27   20   21 1   
    28   20   24 1   
    29   20   35 1   
    30   21   22 1   
    31   21   23 1   
    32   24   36 1   
    33   24   37 1   
@<TRIPOS>SUBSTRUCTURE
     1 MP9         1 TEMP              0 ****  ****    0 ROOT
