@<TRIPOS>MOLECULE
MP9
   38    40     1     0     0
SMALL
bcc


@<TRIPOS>ATOM
      1 C1         -0.0990    0.2560   -0.0730 cc        1 MP9     -0.306900
      2 C2          1.1530   -0.3200    0.0930 cd        1 MP9      0.289700
      3 O3          1.2890   -0.7380    1.4370 os        1 MP9     -0.071100
      4 N4          0.2000   -0.4380    2.1180 nd        1 MP9     -0.401300
      5 C5         -0.6750    0.1640    1.2730 cc        1 MP9      0.501600
      6 C6          2.2460   -0.5270   -0.8070 cd        1 MP9      0.393000
      7 N7          3.2420   -1.5530   -0.7250 nd        1 MP9     -0.318000
      8 N8          3.9960   -1.4130   -1.7320 nc        1 MP9     -0.149800
      9 N9          3.5670   -0.3410   -2.4620 na        1 MP9      0.227900
     10 N10         2.4850    0.2320   -1.9290 nc        1 MP9     -0.439800
     11 C11         4.1160    0.0630   -3.7770 c3        1 MP9      0.120600
     12 C12         1.5870   -0.9000   -7.1030 ca        1 MP9     -0.113000
     13 C13         2.7810   -1.5950   -6.9040 ca        1 MP9     -0.132500
     14 C14         3.5920   -1.2940   -5.8120 ca        1 MP9     -0.097500
     15 C15         3.2150   -0.2840   -4.9190 ca        1 MP9     -0.152300
     16 C16         2.0170    0.4100   -5.1160 ca        1 MP9     -0.097500
     17 C17         1.2060    0.0990   -6.2080 ca        1 MP9     -0.132500
     18 O23        -1.9030    0.6850    1.5680 oh        1 MP9     -0.629300
     19 C24        -0.7420    0.7710   -1.2840 c3        1 MP9     -0.017100
     20 C25        -0.7260    2.2880   -1.3690 c3        1 MP9     -0.063500
     21 C26        -1.1180    2.7460   -2.8560 c         1 MP9      0.939600
     22 O27        -0.4370    2.2360   -3.7630 o         1 MP9     -0.763800
     23 O28        -2.0530    3.5850   -2.9210 o         1 MP9     -0.763800
     24 N29        -1.6500    2.9290   -0.3840 n4        1 MP9     -0.834600
     25 HO23       -2.1930    0.3370    2.4300 ho        1 MP9      0.458000
     26 H111        4.2700    1.1800   -3.7380 h1        1 MP9      0.087700
     27 H112        5.1170   -0.4440   -3.8870 h1        1 MP9      0.087700
     28 H16         1.6880    1.2010   -4.4160 ha        1 MP9      0.153500
     29 H17         0.2620    0.6500   -6.3480 ha        1 MP9      0.146000
     30 H241       -0.2050    0.4040   -2.2090 hc        1 MP9      0.102700
     31 H242       -1.7960    0.3810   -1.3440 hc        1 MP9      0.102700
     32 H25         0.3120    2.6800   -1.1790 hx        1 MP9      0.096700
     33 H291       -2.2320    3.6060   -0.9290 hn        1 MP9      0.448467
     34 H292       -2.2580    2.2310    0.0470 hn        1 MP9      0.448467
     35 H12         0.9470   -1.1420   -7.9640 ha        1 MP9      0.134000
     36 H13         3.0820   -2.3850   -7.6080 ha        1 MP9      0.146000
     37 H293       -1.1350    3.4180    0.3410 hn        1 MP9      0.448467
     38 H14         4.5290   -1.8490   -5.6560 ha        1 MP9      0.153500
@<TRIPOS>BOND
     1    1    2 2   
     2    1    5 1   
     3    1   19 1   
     4    2    3 1   
     5    2    6 1   
     6    3    4 1   
     7    4    5 2   
     8    5   18 1   
     9    6    7 1   
    10    6   10 2   
    11    7    8 2   
    12    8    9 1   
    13    9   10 1   
    14    9   11 1   
    15   11   15 1   
    16   11   26 1   
    17   11   27 1   
    18   12   13 ar  
    19   12   17 ar  
    20   12   35 1   
    21   13   14 ar  
    22   13   36 1   
    23   14   15 ar  
    24   14   38 1   
    25   15   16 ar  
    26   16   17 ar  
    27   16   28 1   
    28   17   29 1   
    29   18   25 1   
    30   19   20 1   
    31   19   30 1   
    32   19   31 1   
    33   20   21 1   
    34   20   24 1   
    35   20   32 1   
    36   21   22 1   
    37   21   23 1   
    38   24   33 1   
    39   24   34 1   
    40   24   37 1   
@<TRIPOS>SUBSTRUCTURE
     1 MP9         1 TEMP              0 ****  ****    0 ROOT
