@<TRIPOS>MOLECULE
MP9
   37    39     1     0     0
SMALL
bcc


@<TRIPOS>ATOM
      1 C1         11.3420   -3.1360    7.8150 cc        1 MP9     -0.264900
      2 C2         10.5130   -3.0830    6.7110 cd        1 MP9      0.215700
      3 O3          9.4380   -2.2020    6.9800 os        1 MP9     -0.117100
      4 N4          9.5440   -1.7230    8.2100 nd        1 MP9     -0.415300
      5 C5         10.6650   -2.2410    8.7730 cc        1 MP9      0.548600
      6 C6         10.5550   -3.7510    5.4410 cd        1 MP9      0.443000
      7 N7         10.3830   -3.1470    4.1500 nd        1 MP9     -0.346000
      8 N8         10.5840   -4.0510    3.2880 nc        1 MP9     -0.170800
      9 N9         10.8470   -5.2260    3.9350 na        1 MP9      0.204900
     10 N10        10.8410   -5.0780    5.2700 nc        1 MP9     -0.439800
     11 C11        11.3570   -6.4490    3.2860 c3        1 MP9      0.125600
     12 C12        15.6020   -6.9810    3.6120 ca        1 MP9     -0.130000
     13 C13        15.0040   -6.8390    2.3580 ca        1 MP9     -0.131500
     14 C14        13.6280   -6.6510    2.2560 ca        1 MP9     -0.102000
     15 C15        12.8390   -6.6200    3.4130 ca        1 MP9     -0.152300
     16 C16        13.4380   -6.7690    4.6670 ca        1 MP9     -0.102000
     17 C17        14.8210   -6.9420    4.7650 ca        1 MP9     -0.131500
     18 O23        11.0630   -1.9380   10.0340 oh        1 MP9     -0.621300
     19 C24        12.6220   -3.8330    7.9860 c3        1 MP9     -0.013100
     20 C25        12.6070   -4.9180    9.0710 c3        1 MP9      0.017500
     21 C26        13.8100   -5.8870    8.7960 c         1 MP9      0.899600
     22 O27        14.6610   -6.0500    9.7130 o         1 MP9     -0.837800
     23 O28        13.8480   -6.4570    7.6700 o         1 MP9     -0.837800
     24 N29        12.6040   -4.3440   10.4120 n3        1 MP9     -0.919800
     25 HO23       11.6990   -2.6510   10.2970 ho        1 MP9      0.486000
     26 H111       11.0510   -6.4040    2.2030 h1        1 MP9      0.074700
     27 H112       10.8350   -7.3210    3.7790 h1        1 MP9      0.074700
     28 H14        13.1640   -6.5240    1.2680 ha        1 MP9      0.158000
     29 H16        12.8580   -6.7420    5.6110 ha        1 MP9      0.158000
     30 H17        15.2610   -7.0270    5.7760 ha        1 MP9      0.152500
     31 H241       12.9070   -4.3470    7.0240 hc        1 MP9      0.072700
     32 H242       13.4200   -3.0740    8.2150 hc        1 MP9      0.072700
     33 H25        11.6680   -5.5290    8.9410 h1        1 MP9      0.052700
     34 H291       13.5590   -4.1630   10.6770 hn        1 MP9      0.350300
     35 H292       12.2510   -5.0300   11.0520 hn        1 MP9      0.350300
     36 H12        16.6910   -7.1170    3.6880 ha        1 MP9      0.123000
     37 H13        15.6200   -6.8670    1.4480 ha        1 MP9      0.152500
@<TRIPOS>BOND
     1    1    2 2   
     2    1    5 1   
     3    1   19 1   
     4    2    3 1   
     5    2    6 1   
     6    3    4 1   
     7    4    5 2   
     8    5   18 1   
     9    6    7 1   
    10    6   10 2   
    11    7    8 2   
    12    8    9 1   
    13    9   10 1   
    14    9   11 1   
    15   11   15 1   
    16   11   26 1   
    17   11   27 1   
    18   12   13 ar  
    19   12   17 ar  
    20   12   36 1   
    21   13   14 ar  
    22   13   37 1   
    23   14   15 ar  
    24   14   28 1   
    25   15   16 ar  
    26   16   17 ar  
    27   16   29 1   
    28   17   30 1   
    29   18   25 1   
    30   19   20 1   
    31   19   31 1   
    32   19   32 1   
    33   20   21 1   
    34   20   24 1   
    35   20   33 1   
    36   21   22 1   
    37   21   23 1   
    38   24   34 1   
    39   24   35 1   
@<TRIPOS>SUBSTRUCTURE
     1 MP9         1 TEMP              0 ****  ****    0 ROOT
