@<TRIPOS>MOLECULE
MP9
   38    40     1     0     0
SMALL
bcc


@<TRIPOS>ATOM
      1 C1         -0.1020    0.2570   -0.0740 cc        1 MP9     -0.306900
      2 C2          1.1740   -0.2560    0.1090 cd        1 MP9      0.289700
      3 O3          1.3220   -0.6400    1.4630 os        1 MP9     -0.071100
      4 N4          0.2170   -0.3770    2.1320 nd        1 MP9     -0.401300
      5 C5         -0.6810    0.1660    1.2710 cc        1 MP9      0.501600
      6 C6          2.2810   -0.4290   -0.7820 cd        1 MP9      0.393000
      7 N7          3.3240   -1.4050   -0.6720 nd        1 MP9     -0.318000
      8 N8          4.0760   -1.2510   -1.6800 nc        1 MP9     -0.149800
      9 N9          3.6000   -0.2160   -2.4350 na        1 MP9      0.227900
     10 N10         2.4890    0.3160   -1.9180 nc        1 MP9     -0.439800
     11 C11         4.1360    0.1850   -3.7550 c3        1 MP9      0.120600
     12 C12         1.6770   -0.9710   -7.0710 ca        1 MP9     -0.113000
     13 C13         2.9010   -1.6040   -6.8510 ca        1 MP9     -0.132500
     14 C14         3.6900   -1.2400   -5.7620 ca        1 MP9     -0.098000
     15 C15         3.2600   -0.2300   -4.8930 ca        1 MP9     -0.152300
     16 C16         2.0310    0.4020   -5.1110 ca        1 MP9     -0.098000
     17 C17         1.2420    0.0280   -6.2000 ca        1 MP9     -0.132500
     18 O23        -1.9340    0.6350    1.5500 oh        1 MP9     -0.629300
     19 C24        -0.7620    0.7160   -1.2990 c3        1 MP9     -0.017100
     20 C25        -0.8150    2.2310   -1.4150 c3        1 MP9     -0.063500
     21 C26        -1.2210    2.6390   -2.9140 c         1 MP9      0.939600
     22 O27        -0.5120    2.1420   -3.8060 o         1 MP9     -0.763800
     23 O28        -2.1940    3.4310   -3.0000 o         1 MP9     -0.763800
     24 N29        -1.7730    2.8490   -0.4480 nz        1 MP9     -0.834600
     25 HO23       -2.2120    0.2920    2.4170 ho        1 MP9      0.458000
     26 H111        5.1610   -0.2740   -3.8490 h1        1 MP9      0.087700
     27 H112        4.2360    1.3090   -3.7400 h1        1 MP9      0.087700
     28 H16         1.6610    1.1910   -4.4310 ha        1 MP9      0.153500
     29 H17         0.2740    0.5300   -6.3570 ha        1 MP9      0.146000
     30 H241       -0.2050    0.3560   -2.2130 hc        1 MP9      0.102700
     31 H242       -1.7970    0.2770   -1.3540 hc        1 MP9      0.102700
     32 H25         0.2020    2.6730   -1.2290 hx        1 MP9      0.096700
     33 H291       -2.3840    3.4850   -1.0090 hn        1 MP9      0.448467
     34 H292       -2.3490    2.1320   -0.0030 hn        1 MP9      0.448467
     35 H12         1.0540   -1.2620   -7.9290 ha        1 MP9      0.134000
     36 H13         3.2440   -2.3940   -7.5350 ha        1 MP9      0.146000
     37 H293       -1.2850    3.3780    0.2680 hn        1 MP9      0.448467
     38 H14         4.6520   -1.7460   -5.5880 ha        1 MP9      0.153500
@<TRIPOS>BOND
     1    1    2 2   
     2    1    5 1   
     3    1   19 1   
     4    2    3 1   
     5    2    6 1   
     6    3    4 1   
     7    4    5 2   
     8    5   18 1   
     9    6    7 1   
    10    6   10 2   
    11    7    8 2   
    12    8    9 1   
    13    9   10 1   
    14    9   11 1   
    15   11   15 1   
    16   11   26 1   
    17   11   27 1   
    18   12   13 ar  
    19   12   17 ar  
    20   12   35 1   
    21   13   14 ar  
    22   13   36 1   
    23   14   15 ar  
    24   14   38 1   
    25   15   16 ar  
    26   16   17 ar  
    27   16   28 1   
    28   17   29 1   
    29   18   25 1   
    30   19   20 1   
    31   19   30 1   
    32   19   31 1   
    33   20   21 1   
    34   20   24 1   
    35   20   32 1   
    36   21   22 1   
    37   21   23 1   
    38   24   33 1   
    39   24   34 1   
    40   24   37 1   
@<TRIPOS>SUBSTRUCTURE
     1 MP9         1 TEMP              0 ****  ****    0 ROOT
