@<TRIPOS>MOLECULE
MPA
   52    52     1     0     0
SMALL
bcc


@<TRIPOS>ATOM
      1 C1          2.7060    3.7480    5.3890 c3        1 MPA     -0.329600
      2 C2          2.2480    3.9550    6.8030 c3        1 MPA     -0.070400
      3 C3          2.8150    5.2100    7.4290 c3        1 MPA     -0.068400
      4 C4          2.3320    5.3850    8.8530 c3        1 MPA     -0.080400
      5 C5          2.8990    6.6410    9.4800 c3        1 MPA     -0.080400
      6 C6          2.4210    6.8190   10.8980 c3        1 MPA     -0.090100
      7 C7          1.9210    1.4680    2.3980 c3        1 MPA      0.213100
      8 C8          2.7460    0.1960    2.1330 c3        1 MPA     -0.103400
      9 C9          2.0520   -0.7190    1.1390 c3        1 MPA     -0.065700
     10 C10         1.7960    0.0170   -0.1670 c3        1 MPA     -0.069400
     11 C11         1.0070    1.2850    0.0790 c3        1 MPA     -0.073400
     12 C12         1.7230    2.2070    1.0550 c3        1 MPA     -0.064700
     13 C13         2.8730   -1.9660    0.8960 c3        1 MPA     -0.084100
     14 C14         1.0110    3.5480    1.2130 c3        1 MPA     -0.056700
     15 C15         1.1220    4.3760   -0.0540 c3        1 MPA     -0.093600
     16 C16        -0.4390    3.4200    1.6280 c3        1 MPA     -0.093600
     17 O1          2.5930    2.2820    3.3060 os        1 MPA     -0.589200
     18 O2          0.5140    2.4880    4.7000 o         1 MPA     -0.863000
     19 P1          1.9770    2.3130    4.8680 p5        1 MPA      1.345600
     20 H11         2.4070    4.6090    4.7460 hc        1 MPA      0.065700
     21 H12A        3.8170    3.6770    5.3400 hc        1 MPA      0.065700
     22 H21         2.5500    3.0540    7.4040 hc        1 MPA      0.055200
     23 H22         1.1250    3.9970    6.8060 hc        1 MPA      0.055200
     24 H31         3.9360    5.1620    7.4150 hc        1 MPA      0.029700
     25 H32         2.5150    6.1010    6.8170 hc        1 MPA      0.029700
     26 H41         2.6320    4.4920    9.4630 hc        1 MPA      0.038700
     27 H42         1.2110    5.4310    8.8660 hc        1 MPA      0.038700
     28 H51         4.0200    6.5930    9.4640 hc        1 MPA      0.033700
     29 H52         2.5990    7.5320    8.8670 hc        1 MPA      0.033700
     30 H61         2.8500    7.7500   11.3420 hc        1 MPA      0.025700
     31 H62         1.3070    6.8930   10.9310 hc        1 MPA      0.025700
     32 H63         2.7310    5.9510   11.5300 hc        1 MPA      0.025700
     33 H7          0.9090    1.1860    2.8170 h1        1 MPA      0.053700
     34 H81         2.9070   -0.3520    3.0980 hc        1 MPA      0.052200
     35 H82         3.7540    0.4920    1.7450 hc        1 MPA      0.052200
     36 H9          1.0580   -1.0230    1.5740 hc        1 MPA      0.046700
     37 H101        1.2330   -0.6490   -0.8720 hc        1 MPA      0.021700
     38 H102        2.7760    0.2680   -0.6520 hc        1 MPA      0.021700
     39 H111        0.8470    1.8170   -0.8950 hc        1 MPA      0.031700
     40 H112       -0.0030    1.0190    0.4890 hc        1 MPA      0.031700
     41 H12         2.7520    2.4270    0.6490 hc        1 MPA      0.037700
     42 H131        2.3510   -2.6460    0.1800 hc        1 MPA      0.023033
     43 H132        3.8710   -1.7030    0.4690 hc        1 MPA      0.023033
     44 H133        3.0350   -2.5140    1.8560 hc        1 MPA      0.023033
     45 H14         1.5560    4.1050    2.0300 hc        1 MPA      0.069700
     46 H151        0.5170    3.9300   -0.8800 hc        1 MPA      0.028533
     47 H152        0.7440    5.4100    0.1320 hc        1 MPA      0.028533
     48 H153        2.1840    4.4430   -0.3900 hc        1 MPA      0.028533
     49 H161       -1.0320    2.8750    0.8550 hc        1 MPA      0.028533
     50 H162       -0.8860    4.4360    1.7540 hc        1 MPA      0.028533
     51 H163       -0.5160    2.8790    2.6060 hc        1 MPA      0.028533
     52 O3          2.5490    1.1400    5.5660 o         1 MPA     -0.863000
@<TRIPOS>BOND
     1    1    2 1   
     2    1   19 1   
     3    1   20 1   
     4    1   21 1   
     5    2    3 1   
     6    2   22 1   
     7    2   23 1   
     8    3    4 1   
     9    3   24 1   
    10    3   25 1   
    11    4    5 1   
    12    4   26 1   
    13    4   27 1   
    14    5    6 1   
    15    5   28 1   
    16    5   29 1   
    17    6   30 1   
    18    6   31 1   
    19    6   32 1   
    20    7    8 1   
    21    7   12 1   
    22    7   17 1   
    23    7   33 1   
    24    8    9 1   
    25    8   34 1   
    26    8   35 1   
    27    9   10 1   
    28    9   13 1   
    29    9   36 1   
    30   10   11 1   
    31   10   37 1   
    32   10   38 1   
    33   11   12 1   
    34   11   39 1   
    35   11   40 1   
    36   12   14 1   
    37   12   41 1   
    38   13   42 1   
    39   13   43 1   
    40   13   44 1   
    41   14   15 1   
    42   14   16 1   
    43   14   45 1   
    44   15   46 1   
    45   15   47 1   
    46   15   48 1   
    47   16   49 1   
    48   16   50 1   
    49   16   51 1   
    50   17   19 1   
    51   18   19 1   
    52   19   52 1   
@<TRIPOS>SUBSTRUCTURE
     1 MPA         1 TEMP              0 ****  ****    0 ROOT
