@<TRIPOS>MOLECULE
MPA
   52    49     1     0     0
SMALL
bcc


@<TRIPOS>ATOM
      1 C1          0.9640    1.6510   -1.7940 c3        1 MPA     -0.217000
      2 C2          1.1730    0.4420   -0.9190 c3        1 MPA     -0.155000
      3 C3          0.7760    0.7270    0.5140 c3        1 MPA     -0.163500
      4 C4          0.7320   -0.5410    1.3390 c3        1 MPA     -0.163500
      5 C5          0.4480   -0.2360    2.7950 c3        1 MPA     -0.155000
      6 C6          0.3420   -1.4970    3.6130 c3        1 MPA     -0.217000
      7 C7         -3.1600   -1.6590   -1.4970 c2        1 MPA     -0.499000
      8 C8         -3.5020   -2.9900   -2.0950 c3        1 MPA     -0.052000
      9 C9         -2.3680   -3.9740   -1.8230 c3        1 MPA     -0.093000
     10 C10        -2.1160   -4.1300   -0.3270 c3        1 MPA     -0.063000
     11 C11        -2.1370   -2.8370    0.3880 c2        1 MPA     -0.379000
     12 C12        -2.6990   -1.7260   -0.1410 c2        1 MPA      0.000000
     13 C13        -2.6650   -5.3160   -2.4550 c3        1 MPA     -0.203000
     14 C14        -3.7620    2.9040    1.7120 c2        1 MPA     -0.121000
     15 C15        -3.8290    4.0010    2.4640 c2        1 MPA     -0.272000
     16 C16        -2.5090    2.2440    1.3020 c3        1 MPA     -0.221000
     17 O1         -4.0930   -0.6230   -1.8020 os        1 MPA     -0.662000
     18 O2         -3.3350    0.1840   -4.1580 o         1 MPA     -1.061500
     19 P1         -3.1950    0.3220   -2.7180 p3        1 MPA      2.510000
     20 H11        -0.1230    1.9250   -1.8240 hc        1 MPA      0.072500
     21 H12A        1.3050    1.4400   -2.8360 hc        1 MPA      0.072500
     22 H21         1.5400    2.5250   -1.4050 hc        1 MPA      0.072500
     23 H22         2.2470    0.1220   -0.9540 hc        1 MPA      0.073000
     24 H31         0.5590   -0.4120   -1.3110 hc        1 MPA      0.073000
     25 H32        -0.2390    1.2120    0.5290 hc        1 MPA      0.084750
     26 H41         1.5000    1.4540    0.9670 hc        1 MPA      0.084750
     27 H42         1.7080   -1.0860    1.2520 hc        1 MPA      0.084750
     28 H51        -0.0700   -1.2210    0.9360 hc        1 MPA      0.084750
     29 H52        -0.5150    0.3390    2.8680 hc        1 MPA      0.073000
     30 H61         1.2590    0.4190    3.2100 hc        1 MPA      0.073000
     31 H62         1.2870   -2.0900    3.5500 hc        1 MPA      0.072500
     32 H63         0.1490   -1.2530    4.6850 hc        1 MPA      0.072500
     33 H7         -2.6720   -0.7040    3.2170 ha        1 MPA      0.000500
     34 H81        -2.5560   -1.0510    2.6460 ha        1 MPA      0.000500
     35 H82        -3.6630   -2.9170   -3.2030 hc        1 MPA      0.040000
     36 H9         -4.4570   -3.3920   -1.6590 hc        1 MPA      0.040000
     37 H101       -1.4320   -3.5560   -2.2900 hc        1 MPA      0.080000
     38 H102       -2.8970   -4.8120    0.1110 hc        1 MPA      0.038000
     39 H111       -1.1260   -4.6430   -0.1780 hc        1 MPA      0.038000
     40 H112       -0.4980   -2.1330    3.2370 hc        1 MPA      0.072500
     41 H12        -1.6940   -2.8320    1.3910 ha        1 MPA      0.084000
     42 H131       -3.6130   -5.7430   -2.0460 hc        1 MPA      0.054667
     43 H132       -1.8370   -6.0370   -2.2500 hc        1 MPA      0.054667
     44 H133       -2.7770   -5.2100   -3.5610 hc        1 MPA      0.054667
     45 H14        -2.7410   -0.8020    0.4630 ha        1 MPA      0.085000
     46 H151       -4.6810    2.4180    1.3390 ha        1 MPA      0.118000
     47 H152       -2.9370    4.5120    2.8480 ha        1 MPA      0.097000
     48 H153       -4.7830    4.4650    2.7430 ha        1 MPA      0.097000
     49 H161       -1.6090    2.7740    1.7000 hc        1 MPA      0.100333
     50 H162       -2.4370    2.2070    0.1800 hc        1 MPA      0.100333
     51 H163       -2.4910    1.1880    1.6770 hc        1 MPA      0.100333
     52 O3         -2.5160    1.4190   -2.0430 o         1 MPA     -1.061500
@<TRIPOS>BOND
     1    1    2 1   
     2    1   20 1   
     3    1   21 1   
     4    1   22 1   
     5    2    3 1   
     6    2   23 1   
     7    2   24 1   
     8    3    4 1   
     9    3   25 1   
    10    3   26 1   
    11    4    5 1   
    12    4   27 1   
    13    4   28 1   
    14    5    6 1   
    15    5   29 1   
    16    5   30 1   
    17    6   31 1   
    18    6   32 1   
    19    6   40 1   
    20    7    8 1   
    21    7   12 1   
    22    7   17 1   
    23    8    9 1   
    24    8   35 1   
    25    8   36 1   
    26    9   10 1   
    27    9   13 1   
    28    9   37 1   
    29   10   11 1   
    30   10   38 1   
    31   10   39 1   
    32   11   12 1   
    33   11   41 1   
    34   12   45 1   
    35   13   42 1   
    36   13   43 1   
    37   13   44 1   
    38   14   15 1   
    39   14   16 1   
    40   14   46 1   
    41   15   47 1   
    42   15   48 1   
    43   16   49 1   
    44   16   50 1   
    45   16   51 1   
    46   17   19 1   
    47   18   19 1   
    48   19   52 1   
    49   33   34 1   
@<TRIPOS>SUBSTRUCTURE
     1 MPA         1 TEMP              0 ****  ****    0 ROOT
