@<TRIPOS>MOLECULE
MPA
   52    49     1     0     0
SMALL
bcc


@<TRIPOS>ATOM
      1 C1          0.6540    0.9140   -1.8460 c3        1 MPA     -0.212500
      2 C2          0.1760    0.3030   -0.5560 c3        1 MPA     -0.158000
      3 C3          1.1460    0.5320    0.5830 c3        1 MPA     -0.161500
      4 C4          0.5930   -0.0210    1.8790 c3        1 MPA     -0.161500
      5 C5          1.5170    0.2600    3.0450 c3        1 MPA     -0.158000
      6 C6          0.9630   -0.2990    4.3300 c3        1 MPA     -0.212500
      7 C7         -3.6320   -1.4490   -1.3190 c2        1 MPA      0.022000
      8 C8         -3.3950   -2.6170   -2.2250 c3        1 MPA     -0.119000
      9 C9         -2.2310   -3.4650   -1.7300 c3        1 MPA     -0.105000
     10 C10        -2.3880   -3.7610   -0.2460 c3        1 MPA     -0.154000
     11 C11        -2.4020   -2.4810    0.5650 c3        1 MPA     -0.124000
     12 C12        -3.2280   -1.4090   -0.0350 c2        1 MPA     -0.185000
     13 C13        -2.1350   -4.7460   -2.5290 c3        1 MPA     -0.205000
     14 C14        -2.9160    1.9750    1.1920 c2        1 MPA      0.027000
     15 C15        -3.6790    2.7410    0.3460 c2        1 MPA     -0.643000
     16 C16        -3.3460    1.0350    2.0910 c2        1 MPA     -0.643000
     17 O1         -4.4830   -0.4950   -1.8410 os        1 MPA     -0.676000
     18 O2         -2.5850    0.8810   -2.8670 o         1 MPA     -1.007000
     19 P1         -3.9850    0.8770   -2.4980 p3        1 MPA      2.510000
     20 H11        -0.1560    0.8420   -2.6160 hc        1 MPA      0.070667
     21 H12A        0.9040    1.9930   -1.7020 hc        1 MPA      0.070667
     22 H21         1.5660    0.3910   -2.2230 hc        1 MPA      0.070667
     23 H22        -0.8240    0.7450   -0.2860 hc        1 MPA      0.079750
     24 H31         0.0180   -0.7990   -0.6970 hc        1 MPA      0.079750
     25 H32         1.3340    1.6320    0.6970 hc        1 MPA      0.079750
     26 H41         2.1310    0.0500    0.3500 hc        1 MPA      0.079750
     27 H42         0.4390   -1.1280    1.7810 hc        1 MPA      0.079750
     28 H51        -0.4180    0.4340    2.0790 hc        1 MPA      0.079750
     29 H52         1.6600    1.3680    3.1470 hc        1 MPA      0.079750
     30 H61         2.5270   -0.1860    2.8420 hc        1 MPA      0.079750
     31 H62         0.8610   -1.4090    4.2650 hc        1 MPA      0.070667
     32 H63         1.6350   -0.0530    5.1870 hc        1 MPA      0.070667
     33 H7         -1.4790   -1.9130    3.5990 ha        1 MPA      0.000500
     34 H81        -1.5070   -1.4020    3.1540 ha        1 MPA      0.000500
     35 H82        -4.3330   -3.2340   -2.2600 hc        1 MPA      0.082500
     36 H9         -3.1800   -2.2820   -3.2730 hc        1 MPA      0.082500
     37 H101       -1.2810   -2.8750   -1.8720 hc        1 MPA      0.100000
     38 H102       -1.5460   -4.4170    0.0970 hc        1 MPA      0.071000
     39 H111       -3.3430   -4.3250   -0.0810 hc        1 MPA      0.071000
     40 H112       -1.3530   -2.0870    0.6790 hc        1 MPA      0.095000
     41 H12        -2.7820   -2.6970    1.6010 hc        1 MPA      0.095000
     42 H131       -3.0520   -5.3670   -2.3910 hc        1 MPA      0.066333
     43 H132       -2.0220   -4.5170   -3.6160 hc        1 MPA      0.066333
     44 H133       -1.2510   -5.3430   -2.1980 hc        1 MPA      0.066333
     45 H14        -3.4440   -0.5410    0.6380 ha        1 MPA      0.221000
     46 H151       -1.8140    2.1060    1.1100 ha        1 MPA      0.041000
     47 H152       -4.7680    2.7570    0.4160 ha        1 MPA      0.063000
     48 H153       -3.2290    3.5210   -0.2690 ha        1 MPA      0.063000
     49 H161       -4.4040    0.8730    2.2970 ha        1 MPA      0.063000
     50 H162       -0.0500    0.1280    4.5350 hc        1 MPA      0.070667
     51 H163       -2.6450    0.4840    2.7220 ha        1 MPA      0.063000
     52 O3         -5.1180    1.6320   -2.9830 o         1 MPA     -1.007000
@<TRIPOS>BOND
     1    1    2 1   
     2    1   20 1   
     3    1   21 1   
     4    1   22 1   
     5    2    3 1   
     6    2   23 1   
     7    2   24 1   
     8    3    4 1   
     9    3   25 1   
    10    3   26 1   
    11    4    5 1   
    12    4   27 1   
    13    4   28 1   
    14    5    6 1   
    15    5   29 1   
    16    5   30 1   
    17    6   31 1   
    18    6   32 1   
    19    6   50 1   
    20    7    8 1   
    21    7   12 1   
    22    7   17 1   
    23    8    9 1   
    24    8   35 1   
    25    8   36 1   
    26    9   10 1   
    27    9   13 1   
    28    9   37 1   
    29   10   11 1   
    30   10   38 1   
    31   10   39 1   
    32   11   12 1   
    33   11   40 1   
    34   11   41 1   
    35   12   45 1   
    36   13   42 1   
    37   13   43 1   
    38   13   44 1   
    39   14   15 1   
    40   14   16 1   
    41   14   46 1   
    42   15   47 1   
    43   15   48 1   
    44   16   49 1   
    45   16   51 1   
    46   17   19 1   
    47   18   19 1   
    48   19   52 1   
    49   33   34 1   
@<TRIPOS>SUBSTRUCTURE
     1 MPA         1 TEMP              0 ****  ****    0 ROOT
