@<TRIPOS>MOLECULE
MPB
   19    16     1     0     0
SMALL
bcc


@<TRIPOS>ATOM
      1 C           1.0810   -0.2810    1.2570 c1        1 MPB      0.350000
      2 O1          2.2960   -0.3190    1.2370 o         1 MPB     -0.358000
      3 O2          0.3990   -0.2680    2.4850 o         1 MPB     -0.281000
      4 CM          1.0220    0.5190    3.4750 c3        1 MPB     -0.061000
      5 C1          0.3050   -0.2170   -0.0400 c2        1 MPB     -0.153000
      6 C2         -0.7920   -1.0420   -0.2320 c1        1 MPB     -0.028000
      7 C3         -1.5380   -0.9440   -1.3950 c1        1 MPB     -0.235000
      8 C4         -1.1870   -0.0210   -2.3680 c1        1 MPB      0.114000
      9 C5         -0.0900    0.8040   -2.1760 c1        1 MPB     -0.175000
     10 C6          0.6570    0.7060   -1.0130 c2        1 MPB     -0.039000
     11 O4         -1.9600    0.0970   -3.5380 oh        1 MPB     -0.244000
     12 HM1         0.3940    1.2050    3.7910 h1        1 MPB      0.090667
     13 HM2         1.8160    0.9530    3.0970 h1        1 MPB      0.090667
     14 HM3         1.2880   -0.0520    4.2280 h1        1 MPB      0.090667
     15 H2         -1.0390   -1.6920    0.4530 ha        1 MPB      0.157000
     16 H3         -2.3110   -1.5240   -1.5300 ha        1 MPB      0.140000
     17 H5          0.1580    1.4540   -2.8610 ha        1 MPB      0.158000
     18 H6          1.4290    1.2870   -0.8780 ha        1 MPB      0.161000
     19 HO4        -1.9290   -0.6670   -3.9920 ho        1 MPB      0.224000
@<TRIPOS>BOND
     1    1    2 1   
     2    1    5 1   
     3    3    4 1   
     4    4   12 1   
     5    4   13 1   
     6    4   14 1   
     7    5    6 1   
     8    5   10 1   
     9    6   15 1   
    10    7    8 1   
    11    7   16 1   
    12    8   11 1   
    13    9   10 1   
    14    9   17 1   
    15   10   18 1   
    16   11   19 1   
@<TRIPOS>SUBSTRUCTURE
     1 MPB         1 TEMP              0 ****  ****    0 ROOT
