@<TRIPOS>MOLECULE
MPB
   19    19     1     0     0
SMALL
bcc


@<TRIPOS>ATOM
      1 C          -0.3580    0.0210    1.6960 c         1 MPB      0.649700
      2 O1         -1.4370    0.0400    2.2960 o         1 MPB     -0.548000
      3 O2          0.7870   -0.0340    2.4500 os        1 MPB     -0.440900
      4 CM          0.6130   -0.0640    3.8670 c3        1 MPB      0.128700
      5 C1         -0.1290    0.0490    0.2470 ca        1 MPB     -0.173600
      6 C2         -1.2420    0.1050   -0.6030 ca        1 MPB     -0.033500
      7 C3         -1.0670    0.1340   -1.9820 ca        1 MPB     -0.205000
      8 C4          0.2340    0.1050   -2.5100 ca        1 MPB      0.159100
      9 C5          1.3570    0.0490   -1.6650 ca        1 MPB     -0.205000
     10 C6          1.1660    0.0210   -0.2890 ca        1 MPB     -0.033500
     11 O4          0.4860    0.1310   -3.8580 oh        1 MPB     -0.491100
     12 HM1         1.6590   -0.1060    4.2590 h1        1 MPB      0.050700
     13 HM2         0.0860    0.8600    4.2050 h1        1 MPB      0.050700
     14 HM3         0.0280   -0.9680    4.1600 h1        1 MPB      0.050700
     15 H2         -2.2550    0.1270   -0.1670 ha        1 MPB      0.158500
     16 H3         -1.9370    0.1780   -2.6520 ha        1 MPB      0.149500
     17 H5          2.3650    0.0280   -2.1020 ha        1 MPB      0.149500
     18 H6          2.0340   -0.0230    0.3890 ha        1 MPB      0.158500
     19 HO4        -0.3630    0.1690   -4.3240 ho        1 MPB      0.425000
@<TRIPOS>BOND
     1    1    2 2   
     2    1    3 1   
     3    1    5 1   
     4    3    4 1   
     5    4   12 1   
     6    4   13 1   
     7    4   14 1   
     8    5    6 ar  
     9    5   10 ar  
    10    6    7 ar  
    11    6   15 1   
    12    7    8 ar  
    13    7   16 1   
    14    8    9 ar  
    15    8   11 1   
    16    9   10 ar  
    17    9   17 1   
    18   10   18 1   
    19   11   19 1   
@<TRIPOS>SUBSTRUCTURE
     1 MPB         1 TEMP              0 ****  ****    0 ROOT
