@<TRIPOS>MOLECULE
MPB
   19    19     1     0     0
SMALL
bcc


@<TRIPOS>ATOM
      1 C           0.0580    0.0130   -0.0170 c         1 MPB      0.649700
      2 O1          1.2880    0.0170    0.0860 o         1 MPB     -0.548000
      3 O2         -0.6770   -0.0290    1.1410 os        1 MPB     -0.440900
      4 CM          0.0640   -0.0640    2.3610 c3        1 MPB      0.128700
      5 C1         -0.7460    0.0480   -1.2430 ca        1 MPB     -0.173600
      6 C2         -0.0810    0.0910   -2.4770 ca        1 MPB     -0.033500
      7 C3         -0.8070    0.1260   -3.6620 ca        1 MPB     -0.205000
      8 C4         -2.2100    0.1160   -3.6080 ca        1 MPB      0.159100
      9 C5         -2.8870    0.0720   -2.3750 ca        1 MPB     -0.205000
     10 C6         -2.1480    0.0380   -1.2000 ca        1 MPB     -0.033500
     11 O4         -2.9940    0.1480   -4.7340 oh        1 MPB     -0.491100
     12 HM1        -0.7280   -0.0940    3.1490 h1        1 MPB      0.050700
     13 HM2         0.6960    0.8520    2.4500 h1        1 MPB      0.050700
     14 HM3         0.7070   -0.9770    2.3910 h1        1 MPB      0.050700
     15 H2          1.0220    0.0990   -2.4960 ha        1 MPB      0.158500
     16 H3         -0.2890    0.1600   -4.6300 ha        1 MPB      0.149500
     17 H5         -3.9860    0.0650   -2.3600 ha        1 MPB      0.149500
     18 H6         -2.6610    0.0040   -0.2240 ha        1 MPB      0.158500
     19 HO4        -2.4110    0.1760   -5.5070 ho        1 MPB      0.425000
@<TRIPOS>BOND
     1    1    2 2   
     2    1    3 1   
     3    1    5 1   
     4    3    4 1   
     5    4   12 1   
     6    4   13 1   
     7    4   14 1   
     8    5    6 ar  
     9    5   10 ar  
    10    6    7 ar  
    11    6   15 1   
    12    7    8 ar  
    13    7   16 1   
    14    8    9 ar  
    15    8   11 1   
    16    9   10 ar  
    17    9   17 1   
    18   10   18 1   
    19   11   19 1   
@<TRIPOS>SUBSTRUCTURE
     1 MPB         1 TEMP              0 ****  ****    0 ROOT
