@<TRIPOS>MOLECULE
MPC
   52    52     1     0     0
SMALL
bcc


@<TRIPOS>ATOM
      1 C1         -3.0700   -5.3960    3.0400 c3        1 MPC     -0.329600
      2 C2         -1.7100   -4.8340    3.3270 c3        1 MPC     -0.069400
      3 C3         -0.7980   -5.8190    4.0200 c3        1 MPC     -0.069400
      4 C4          0.5660   -5.2180    4.2870 c3        1 MPC     -0.079400
      5 C5          1.4800   -6.2010    4.9870 c3        1 MPC     -0.080400
      6 C6          2.8380   -5.6050    5.2530 c3        1 MPC     -0.090100
      7 C7         -3.9620   -3.4700   -0.1740 c3        1 MPC      0.212100
      8 C8         -3.4140   -2.0570   -0.4460 c3        1 MPC     -0.103400
      9 C9         -4.1780   -1.3730   -1.5670 c3        1 MPC     -0.065700
     10 C10        -4.1160   -2.2090   -2.8360 c3        1 MPC     -0.069400
     11 C11        -4.6270   -3.6110   -2.5790 c3        1 MPC     -0.073400
     12 C12        -3.8380   -4.2980   -1.4740 c3        1 MPC     -0.064700
     13 C13        -3.6320    0.0160   -1.8150 c3        1 MPC     -0.084100
     14 C14        -4.2480   -5.7570   -1.2920 c3        1 MPC     -0.056700
     15 C15        -5.7270   -5.9430   -1.0330 c3        1 MPC     -0.093600
     16 C16        -3.8140   -6.5960   -2.4790 c3        1 MPC     -0.093600
     17 O1         -3.2320   -4.0660    0.8510 os        1 MPC     -0.589200
     18 O2         -3.7740   -2.8630    3.0120 o         1 MPC     -0.863000
     19 P1         -3.9980   -4.1650    2.3430 p5        1 MPC      1.345600
     20 H11        -2.9960   -6.2720    2.3520 hc        1 MPC      0.062700
     21 H12A       -3.5510   -5.7650    3.9770 hc        1 MPC      0.062700
     22 H21        -1.8380   -3.9080    3.9530 hc        1 MPC      0.061700
     23 H22        -1.2570   -4.5050    2.3530 hc        1 MPC      0.061700
     24 H31        -1.2620   -6.1420    4.9890 hc        1 MPC      0.026700
     25 H32        -0.6850   -6.7380    3.3870 hc        1 MPC      0.026700
     26 H41         0.4510   -4.2960    4.9170 hc        1 MPC      0.039200
     27 H42         1.0300   -4.8970    3.3170 hc        1 MPC      0.039200
     28 H51         1.0130   -6.5200    5.9550 hc        1 MPC      0.032700
     29 H52         1.5900   -7.1220    4.3550 hc        1 MPC      0.032700
     30 H61         3.4960   -6.3450    5.7690 hc        1 MPC      0.025367
     31 H62         3.3300   -5.3030    4.2960 hc        1 MPC      0.025367
     32 H63         2.7500   -4.6990    5.9000 hc        1 MPC      0.025367
     33 H7         -5.0510   -3.4070    0.1210 h1        1 MPC      0.055700
     34 H81        -2.3290   -2.1340   -0.7110 hc        1 MPC      0.051700
     35 H82        -3.4890   -1.4420    0.4880 hc        1 MPC      0.051700
     36 H9         -5.2570   -1.2840   -1.2550 hc        1 MPC      0.046700
     37 H101       -3.0570   -2.2520   -3.2020 hc        1 MPC      0.021700
     38 H102       -4.7300   -1.7230   -3.6380 hc        1 MPC      0.021700
     39 H111       -5.7100   -3.5630   -2.2900 hc        1 MPC      0.031700
     40 H112       -4.5540   -4.2100   -3.5240 hc        1 MPC      0.031700
     41 H12        -2.7470   -4.2960   -1.7600 hc        1 MPC      0.037700
     42 H131       -2.5590   -0.0330   -2.1220 hc        1 MPC      0.023033
     43 H132       -4.2080    0.5240   -2.6260 hc        1 MPC      0.023033
     44 H133       -3.7050    0.6300   -0.8860 hc        1 MPC      0.023033
     45 H14        -3.6890   -6.1350   -0.3870 hc        1 MPC      0.069700
     46 H151       -6.3350   -5.5870   -1.8990 hc        1 MPC      0.028700
     47 H152       -5.9500   -7.0270   -0.8770 hc        1 MPC      0.028700
     48 H153       -6.0330   -5.3860   -0.1090 hc        1 MPC      0.028700
     49 H161       -4.4050   -6.3390   -3.3900 hc        1 MPC      0.028700
     50 H162       -3.9730   -7.6800   -2.2580 hc        1 MPC      0.028700
     51 H163       -2.7320   -6.4360   -2.7010 hc        1 MPC      0.028700
     52 O3         -5.3620   -4.6590    2.0370 o         1 MPC     -0.863000
@<TRIPOS>BOND
     1    1    2 1   
     2    1   19 1   
     3    1   20 1   
     4    1   21 1   
     5    2    3 1   
     6    2   22 1   
     7    2   23 1   
     8    3    4 1   
     9    3   24 1   
    10    3   25 1   
    11    4    5 1   
    12    4   26 1   
    13    4   27 1   
    14    5    6 1   
    15    5   28 1   
    16    5   29 1   
    17    6   30 1   
    18    6   31 1   
    19    6   32 1   
    20    7    8 1   
    21    7   12 1   
    22    7   17 1   
    23    7   33 1   
    24    8    9 1   
    25    8   34 1   
    26    8   35 1   
    27    9   10 1   
    28    9   13 1   
    29    9   36 1   
    30   10   11 1   
    31   10   37 1   
    32   10   38 1   
    33   11   12 1   
    34   11   39 1   
    35   11   40 1   
    36   12   14 1   
    37   12   41 1   
    38   13   42 1   
    39   13   43 1   
    40   13   44 1   
    41   14   15 1   
    42   14   16 1   
    43   14   45 1   
    44   15   46 1   
    45   15   47 1   
    46   15   48 1   
    47   16   49 1   
    48   16   50 1   
    49   16   51 1   
    50   17   19 1   
    51   18   19 1   
    52   19   52 1   
@<TRIPOS>SUBSTRUCTURE
     1 MPC         1 TEMP              0 ****  ****    0 ROOT
