@<TRIPOS>MOLECULE
MPD
   22    21     1     0     0
SMALL
bcc


@<TRIPOS>ATOM
      1 C1         -1.4230   -0.7760   -1.4800 c3        1 MPD     -0.102600
      2 C2         -1.1380   -0.1370   -0.1240 c3        1 MPD      0.154800
      3 O2         -1.0580    1.2650   -0.3720 oh        1 MPD     -0.601800
      4 CM         -2.2920   -0.4100    0.8370 c3        1 MPD     -0.102600
      5 C3          0.1650   -0.6890    0.4710 c3        1 MPD     -0.143400
      6 C4          1.3990    0.0780    0.0030 c3        1 MPD      0.132100
      7 O4          1.5720    1.2590    0.7760 oh        1 MPD     -0.602800
      8 C5          2.6380   -0.7950    0.0580 c3        1 MPD     -0.129100
      9 H11        -0.5430   -0.6490   -2.1540 hc        1 MPD      0.042200
     10 H12        -1.6350   -1.8630   -1.3480 hc        1 MPD      0.042200
     11 H13        -2.3050   -0.2820   -1.9510 hc        1 MPD      0.042200
     12 HO2        -0.6000    1.6660    0.3780 ho        1 MPD      0.416000
     13 HM1        -2.3640   -1.5020    1.0490 hc        1 MPD      0.042200
     14 HM2        -2.1350    0.1380    1.7960 hc        1 MPD      0.042200
     15 HM3        -3.2500   -0.0610    0.3830 hc        1 MPD      0.042200
     16 H31         0.1130   -0.6390    1.5910 hc        1 MPD      0.051200
     17 H32         0.2620   -1.7670    0.1850 hc        1 MPD      0.051200
     18 H4          1.2360    0.4710   -1.0430 h1        1 MPD      0.093700
     19 HO4         1.8280    0.9880    1.6650 ho        1 MPD      0.395000
     20 H51         2.5560   -1.6260   -0.6820 hc        1 MPD      0.044033
     21 H52         3.5420   -0.1850   -0.1820 hc        1 MPD      0.044033
     22 H53         2.7660   -1.2340    1.0770 hc        1 MPD      0.044033
@<TRIPOS>BOND
     1    1    2 1   
     2    1    9 1   
     3    1   10 1   
     4    1   11 1   
     5    2    3 1   
     6    2    4 1   
     7    2    5 1   
     8    3   12 1   
     9    4   13 1   
    10    4   14 1   
    11    4   15 1   
    12    5    6 1   
    13    5   16 1   
    14    5   17 1   
    15    6    7 1   
    16    6    8 1   
    17    6   18 1   
    18    7   19 1   
    19    8   20 1   
    20    8   21 1   
    21    8   22 1   
@<TRIPOS>SUBSTRUCTURE
     1 MPD         1 TEMP              0 ****  ****    0 ROOT
