@<TRIPOS>MOLECULE
MPD
   22    21     1     0     0
SMALL
bcc


@<TRIPOS>ATOM
      1 C1          0.0730    0.2100   -0.5620 c3        1 MPD     -0.124600
      2 C2          1.4880    0.0020   -0.0350 c3        1 MPD      0.148800
      3 O2          1.4570   -0.1390    1.3870 oh        1 MPD     -0.595800
      4 CM          2.0930   -1.2510   -0.6640 c3        1 MPD     -0.124600
      5 C3          2.3940    1.2010   -0.3310 c3        1 MPD     -0.066400
      6 C4          1.9380    2.4910    0.3460 c3        1 MPD      0.142100
      7 O4          3.1310    3.1350    0.7930 oh        1 MPD     -0.602800
      8 C5          1.1780    3.4040   -0.6000 c3        1 MPD     -0.132100
      9 H11         0.1020    0.4690   -1.6460 hc        1 MPD      0.043200
     10 H12        -0.5300   -0.7190   -0.4280 hc        1 MPD      0.043200
     11 H13        -0.4240    1.0380   -0.0010 hc        1 MPD      0.043200
     12 HO2         0.9280   -0.9220    1.5760 ho        1 MPD      0.398000
     13 HM1         1.4450   -2.1370   -0.4620 hc        1 MPD      0.043200
     14 HM2         3.1040   -1.4430   -0.2330 hc        1 MPD      0.043200
     15 HM3         2.1860   -1.1170   -1.7670 hc        1 MPD      0.043200
     16 H31         2.4390    1.3440   -1.4400 hc        1 MPD      0.063700
     17 H32         3.4290    0.9600    0.0330 hc        1 MPD      0.063700
     18 H4          1.2990    2.2440    1.2420 h1        1 MPD      0.053700
     19 HO4         2.8550    3.9340    1.2560 ho        1 MPD      0.396000
     20 H51         1.8480    3.7540   -1.4210 hc        1 MPD      0.040700
     21 H52         0.7970    4.2980   -0.0500 hc        1 MPD      0.040700
     22 H53         0.3120    2.8610   -1.0470 hc        1 MPD      0.040700
@<TRIPOS>BOND
     1    1    2 1   
     2    1    9 1   
     3    1   10 1   
     4    1   11 1   
     5    2    3 1   
     6    2    4 1   
     7    2    5 1   
     8    3   12 1   
     9    4   13 1   
    10    4   14 1   
    11    4   15 1   
    12    5    6 1   
    13    5   16 1   
    14    5   17 1   
    15    6    7 1   
    16    6    8 1   
    17    6   18 1   
    18    7   19 1   
    19    8   20 1   
    20    8   21 1   
    21    8   22 1   
@<TRIPOS>SUBSTRUCTURE
     1 MPD         1 TEMP              0 ****  ****    0 ROOT
