@<TRIPOS>MOLECULE
MPD
   22    21     1     0     0
SMALL
bcc


@<TRIPOS>ATOM
      1 C1          0.0750    0.2170   -0.5830 c3        1 MPD     -0.124600
      2 C2          1.4870   -0.0000   -0.0520 c3        1 MPD      0.148800
      3 O2          1.4480   -0.1630    1.3670 oh        1 MPD     -0.595800
      4 CM          2.0950   -1.2430   -0.6970 c3        1 MPD     -0.124600
      5 C3          2.3950    1.2030   -0.3240 c3        1 MPD     -0.066400
      6 C4          1.9360    2.4820    0.3710 c3        1 MPD      0.142100
      7 O4          3.1270    3.1190    0.8340 oh        1 MPD     -0.602800
      8 C5          1.1810    3.4110   -0.5650 c3        1 MPD     -0.132100
      9 H11         0.1100    0.4920   -1.6630 hc        1 MPD      0.043200
     10 H12        -0.5290   -0.7140   -0.4680 hc        1 MPD      0.043200
     11 H13        -0.4250    1.0360   -0.0120 hc        1 MPD      0.043200
     12 HO2         0.9170   -0.9490    1.5410 ho        1 MPD      0.398000
     13 HM1         1.4450   -2.1320   -0.5120 hc        1 MPD      0.043200
     14 HM2         3.1030   -1.4430   -0.2630 hc        1 MPD      0.043200
     15 HM3         2.1940   -1.0930   -1.7980 hc        1 MPD      0.043200
     16 H31         2.4460    1.3630   -1.4310 hc        1 MPD      0.063700
     17 H32         3.4280    0.9550    0.0420 hc        1 MPD      0.063700
     18 H4          1.2920    2.2210    1.2590 h1        1 MPD      0.053700
     19 HO4         2.8490    3.9100    1.3080 ho        1 MPD      0.396000
     20 H51         1.8560    3.7720   -1.3770 hc        1 MPD      0.040700
     21 H52         0.7980    4.2960   -0.0040 hc        1 MPD      0.040700
     22 H53         0.3180    2.8750   -1.0250 hc        1 MPD      0.040700
@<TRIPOS>BOND
     1    1    2 1   
     2    1    9 1   
     3    1   10 1   
     4    1   11 1   
     5    2    3 1   
     6    2    4 1   
     7    2    5 1   
     8    3   12 1   
     9    4   13 1   
    10    4   14 1   
    11    4   15 1   
    12    5    6 1   
    13    5   16 1   
    14    5   17 1   
    15    6    7 1   
    16    6    8 1   
    17    6   18 1   
    18    7   19 1   
    19    8   20 1   
    20    8   21 1   
    21    8   22 1   
@<TRIPOS>SUBSTRUCTURE
     1 MPD         1 TEMP              0 ****  ****    0 ROOT
