@<TRIPOS>MOLECULE
MPE
   32    33     1     0     0
SMALL
bcc


@<TRIPOS>ATOM
      1 O9          2.1250    0.1980   -1.1900 o         1 MPE     -0.774800
      2 C7          2.9980    0.3610   -0.3190 c         1 MPE      0.920600
      3 O8          4.1950    0.7350   -0.4680 o         1 MPE     -0.774800
      4 C6          2.5500    0.0990    1.1910 c3        1 MPE      0.041700
      5 N5          3.7280    0.4120    2.1020 n4        1 MPE     -0.542500
      6 O4          3.6770    1.6550    2.6560 os        1 MPE     -0.248100
      7 C3          3.9970    2.7880    1.7960 c3        1 MPE      0.111400
      8 C2          2.7510    3.3410    1.1500 c3        1 MPE     -0.046300
      9 S1          3.0670    4.9590    0.5320 sh        1 MPE     -0.350900
     10 C10         2.1120   -1.2850    1.4100 cc        1 MPE     -0.227400
     11 C11         1.9200   -2.2410    0.4030 cd        1 MPE     -0.002100
     12 N12         1.4690   -3.4300    0.9590 na        1 MPE     -0.184400
     13 C13         1.3430   -3.2580    2.3450 ca        1 MPE     -0.053200
     14 C15         0.9290   -4.1500    3.3440 ca        1 MPE     -0.127000
     15 C14         1.7390   -1.9040    2.6660 ca        1 MPE     -0.090800
     16 C18         1.6860   -1.4780    3.9940 ca        1 MPE     -0.122000
     17 C17         1.2720   -2.3700    4.9720 ca        1 MPE     -0.137000
     18 C16         0.9030   -3.6880    4.6510 ca        1 MPE     -0.120000
     19 H6          1.7300    0.8260    1.4520 hx        1 MPE      0.104700
     20 H5          3.7510   -0.2420    2.9020 hn        1 MPE      0.465800
     21 H31         4.4280    3.5080    2.5480 h1        1 MPE      0.104200
     22 H32         4.7640    2.5050    1.0240 h1        1 MPE      0.104200
     23 H21         2.3970    2.6560    0.3360 h1        1 MPE      0.102200
     24 H22         1.9300    3.4430    1.9030 h1        1 MPE      0.102200
     25 H1          3.5380    4.6530   -0.6690 hs        1 MPE      0.222800
     26 H11         2.0590   -2.1110   -0.6800 h4        1 MPE      0.216000
     27 H12         1.1980   -4.2360    0.4610 hn        1 MPE      0.307700
     28 H15         0.6320   -5.1790    3.0980 ha        1 MPE      0.138000
     29 H18         1.9440   -0.4420    4.2610 ha        1 MPE      0.125000
     30 H17         1.2220   -2.0440    6.0220 ha        1 MPE      0.133000
     31 H16         0.5810   -4.3640    5.4570 ha        1 MPE      0.135000
     32 H52         4.5910    0.3170    1.5120 hn        1 MPE      0.465800
@<TRIPOS>BOND
     1    1    2 1   
     2    2    3 1   
     3    2    4 1   
     4    4    5 1   
     5    4   10 1   
     6    4   19 1   
     7    5    6 1   
     8    5   20 1   
     9    5   32 1   
    10    6    7 1   
    11    7    8 1   
    12    7   21 1   
    13    7   22 1   
    14    8    9 1   
    15    8   23 1   
    16    8   24 1   
    17    9   25 1   
    18   10   11 2   
    19   10   15 1   
    20   11   12 1   
    21   11   26 1   
    22   12   13 1   
    23   12   27 1   
    24   13   14 ar  
    25   13   15 ar  
    26   14   18 ar  
    27   14   28 1   
    28   15   16 ar  
    29   16   17 ar  
    30   16   29 1   
    31   17   18 ar  
    32   17   30 1   
    33   18   31 1   
@<TRIPOS>SUBSTRUCTURE
     1 MPE         1 TEMP              0 ****  ****    0 ROOT
