@<TRIPOS>MOLECULE
MPE
   32    33     1     0     0
SMALL
bcc


@<TRIPOS>ATOM
      1 O9          2.2540    0.2030   -1.1980 o         1 MPE     -0.774800
      2 C7          3.0900    0.3650   -0.2920 c         1 MPE      0.920600
      3 O8          4.2920    0.7390   -0.3910 o         1 MPE     -0.774800
      4 C6          2.5800    0.1000    1.1970 c3        1 MPE      0.041700
      5 N5          3.7200    0.4100    2.1570 ny        1 MPE     -0.542500
      6 O4          3.6480    1.6520    2.7120 os        1 MPE     -0.248100
      7 C3          4.0030    2.7870    1.8690 c3        1 MPE      0.111400
      8 C2          2.7850    3.3420    1.1720 c3        1 MPE     -0.046300
      9 S1          3.1270    4.9620    0.5720 sh        1 MPE     -0.350900
     10 C10         2.1330   -1.2840    1.3950 cc        1 MPE     -0.227400
     11 C11         1.9810   -2.2370    0.3800 cd        1 MPE     -0.002100
     12 N12         1.5070   -3.4270    0.9140 na        1 MPE     -0.184400
     13 C13         1.3250   -3.2580    2.2940 ca        1 MPE     -0.053200
     14 C15         0.8700   -4.1520    3.2740 ca        1 MPE     -0.127000
     15 C14         1.7090   -1.9050    2.6340 ca        1 MPE     -0.090800
     16 C18         1.6020   -1.4810    3.9600 ca        1 MPE     -0.122000
     17 C17         1.1470   -2.3750    4.9180 ca        1 MPE     -0.137000
     18 C16         0.7910   -3.6920    4.5800 ca        1 MPE     -0.120000
     19 H6          1.7500    0.8270    1.4260 hx        1 MPE      0.104700
     20 H5          4.6060    0.3170    1.6020 hn        1 MPE      0.465800
     21 H31         4.8010    2.5060    1.1290 h1        1 MPE      0.104200
     22 H32         4.4020    3.5050    2.6390 h1        1 MPE      0.104200
     23 H21         2.4650    2.6600    0.3430 h1        1 MPE      0.102200
     24 H22         1.9340    3.4430    1.8910 h1        1 MPE      0.102200
     25 H1          3.6480    4.6580   -0.6090 hs        1 MPE      0.222800
     26 H11         2.1640   -2.1050   -0.6960 h4        1 MPE      0.216000
     27 H12         1.2560   -4.2320    0.4040 hn        1 MPE      0.307700
     28 H15         0.5820   -5.1800    3.0140 ha        1 MPE      0.138000
     29 H18         1.8490   -0.4470    4.2390 ha        1 MPE      0.125000
     30 H17         1.0550   -2.0510    5.9660 ha        1 MPE      0.133000
     31 H16         0.4350   -4.3700    5.3710 ha        1 MPE      0.135000
     32 H52         3.7100   -0.2460    2.9560 hn        1 MPE      0.465800
@<TRIPOS>BOND
     1    1    2 1   
     2    2    3 1   
     3    2    4 1   
     4    4    5 1   
     5    4   10 1   
     6    4   19 1   
     7    5    6 1   
     8    5   20 1   
     9    5   32 1   
    10    6    7 1   
    11    7    8 1   
    12    7   21 1   
    13    7   22 1   
    14    8    9 1   
    15    8   23 1   
    16    8   24 1   
    17    9   25 1   
    18   10   11 2   
    19   10   15 1   
    20   11   12 1   
    21   11   26 1   
    22   12   13 1   
    23   12   27 1   
    24   13   14 ar  
    25   13   15 ar  
    26   14   18 ar  
    27   14   28 1   
    28   15   16 ar  
    29   16   17 ar  
    30   16   29 1   
    31   17   18 ar  
    32   17   30 1   
    33   18   31 1   
@<TRIPOS>SUBSTRUCTURE
     1 MPE         1 TEMP              0 ****  ****    0 ROOT
