@<TRIPOS>MOLECULE
MPE
   31    32     1     0     0
SMALL
bcc


@<TRIPOS>ATOM
      1 O9          2.0270    1.1910   -2.0290 o         1 MPE     -0.835300
      2 C7          1.3170    1.6540   -1.0930 c         1 MPE      0.943600
      3 O8          1.3540    2.8460   -0.6870 o         1 MPE     -0.835300
      4 C6          0.3430    0.6220   -0.4110 c3        1 MPE      0.060700
      5 N5         -0.9400    0.6370   -1.1530 n3        1 MPE     -0.538700
      6 O4         -1.3420   -0.6280   -1.4420 os        1 MPE     -0.286100
      7 C3         -1.1390   -0.9990   -2.8210 c3        1 MPE      0.157400
      8 C2          0.3100   -1.3180   -3.0990 c3        1 MPE     -0.036300
      9 S1          0.5460   -1.7210   -4.8110 sh        1 MPE     -0.453900
     10 C10         0.1980    0.8250    1.0510 cc        1 MPE     -0.144400
     11 C11         0.6480    1.9100    1.8000 cd        1 MPE     -0.063100
     12 N12         0.3410    1.7240    3.1540 na        1 MPE     -0.214400
     13 C13        -0.3010    0.4930    3.2980 ca        1 MPE     -0.059200
     14 C15        -0.8020   -0.1610    4.4320 ca        1 MPE     -0.161000
     15 C14        -0.4230   -0.1000    1.9800 ca        1 MPE     -0.086800
     16 C18        -1.0570   -1.3340    1.8440 ca        1 MPE     -0.081000
     17 C17        -1.5480   -1.9690    2.9770 ca        1 MPE     -0.177000
     18 C16        -1.4190   -1.3910    4.2510 ca        1 MPE     -0.134000
     19 H6          0.8240   -0.3940   -0.5580 h1        1 MPE      0.062700
     20 H5         -1.6630    1.0050   -0.5360 hn        1 MPE      0.348800
     21 H31        -1.7860   -1.9120   -2.9220 h1        1 MPE      0.043700
     22 H32        -1.5080   -0.1950   -3.5080 h1        1 MPE      0.043700
     23 H21         0.9690   -0.4510   -2.8000 h1        1 MPE      0.115700
     24 H22         0.6340   -2.2110   -2.5130 h1        1 MPE      0.115700
     25 H1          1.0300   -0.5660   -5.2410 hs        1 MPE      0.224800
     26 H11         1.1590    2.8110    1.4300 h4        1 MPE      0.222000
     27 H12         0.6220    2.3060    3.8930 hn        1 MPE      0.282700
     28 H15        -0.7100    0.2840    5.4300 ha        1 MPE      0.114000
     29 H18        -1.1650   -1.7780    0.8420 ha        1 MPE      0.148000
     30 H17        -2.0480   -2.9430    2.8810 ha        1 MPE      0.113000
     31 H16        -1.8190   -1.9270    5.1240 ha        1 MPE      0.108000
@<TRIPOS>BOND
     1    1    2 1   
     2    2    3 1   
     3    2    4 1   
     4    4    5 1   
     5    4   10 1   
     6    4   19 1   
     7    5    6 1   
     8    5   20 1   
     9    6    7 1   
    10    7    8 1   
    11    7   21 1   
    12    7   22 1   
    13    8    9 1   
    14    8   23 1   
    15    8   24 1   
    16    9   25 1   
    17   10   11 2   
    18   10   15 1   
    19   11   12 1   
    20   11   26 1   
    21   12   13 1   
    22   12   27 1   
    23   13   14 ar  
    24   13   15 ar  
    25   14   18 ar  
    26   14   28 1   
    27   15   16 ar  
    28   16   17 ar  
    29   16   29 1   
    30   17   18 ar  
    31   17   30 1   
    32   18   31 1   
@<TRIPOS>SUBSTRUCTURE
     1 MPE         1 TEMP              0 ****  ****    0 ROOT
