@<TRIPOS>MOLECULE
MPE
   31    26     1     0     0
SMALL
bcc


@<TRIPOS>ATOM
      1 O9         -1.9230   -0.3120   -2.1970 o         1 MPE     -0.557000
      2 C7         -0.6740   -0.1780   -2.1120 c1        1 MPE      0.340000
      3 O8          0.0110    0.0110   -3.1520 os        1 MPE     -0.558000
      4 C6          0.0000   -0.2150   -0.7590 c3        1 MPE     -0.120000
      5 N5         -0.3560   -1.4150   -0.0850 n3        1 MPE     -0.168000
      6 O4          0.2930   -2.4720   -0.6610 os        1 MPE     -0.229000
      7 C3          0.2800   -3.5750    0.2150 c3        1 MPE     -0.013000
      8 C2          0.5890   -4.8380   -0.5600 c3        1 MPE     -0.269000
      9 S1          0.6410   -6.2170    0.5530 sh        1 MPE     -0.072000
     10 C10        -0.4460    0.9740    0.0590 c2        1 MPE     -0.044000
     11 C11        -1.6080    0.9350    0.8040 c1        1 MPE     -0.134000
     12 N12        -1.7540    2.1450    1.4230 n2        1 MPE     -0.214000
     13 C13        -0.6820    2.9420    1.0650 c1        1 MPE     -0.023000
     14 C15        -0.3270    4.2560    1.4190 c1        1 MPE     -0.133000
     15 C14         0.1230    2.2180    0.2240 c1        1 MPE     -0.067000
     16 C18         1.3020    2.7890   -0.2850 c1        1 MPE     -0.133000
     17 C17         1.6520    4.0850    0.0640 c1        1 MPE     -0.133000
     18 C16         0.8370    4.8180    0.9160 c1        1 MPE     -0.133000
     19 H6          0.9710   -0.1840   -0.8780 h1        1 MPE      0.104000
     20 H5         -1.2600   -1.5420   -0.1460 hn        1 MPE      0.196000
     21 H31        -0.6050   -3.6540    0.6280 h1        1 MPE      0.090000
     22 H32         0.9560   -3.4470    0.9120 h1        1 MPE      0.090000
     23 H21        -0.1070   -4.9870   -1.2310 h1        1 MPE      0.123500
     24 H22         1.4550   -4.7440   -1.0040 h1        1 MPE      0.123500
     25 H1          0.7590   -7.2140   -0.0620 hs        1 MPE      0.038000
     26 H11        -2.2110    0.1720    0.8870 DU        1 MPE      0.184000
     27 H12        -2.4380    2.3850    1.9760 DU        1 MPE      0.184000
     28 H15        -0.8990    4.7710    2.0170 ha        1 MPE      0.132500
     29 H18         1.8640    2.2810   -0.9010 ha        1 MPE      0.132500
     30 H17         2.4710    4.4810   -0.2890 ha        1 MPE      0.132500
     31 H16         1.0840    5.7300    1.1620 ha        1 MPE      0.132500
@<TRIPOS>BOND
     1    1    2 1   
     2    2    4 1   
     3    4    5 1   
     4    4   10 1   
     5    4   19 1   
     6    5    6 1   
     7    5   20 1   
     8    6    7 1   
     9    7    8 1   
    10    7   21 1   
    11    7   22 1   
    12    8    9 1   
    13    8   23 1   
    14    8   24 1   
    15    9   25 1   
    16   10   11 1   
    17   10   15 1   
    18   11   12 1   
    19   12   13 1   
    20   13   15 1   
    21   14   18 1   
    22   14   28 1   
    23   16   17 1   
    24   16   29 1   
    25   17   30 1   
    26   18   31 1   
@<TRIPOS>SUBSTRUCTURE
     1 MPE         1 TEMP              0 ****  ****    0 ROOT
