@<TRIPOS>MOLECULE
MPE
   32    33     1     0     0
SMALL
bcc


@<TRIPOS>ATOM
      1 O9          2.0690    0.2870   -1.1680 o         1 MPE     -0.774800
      2 C7          2.9650    0.4070   -0.3130 c         1 MPE      0.920600
      3 O8          4.1670    0.7560   -0.4790 o         1 MPE     -0.774800
      4 C6          2.5430    0.1150    1.1990 c3        1 MPE      0.041700
      5 N5          3.7480    0.3760    2.0920 n4        1 MPE     -0.542500
      6 O4          3.7400    1.6040    2.6790 os        1 MPE     -0.248100
      7 C3          4.0680    2.7520    1.8430 c3        1 MPE      0.111400
      8 C2          2.8220    3.3510    1.2390 c3        1 MPE     -0.046300
      9 S1          3.1640    4.9780    0.6560 sh        1 MPE     -0.350900
     10 C10         2.0770   -1.2640    1.3910 cc        1 MPE     -0.227400
     11 C11         1.8390   -2.1870    0.3650 cd        1 MPE     -0.002100
     12 N12         1.3720   -3.3790    0.8990 na        1 MPE     -0.184400
     13 C13         1.2810   -3.2420    2.2910 ca        1 MPE     -0.053200
     14 C15         0.8680   -4.1510    3.2750 ca        1 MPE     -0.127000
     15 C14         1.7170   -1.9070    2.6390 ca        1 MPE     -0.090800
     16 C18         1.7040   -1.5150    3.9790 ca        1 MPE     -0.122000
     17 C17         1.2890   -2.4230    4.9420 ca        1 MPE     -0.137000
     18 C16         0.8810   -3.7230    4.5950 ca        1 MPE     -0.120000
     19 H6          1.7470    0.8540    1.4970 hx        1 MPE      0.104700
     20 H5          4.5950    0.2770    1.4800 hn        1 MPE      0.465800
     21 H31         4.5320    3.4410    2.6030 h1        1 MPE      0.104200
     22 H32         4.8110    2.4720    1.0470 h1        1 MPE      0.104200
     23 H21         2.0210    3.4540    2.0130 h1        1 MPE      0.102200
     24 H22         2.4350    2.6980    0.4160 h1        1 MPE      0.102200
     25 H1          3.6020    4.6920   -0.5620 hs        1 MPE      0.222800
     26 H11         1.9580   -2.0310   -0.7180 h4        1 MPE      0.216000
     27 H12         1.0710   -4.1650    0.3860 hn        1 MPE      0.307700
     28 H15         0.5400   -5.1650    3.0100 ha        1 MPE      0.138000
     29 H18         1.9920   -0.4940    4.2660 ha        1 MPE      0.125000
     30 H17         1.2700   -2.1240    6.0010 ha        1 MPE      0.133000
     31 H16         0.5600   -4.4130    5.3900 ha        1 MPE      0.135000
     32 H52         3.7730   -0.3000    2.8730 hn        1 MPE      0.465800
@<TRIPOS>BOND
     1    1    2 1   
     2    2    3 1   
     3    2    4 1   
     4    4    5 1   
     5    4   10 1   
     6    4   19 1   
     7    5    6 1   
     8    5   20 1   
     9    5   32 1   
    10    6    7 1   
    11    7    8 1   
    12    7   21 1   
    13    7   22 1   
    14    8    9 1   
    15    8   23 1   
    16    8   24 1   
    17    9   25 1   
    18   10   11 2   
    19   10   15 1   
    20   11   12 1   
    21   11   26 1   
    22   12   13 1   
    23   12   27 1   
    24   13   14 ar  
    25   13   15 ar  
    26   14   18 ar  
    27   14   28 1   
    28   15   16 ar  
    29   16   17 ar  
    30   16   29 1   
    31   17   18 ar  
    32   17   30 1   
    33   18   31 1   
@<TRIPOS>SUBSTRUCTURE
     1 MPE         1 TEMP              0 ****  ****    0 ROOT
