@<TRIPOS>MOLECULE
MPG
   65    64     1     0     0
SMALL
bcc


@<TRIPOS>ATOM
      1 C2          0.2150    0.1120   -0.2970 c3        1 MPG     -0.086400
      2 C3          1.7080   -0.0320   -0.1020 c3        1 MPG     -0.080400
      3 C4          2.1080   -0.0440    1.3570 c3        1 MPG     -0.076400
      4 C5          1.6630   -1.2740    2.1190 c3        1 MPG     -0.078400
      5 C6          2.2230   -2.5560    1.5420 c3        1 MPG     -0.080400
      6 C7          2.0650   -3.7160    2.5020 c3        1 MPG     -0.071400
      7 C8          2.5920   -5.0090    1.9070 c3        1 MPG     -0.053200
      8 C9          4.0660   -4.9880    1.7430 c2        1 MPG     -0.170200
      9 C10         4.7340   -5.3110    0.6320 c2        1 MPG     -0.167200
     10 C11         4.1290   -5.7420   -0.6520 c3        1 MPG     -0.046200
     11 C12         3.6630   -4.5680   -1.4930 c3        1 MPG     -0.075400
     12 C13         4.8200   -3.8090   -2.1050 c3        1 MPG     -0.078400
     13 C14         4.3350   -2.5910   -2.8620 c3        1 MPG     -0.076400
     14 C15         5.4860   -1.8500   -3.5090 c3        1 MPG     -0.080400
     15 C16         5.0030   -0.6290   -4.2610 c3        1 MPG     -0.078400
     16 C17         6.1540    0.1130   -4.9060 c3        1 MPG     -0.080400
     17 C18         5.6780    1.3290   -5.6570 c3        1 MPG     -0.093100
     18 O1          0.0320   -1.2320   -2.2400 os        1 MPG     -0.449900
     19 C1         -0.1620    0.1170   -1.7660 c3        1 MPG      0.140400
     20 O11        -0.6120   -0.5350   -4.2690 o         1 MPG     -0.539000
     21 CXD         0.0480   -2.8880   -3.9930 c3        1 MPG      0.063100
     22 O2         -0.7120   -3.2000   -5.1440 oh        1 MPG     -0.579800
     23 C21        -0.3320   -3.9160   -2.9170 c3        1 MPG      0.143400
     24 O3          0.6890   -4.0320   -1.9540 oh        1 MPG     -0.596800
     25 CX3        -0.2220   -1.4630   -3.5570 c         1 MPG      0.593100
     26 H22        -0.3180   -0.7290    0.2190 hc        1 MPG      0.057200
     27 H21        -0.1420    1.0750    0.1530 hc        1 MPG      0.057200
     28 H32         2.2290    0.8220   -0.6120 hc        1 MPG      0.045200
     29 H31         2.0560   -0.9770   -0.6020 hc        1 MPG      0.045200
     30 H42         1.6840    0.8650    1.8630 hc        1 MPG      0.040200
     31 H41         3.2270    0.0340    1.4180 hc        1 MPG      0.040200
     32 H52         0.5420   -1.3300    2.1330 hc        1 MPG      0.038700
     33 H51         1.9980   -1.1690    3.1860 hc        1 MPG      0.038700
     34 H62         3.3110   -2.4240    1.2980 hc        1 MPG      0.043200
     35 H61         1.6960   -2.7970    0.5790 hc        1 MPG      0.043200
     36 H72         0.9800   -3.8470    2.7540 hc        1 MPG      0.038200
     37 H71         2.6060   -3.4920    3.4580 hc        1 MPG      0.038200
     38 H82         2.0820   -5.1960    0.9230 hc        1 MPG      0.050700
     39 H81         2.3230   -5.8600    2.5910 hc        1 MPG      0.050700
     40 H9          4.6200   -4.6790    2.6460 ha        1 MPG      0.115000
     41 H10         5.8370   -5.2590    0.6280 ha        1 MPG      0.115000
     42 H112        3.2520   -6.4170   -0.4560 hc        1 MPG      0.044700
     43 H111        4.8790   -6.3420   -1.2350 hc        1 MPG      0.044700
     44 H122        3.0480   -3.8750   -0.8560 hc        1 MPG      0.048200
     45 H121        2.9830   -4.9420   -2.3050 hc        1 MPG      0.048200
     46 H132        5.5310   -3.4930   -1.2970 hc        1 MPG      0.039200
     47 H131        5.3870   -4.4830   -2.8000 hc        1 MPG      0.039200
     48 H142        3.5990   -2.9050   -3.6480 hc        1 MPG      0.035200
     49 H141        3.7920   -1.9040   -2.1590 hc        1 MPG      0.035200
     50 H152        6.0260   -2.5360   -4.2130 hc        1 MPG      0.040700
     51 H151        6.2220   -1.5400   -2.7210 hc        1 MPG      0.040700
     52 H162        4.2680   -0.9390   -5.0500 hc        1 MPG      0.037700
     53 H161        4.4620    0.0580   -3.5570 hc        1 MPG      0.037700
     54 H172        6.8890    0.4210   -4.1160 hc        1 MPG      0.038700
     55 H171        6.6940   -0.5760   -5.6090 hc        1 MPG      0.038700
     56 H183        5.1580    2.0390   -4.9680 hc        1 MPG      0.032367
     57 H182        4.9620    1.0400   -6.4640 hc        1 MPG      0.032367
     58 H181        6.5420    1.8600   -6.1240 hc        1 MPG      0.032367
     59 H12A       -1.2380    0.3920   -1.9180 h1        1 MPG      0.056700
     60 H11         0.4880    0.8040   -2.3680 h1        1 MPG      0.056700
     61 H12         1.1520   -2.9630   -4.2220 h1        1 MPG      0.080700
     62 H2         -0.6510   -2.4460   -5.7480 ho        1 MPG      0.428000
     63 H212       -0.4150   -4.9330   -3.3880 h1        1 MPG      0.068200
     64 H211       -1.3070   -3.6320   -2.4430 h1        1 MPG      0.068200
     65 H3          0.7430   -3.1920   -1.4760 ho        1 MPG      0.417000
@<TRIPOS>BOND
     1    1    2 1   
     2    1   19 1   
     3    1   26 1   
     4    1   27 1   
     5    2    3 1   
     6    2   28 1   
     7    2   29 1   
     8    3    4 1   
     9    3   30 1   
    10    3   31 1   
    11    4    5 1   
    12    4   32 1   
    13    4   33 1   
    14    5    6 1   
    15    5   34 1   
    16    5   35 1   
    17    6    7 1   
    18    6   36 1   
    19    6   37 1   
    20    7    8 1   
    21    7   38 1   
    22    7   39 1   
    23    8    9 2   
    24    8   40 1   
    25    9   10 1   
    26    9   41 1   
    27   10   11 1   
    28   10   42 1   
    29   10   43 1   
    30   11   12 1   
    31   11   44 1   
    32   11   45 1   
    33   12   13 1   
    34   12   46 1   
    35   12   47 1   
    36   13   14 1   
    37   13   48 1   
    38   13   49 1   
    39   14   15 1   
    40   14   50 1   
    41   14   51 1   
    42   15   16 1   
    43   15   52 1   
    44   15   53 1   
    45   16   17 1   
    46   16   54 1   
    47   16   55 1   
    48   17   56 1   
    49   17   57 1   
    50   17   58 1   
    51   18   19 1   
    52   18   25 1   
    53   19   59 1   
    54   19   60 1   
    55   20   25 2   
    56   21   22 1   
    57   21   23 1   
    58   21   25 1   
    59   21   61 1   
    60   22   62 1   
    61   23   24 1   
    62   23   63 1   
    63   23   64 1   
    64   24   65 1   
@<TRIPOS>SUBSTRUCTURE
     1 MPG         1 TEMP              0 ****  ****    0 ROOT
