@<TRIPOS>MOLECULE
MPG
   65    64     1     0     0
SMALL
bcc


@<TRIPOS>ATOM
      1 C2         -2.5010   -1.8300    5.4300 c3        1 MPG     -0.089400
      2 C3         -2.9130   -2.6310    4.2150 c3        1 MPG     -0.077400
      3 C4         -3.8110   -1.8550    3.2750 c3        1 MPG     -0.076400
      4 C5         -3.1950   -0.5910    2.7150 c3        1 MPG     -0.077400
      5 C6         -1.8460   -0.8280    2.0720 c3        1 MPG     -0.081400
      6 C7         -1.3590    0.3980    1.3280 c3        1 MPG     -0.072400
      7 C8          0.0340    0.1890    0.7630 c3        1 MPG     -0.053200
      8 C9          0.0380   -0.7580   -0.3770 c2        1 MPG     -0.163200
      9 C10         0.8400   -1.8170   -0.5170 c2        1 MPG     -0.174200
     10 C11         1.8730   -2.2560    0.4530 c3        1 MPG     -0.048200
     11 C12         1.2860   -3.1080    1.5640 c3        1 MPG     -0.077400
     12 C13         0.9740   -4.5150    1.1020 c3        1 MPG     -0.080400
     13 C14         0.3440   -5.3280    2.2130 c3        1 MPG     -0.080400
     14 C15         0.0130   -6.7300    1.7490 c3        1 MPG     -0.078400
     15 C16        -0.6100   -7.5450    2.8610 c3        1 MPG     -0.079400
     16 C17        -0.9440   -8.9470    2.3970 c3        1 MPG     -0.080400
     17 C18        -1.5650   -9.7620    3.5010 c3        1 MPG     -0.093100
     18 O1         -0.3430   -2.8120    5.6160 os        1 MPG     -0.437900
     19 C1         -1.5750   -2.6170    6.3380 c3        1 MPG      0.135400
     20 O11         0.7820   -2.7940    7.5640 o         1 MPG     -0.538000
     21 CXD         2.0330   -3.0750    5.4650 c3        1 MPG      0.058100
     22 O2          3.0740   -3.6760    6.2020 oh        1 MPG     -0.572800
     23 C21         2.4900   -1.7360    4.8690 c3        1 MPG      0.104400
     24 O3          1.4270   -0.9920    4.3200 oh        1 MPG     -0.591800
     25 CX3         0.8080   -2.8810    6.3360 c         1 MPG      0.608100
     26 H22        -1.9820   -0.8900    5.1050 hc        1 MPG      0.057700
     27 H21        -3.4060   -1.5390    6.0250 hc        1 MPG      0.057700
     28 H32        -1.9920   -2.9690    3.6690 hc        1 MPG      0.044200
     29 H31        -3.4550   -3.5560    4.5490 hc        1 MPG      0.044200
     30 H42        -4.0930   -2.5310    2.4230 hc        1 MPG      0.038700
     31 H41        -4.7580   -1.5830    3.8120 hc        1 MPG      0.038700
     32 H52        -3.0870    0.1720    3.5310 hc        1 MPG      0.039200
     33 H51        -3.8990   -0.1590    1.9540 hc        1 MPG      0.039200
     34 H62        -1.9070   -1.6960    1.3640 hc        1 MPG      0.042700
     35 H61        -1.0990   -1.0980    2.8680 hc        1 MPG      0.042700
     36 H72        -2.0730    0.6470    0.5000 hc        1 MPG      0.040700
     37 H71        -1.3390    1.2740    2.0290 hc        1 MPG      0.040700
     38 H82         0.7130   -0.1650    1.5870 hc        1 MPG      0.050200
     39 H81         0.4330    1.1770    0.4040 hc        1 MPG      0.050200
     40 H9         -0.6990   -0.5240   -1.1650 ha        1 MPG      0.118000
     41 H10         0.7540   -2.4510   -1.4160 ha        1 MPG      0.118000
     42 H112        2.6680   -2.8410   -0.0850 hc        1 MPG      0.046200
     43 H111        2.3780   -1.3620    0.9090 hc        1 MPG      0.046200
     44 H122        0.3470   -2.6220    1.9460 hc        1 MPG      0.035700
     45 H121        2.0150   -3.1480    2.4180 hc        1 MPG      0.035700
     46 H132        0.2780   -4.4710    0.2230 hc        1 MPG      0.044200
     47 H131        1.9150   -5.0170    0.7550 hc        1 MPG      0.044200
     48 H142       -0.5900   -4.8180    2.5710 hc        1 MPG      0.038200
     49 H141        1.0470   -5.3780    3.0870 hc        1 MPG      0.038200
     50 H152       -0.6920   -6.6800    0.8780 hc        1 MPG      0.040700
     51 H151        0.9470   -7.2370    1.3890 hc        1 MPG      0.040700
     52 H162       -1.5430   -7.0370    3.2230 hc        1 MPG      0.039700
     53 H161        0.0960   -7.5960    3.7320 hc        1 MPG      0.039700
     54 H172       -0.0100   -9.4520    2.0340 hc        1 MPG      0.038200
     55 H171       -1.6490   -8.8930    1.5260 hc        1 MPG      0.038200
     56 H183       -0.8670   -9.8470    4.3690 hc        1 MPG      0.032700
     57 H182       -1.8020  -10.7910    3.1380 hc        1 MPG      0.032700
     58 H181       -2.5100   -9.2870    3.8590 hc        1 MPG      0.032700
     59 H12A       -1.9790   -3.6370    6.5690 h1        1 MPG      0.060200
     60 H11        -1.3790   -2.0610    7.2930 h1        1 MPG      0.060200
     61 H12         1.7940   -3.8110    4.6420 h1        1 MPG      0.106700
     62 H2          3.1620   -3.1940    7.0380 ho        1 MPG      0.424000
     63 H212        3.2670   -1.9440    4.0840 h1        1 MPG      0.062200
     64 H211        2.9300   -1.0770    5.6640 h1        1 MPG      0.062200
     65 H3          0.8930   -1.5910    3.7790 ho        1 MPG      0.413000
@<TRIPOS>BOND
     1    1    2 1   
     2    1   19 1   
     3    1   26 1   
     4    1   27 1   
     5    2    3 1   
     6    2   28 1   
     7    2   29 1   
     8    3    4 1   
     9    3   30 1   
    10    3   31 1   
    11    4    5 1   
    12    4   32 1   
    13    4   33 1   
    14    5    6 1   
    15    5   34 1   
    16    5   35 1   
    17    6    7 1   
    18    6   36 1   
    19    6   37 1   
    20    7    8 1   
    21    7   38 1   
    22    7   39 1   
    23    8    9 2   
    24    8   40 1   
    25    9   10 1   
    26    9   41 1   
    27   10   11 1   
    28   10   42 1   
    29   10   43 1   
    30   11   12 1   
    31   11   44 1   
    32   11   45 1   
    33   12   13 1   
    34   12   46 1   
    35   12   47 1   
    36   13   14 1   
    37   13   48 1   
    38   13   49 1   
    39   14   15 1   
    40   14   50 1   
    41   14   51 1   
    42   15   16 1   
    43   15   52 1   
    44   15   53 1   
    45   16   17 1   
    46   16   54 1   
    47   16   55 1   
    48   17   56 1   
    49   17   57 1   
    50   17   58 1   
    51   18   19 1   
    52   18   25 1   
    53   19   59 1   
    54   19   60 1   
    55   20   25 2   
    56   21   22 1   
    57   21   23 1   
    58   21   25 1   
    59   21   61 1   
    60   22   62 1   
    61   23   24 1   
    62   23   63 1   
    63   23   64 1   
    64   24   65 1   
@<TRIPOS>SUBSTRUCTURE
     1 MPG         1 TEMP              0 ****  ****    0 ROOT
