@<TRIPOS>MOLECULE
MPG
   65    64     1     0     0
SMALL
bcc


@<TRIPOS>ATOM
      1 C2          0.2200    0.1160   -0.2920 c3        1 MPG     -0.086400
      2 C3          1.7140   -0.0290   -0.0990 c3        1 MPG     -0.080400
      3 C4          2.1170   -0.0410    1.3590 c3        1 MPG     -0.076400
      4 C5          1.6710   -1.2700    2.1230 c3        1 MPG     -0.078400
      5 C6          2.2300   -2.5530    1.5450 c3        1 MPG     -0.080400
      6 C7          2.0720   -3.7120    2.5060 c3        1 MPG     -0.071400
      7 C8          2.5970   -5.0060    1.9100 c3        1 MPG     -0.053200
      8 C9          4.0700   -4.9870    1.7430 c2        1 MPG     -0.170200
      9 C10         4.7360   -5.3100    0.6310 c2        1 MPG     -0.167200
     10 C11         4.1270   -5.7420   -0.6510 c3        1 MPG     -0.046200
     11 C12         3.6600   -4.5690   -1.4920 c3        1 MPG     -0.075400
     12 C13         4.8160   -3.8120   -2.1080 c3        1 MPG     -0.078400
     13 C14         4.3310   -2.5940   -2.8660 c3        1 MPG     -0.076400
     14 C15         5.4810   -1.8560   -3.5170 c3        1 MPG     -0.080400
     15 C16         4.9970   -0.6360   -4.2710 c3        1 MPG     -0.078400
     16 C17         6.1470    0.1030   -4.9200 c3        1 MPG     -0.080400
     17 C18         5.6700    1.3180   -5.6730 c3        1 MPG     -0.093100
     18 O1          0.0330   -1.2280   -2.2330 os        1 MPG     -0.449900
     19 C1         -0.1590    0.1210   -1.7600 c3        1 MPG      0.140400
     20 O11        -0.6140   -0.5320   -4.2620 o         1 MPG     -0.539000
     21 CXD         0.0430   -2.8850   -3.9860 c3        1 MPG      0.063100
     22 O2         -0.7190   -3.1960   -5.1350 oh        1 MPG     -0.579800
     23 C21        -0.3360   -3.9120   -2.9090 c3        1 MPG      0.143400
     24 O3          0.6870   -4.0290   -1.9480 oh        1 MPG     -0.596800
     25 CX3        -0.2250   -1.4590   -3.5500 c         1 MPG      0.593100
     26 H22        -0.3130   -0.7240    0.2260 hc        1 MPG      0.057200
     27 H21        -0.1350    1.0800    0.1590 hc        1 MPG      0.057200
     28 H32         2.2350    0.8240   -0.6110 hc        1 MPG      0.045200
     29 H31         2.0600   -0.9740   -0.5990 hc        1 MPG      0.045200
     30 H42         1.6940    0.8690    1.8650 hc        1 MPG      0.040200
     31 H41         3.2360    0.0360    1.4170 hc        1 MPG      0.040200
     32 H52         0.5510   -1.3250    2.1380 hc        1 MPG      0.038700
     33 H51         2.0090   -1.1650    3.1890 hc        1 MPG      0.038700
     34 H62         3.3170   -2.4220    1.2990 hc        1 MPG      0.043200
     35 H61         1.7000   -2.7940    0.5830 hc        1 MPG      0.043200
     36 H72         0.9870   -3.8420    2.7610 hc        1 MPG      0.038200
     37 H71         2.6160   -3.4880    3.4610 hc        1 MPG      0.038200
     38 H82         2.0840   -5.1930    0.9280 hc        1 MPG      0.050700
     39 H81         2.3280   -5.8560    2.5950 hc        1 MPG      0.050700
     40 H9          4.6270   -4.6780    2.6450 ha        1 MPG      0.115000
     41 H10         5.8390   -5.2600    0.6240 ha        1 MPG      0.115000
     42 H112        3.2500   -6.4160   -0.4520 hc        1 MPG      0.044700
     43 H111        4.8760   -6.3430   -1.2350 hc        1 MPG      0.044700
     44 H122        3.0480   -3.8740   -0.8540 hc        1 MPG      0.048200
     45 H121        2.9780   -4.9430   -2.3020 hc        1 MPG      0.048200
     46 H132        5.5300   -3.4950   -1.3020 hc        1 MPG      0.039200
     47 H131        5.3810   -4.4870   -2.8040 hc        1 MPG      0.039200
     48 H142        3.5920   -2.9090   -3.6500 hc        1 MPG      0.035200
     49 H141        3.7900   -1.9060   -2.1630 hc        1 MPG      0.035200
     50 H152        6.0190   -2.5440   -4.2210 hc        1 MPG      0.040700
     51 H151        6.2190   -1.5440   -2.7320 hc        1 MPG      0.040700
     52 H162        4.2590   -0.9470   -5.0570 hc        1 MPG      0.037700
     53 H161        4.4580    0.0530   -3.5670 hc        1 MPG      0.037700
     54 H172        6.8850    0.4120   -4.1330 hc        1 MPG      0.038700
     55 H171        6.6850   -0.5870   -5.6230 hc        1 MPG      0.038700
     56 H183        5.1530    2.0300   -4.9840 hc        1 MPG      0.032367
     57 H182        4.9520    1.0280   -6.4780 hc        1 MPG      0.032367
     58 H181        6.5330    1.8470   -6.1440 hc        1 MPG      0.032367
     59 H12A       -1.2350    0.3980   -1.9100 h1        1 MPG      0.056700
     60 H11         0.4900    0.8070   -2.3640 h1        1 MPG      0.056700
     61 H12         1.1470   -2.9610   -4.2160 h1        1 MPG      0.080700
     62 H2         -0.6580   -2.4430   -5.7400 ho        1 MPG      0.428000
     63 H212       -0.4210   -4.9290   -3.3790 h1        1 MPG      0.068200
     64 H211       -1.3100   -3.6270   -2.4330 h1        1 MPG      0.068200
     65 H3          0.7420   -3.1890   -1.4700 ho        1 MPG      0.417000
@<TRIPOS>BOND
     1    1    2 1   
     2    1   19 1   
     3    1   26 1   
     4    1   27 1   
     5    2    3 1   
     6    2   28 1   
     7    2   29 1   
     8    3    4 1   
     9    3   30 1   
    10    3   31 1   
    11    4    5 1   
    12    4   32 1   
    13    4   33 1   
    14    5    6 1   
    15    5   34 1   
    16    5   35 1   
    17    6    7 1   
    18    6   36 1   
    19    6   37 1   
    20    7    8 1   
    21    7   38 1   
    22    7   39 1   
    23    8    9 2   
    24    8   40 1   
    25    9   10 1   
    26    9   41 1   
    27   10   11 1   
    28   10   42 1   
    29   10   43 1   
    30   11   12 1   
    31   11   44 1   
    32   11   45 1   
    33   12   13 1   
    34   12   46 1   
    35   12   47 1   
    36   13   14 1   
    37   13   48 1   
    38   13   49 1   
    39   14   15 1   
    40   14   50 1   
    41   14   51 1   
    42   15   16 1   
    43   15   52 1   
    44   15   53 1   
    45   16   17 1   
    46   16   54 1   
    47   16   55 1   
    48   17   56 1   
    49   17   57 1   
    50   17   58 1   
    51   18   19 1   
    52   18   25 1   
    53   19   59 1   
    54   19   60 1   
    55   20   25 2   
    56   21   22 1   
    57   21   23 1   
    58   21   25 1   
    59   21   61 1   
    60   22   62 1   
    61   23   24 1   
    62   23   63 1   
    63   23   64 1   
    64   24   65 1   
@<TRIPOS>SUBSTRUCTURE
     1 MPG         1 TEMP              0 ****  ****    0 ROOT
