@<TRIPOS>MOLECULE
MPH
   20    19     1     0     0
SMALL
bcc


@<TRIPOS>ATOM
      1 N          -1.9860    0.0810   -1.6410 n3        1 MPH     -0.874800
      2 CA         -0.9090    0.4720   -0.7790 c3        1 MPH     -0.039700
      3 CB         -1.1030    0.2590    0.7100 c3        1 MPH     -0.050400
      4 CG         -0.6150    1.4310    1.5240 c3        1 MPH      0.077700
      5 SD         -0.2540    1.0280    3.2410 ss        1 MPH     -0.508200
      6 CE          1.1400   -0.0470    3.0930 c3        1 MPH     -0.034000
      7 P           0.5790   -0.5550   -1.2440 p5        1 MPH      1.214700
      8 H          -2.8610    0.0810   -1.1420 hn        1 MPH      0.308800
      9 HN2        -1.8170   -0.8710   -1.9380 hn        1 MPH      0.308800
     10 HA         -0.6680    1.5420   -0.9940 h1        1 MPH      0.029700
     11 HB1        -0.5260   -0.6640    1.0040 hc        1 MPH      0.026700
     12 HB2        -2.1820    0.0730    0.9780 hc        1 MPH      0.026700
     13 HG1        -1.3840    2.2360    1.5890 h1        1 MPH      0.053700
     14 HG2         0.3240    1.8420    1.0810 h1        1 MPH      0.053700
     15 HE1         0.9000   -1.0200    3.5710 h1        1 MPH      0.079367
     16 HE2         1.3960   -0.2250    2.0000 h1        1 MPH      0.079367
     17 HE3         2.0080    0.4160    3.6090 h1        1 MPH      0.079367
     18 O1         -0.0210   -1.9330   -1.4040 o         1 MPH     -0.944500
     19 O2          1.1260    0.0820   -2.4900 o         1 MPH     -0.944500
     20 O3          1.4700   -0.4030   -0.0230 o         1 MPH     -0.944500
@<TRIPOS>BOND
     1    1    2 1   
     2    1    8 1   
     3    1    9 1   
     4    2    3 1   
     5    2    7 1   
     6    2   10 1   
     7    3    4 1   
     8    3   11 1   
     9    3   12 1   
    10    4    5 1   
    11    4   13 1   
    12    4   14 1   
    13    5    6 1   
    14    6   15 1   
    15    6   16 1   
    16    6   17 1   
    17    7   18 1   
    18    7   19 1   
    19    7   20 1   
@<TRIPOS>SUBSTRUCTURE
     1 MPH         1 TEMP              0 ****  ****    0 ROOT
