@<TRIPOS>MOLECULE
MPI
   16    17     1     0     0
SMALL
bcc


@<TRIPOS>ATOM
      1 N1          0.2370    0.7250   -0.0000 na        1 MPI      0.050700
      2 C2          0.2470   -0.6890    0.0000 ca        1 MPI      0.027500
      3 C3         -0.9680   -1.4260    0.0010 ca        1 MPI     -0.135000
      4 C4         -2.1520   -0.7180    0.0000 ca        1 MPI     -0.028000
      5 C5         -2.1480    0.7010   -0.0000 ca        1 MPI     -0.134000
      6 C6         -0.9590    1.4070   -0.0000 ca        1 MPI     -0.036300
      7 N7          1.5750   -1.0970    0.0010 na        1 MPI     -0.151400
      8 C8          2.3900    0.0420    0.0000 cc        1 MPI     -0.058100
      9 C9          1.5750    1.1750   -0.0000 cd        1 MPI     -0.156100
     10 H3         -0.9360   -2.5270    0.0010 ha        1 MPI      0.194000
     11 H4         -3.1190   -1.2530    0.0000 ha        1 MPI      0.191000
     12 H5         -3.1040    1.2540   -0.0000 ha        1 MPI      0.198000
     13 H6         -0.8980    2.5130   -0.0010 h4        1 MPI      0.210000
     14 HN7         1.8790   -2.0430    0.0010 hn        1 MPI      0.359700
     15 H8          3.4850   -0.0290    0.0000 h4        1 MPI      0.234000
     16 H9          1.8320    2.2390   -0.0000 h4        1 MPI      0.234000
@<TRIPOS>BOND
     1    1    2 1   
     2    1    6 2   
     3    1    9 1   
     4    2    3 ar  
     5    2    7 1   
     6    3    4 ar  
     7    3   10 1   
     8    4    5 ar  
     9    4   11 1   
    10    5    6 ar  
    11    5   12 1   
    12    6   13 1   
    13    7    8 1   
    14    7   14 1   
    15    8    9 2   
    16    8   15 1   
    17    9   16 1   
@<TRIPOS>SUBSTRUCTURE
     1 MPI         1 TEMP              0 ****  ****    0 ROOT
