@<TRIPOS>MOLECULE
MPI
   16     9     1     0     0
SMALL
bcc


@<TRIPOS>ATOM
      1 N1         -0.6820    0.0000   -0.3230 n1        1 MPI     -0.025000
      2 C2          0.6760    0.0000   -0.3230 c1        1 MPI      0.097000
      3 C3          1.3780    0.0000    0.8930 c1        1 MPI     -0.135000
      4 C4          0.6930    0.0000    2.0780 c1        1 MPI     -0.081000
      5 C5         -0.6790    0.0000    2.0770 c1        1 MPI     -0.081000
      6 C6         -1.3730    0.0000    0.8730 c1        1 MPI     -0.012000
      7 N7          1.1010   -0.0000   -1.6300 n1        1 MPI     -0.174000
      8 C8          0.0140   -0.0000   -2.4200 c1        1 MPI     -0.031000
      9 C9         -1.1000    0.0000   -1.6120 c1        1 MPI     -0.129000
     10 H3          2.3540    0.0000    0.8930 ha        1 MPI      0.194000
     11 H4          1.1810   -0.0000    2.9240 ha        1 MPI      0.194500
     12 H5         -1.1680    0.0000    2.9220 ha        1 MPI      0.194500
     13 H6         -2.3490    0.0000    0.8720 ha        1 MPI      0.210000
     14 HN7         1.9690   -0.0000   -1.9110 DU        1 MPI      0.259333
     15 H8          0.0140   -0.0000   -3.3970 DU        1 MPI      0.259333
     16 H9         -2.0290    0.0000   -1.9140 DU        1 MPI      0.259333
@<TRIPOS>BOND
     1    1    6 1   
     2    2    3 1   
     3    3   10 1   
     4    4    5 1   
     5    4   11 1   
     6    5   12 1   
     7    6   13 1   
     8    7    8 1   
     9    8    9 1   
@<TRIPOS>SUBSTRUCTURE
     1 MPI         1 TEMP              0 ****  ****    0 ROOT
