@<TRIPOS>MOLECULE
MPJ
   21    20     1     0     0
SMALL
bcc


@<TRIPOS>ATOM
      1 N           0.8940    1.3910   -1.7530 n3        1 MPJ     -0.895800
      2 CA          1.8390    0.9560   -0.7460 c3        1 MPJ     -0.119700
      3 CB          1.6220   -0.4440   -0.1640 c3        1 MPJ     -0.088400
      4 CG          1.6300   -0.4480    1.3450 c3        1 MPJ     -0.020300
      5 SD          1.2220   -2.0900    1.8640 ss        1 MPJ     -0.287200
      6 CE          1.5340   -2.0200    3.5860 c3        1 MPJ     -0.043000
      7 P           3.3530    1.0260   -1.4630 p5        1 MPJ      1.455300
      8 H           0.8030    0.6780   -2.4540 hn        1 MPJ      0.365800
      9 HN2        -0.0080    1.5750   -1.3590 hn        1 MPJ      0.365800
     10 HA          1.7650    1.6940    0.1080 h1        1 MPJ      0.106700
     11 HB1         2.4280   -1.1290   -0.5490 hc        1 MPJ      0.069200
     12 HB2         0.6420   -0.8750   -0.5120 hc        1 MPJ      0.069200
     13 HG1         0.8790    0.2770    1.7450 h1        1 MPJ      0.066700
     14 HG2         2.6320   -0.1530    1.7420 h1        1 MPJ      0.066700
     15 HE1         0.8740   -1.2860    4.1000 h1        1 MPJ      0.065033
     16 HE2         2.5930   -1.7610    3.8080 h1        1 MPJ      0.065033
     17 HE3         1.3190   -3.0400    3.9820 h1        1 MPJ      0.065033
     18 HO2         4.9470   -0.0950   -0.4480 ho        1 MPJ      0.479000
     19 HP          3.5790    2.2700   -1.6530 hp        1 MPJ     -0.139400
     20 O1          3.6140    0.0880   -2.5460 o         1 MPJ     -0.849300
     21 O2          4.3930    0.6670   -0.2900 oh        1 MPJ     -0.797400
@<TRIPOS>BOND
     1    1    2 1   
     2    1    8 1   
     3    1    9 1   
     4    2    3 1   
     5    2    7 1   
     6    2   10 1   
     7    3    4 1   
     8    3   11 1   
     9    3   12 1   
    10    4    5 1   
    11    4   13 1   
    12    4   14 1   
    13    5    6 1   
    14    6   15 1   
    15    6   16 1   
    16    6   17 1   
    17    7   19 1   
    18    7   20 2   
    19    7   21 1   
    20   18   21 1   
@<TRIPOS>SUBSTRUCTURE
     1 MPJ         1 TEMP              0 ****  ****    0 ROOT
