@<TRIPOS>MOLECULE
MPK
   25    22     1     0     0
SMALL
bcc


@<TRIPOS>ATOM
      1 C1         -3.4920    0.0530   -1.8450 c3        1 MPK     -0.172000
      2 C2         -2.0060   -0.0140   -1.7860 c2        1 MPK      0.001000
      3 C3         -1.2430    0.0330   -0.6420 c1        1 MPK     -0.227000
      4 C4         -1.7930    0.1620    0.8340 c2        1 MPK      0.046000
      5 O5         -2.2430   -1.1160    1.2890 oh        1 MPK     -0.325000
      6 C6          0.0970    0.0310   -1.0190 c1        1 MPK     -0.054000
      7 N7          0.1510   -0.0180   -2.3930 n2        1 MPK     -0.018000
      8 O8         -1.1490   -0.0460   -2.8720 os        1 MPK     -0.061000
      9 C9          1.3270    0.0330   -0.0490 c1        1 MPK     -0.028000
     10 C10         1.8990    1.2500    0.3520 c1        1 MPK     -0.111000
     11 C11         3.0620    1.2540    1.1520 c1        1 MPK     -0.125000
     12 C12         3.6450    0.0440    1.5440 c1        1 MPK     -0.125000
     13 C13         3.0730   -1.1720    1.1430 c1        1 MPK     -0.134000
     14 C14         1.9100   -1.1760    0.3440 c2        1 MPK     -0.095000
     15 H1         -3.8740   -0.5380   -1.1550 hc        1 MPK      0.111333
     16 H2         -3.7960   -0.2350   -2.7240 hc        1 MPK      0.111333
     17 H3         -3.7860    0.9830   -1.6830 hc        1 MPK      0.111333
     18 H4         -1.0630    0.4920    1.4350 h4        1 MPK      0.100500
     19 H5         -2.5540    0.8060    0.8490 h4        1 MPK      0.100500
     20 H6         -2.6050   -1.0320    2.1090 ho        1 MPK      0.202000
     21 H7          1.5010    2.0760    0.0840 ha        1 MPK      0.136000
     22 H8          3.4620    2.1030    1.4320 ha        1 MPK      0.135000
     23 H9          4.4750    0.0470    2.1140 ha        1 MPK      0.135000
     24 H10         3.4790   -2.0170    1.4160 ha        1 MPK      0.137000
     25 H11         1.5230   -2.0030    0.0710 ha        1 MPK      0.148000
@<TRIPOS>BOND
     1    1    2 1   
     2    1   15 1   
     3    1   16 1   
     4    1   17 1   
     5    2    3 1   
     6    2    8 1   
     7    3    6 1   
     8    4    5 1   
     9    4   18 1   
    10    4   19 1   
    11    5   20 1   
    12    6    7 1   
    13    7    8 1   
    14    9   10 1   
    15    9   14 1   
    16   10   21 1   
    17   11   12 1   
    18   11   22 1   
    19   12   23 1   
    20   13   14 1   
    21   13   24 1   
    22   14   25 1   
@<TRIPOS>SUBSTRUCTURE
     1 MPK         1 TEMP              0 ****  ****    0 ROOT
