@<TRIPOS>MOLECULE
MPK
   25    26     1     0     0
SMALL
bcc


@<TRIPOS>ATOM
      1 C1         -0.0250   -0.0380   -0.1230 c3        1 MPK     -0.140400
      2 C2          1.4230   -0.0170    0.0660 cc        1 MPK      0.289000
      3 C3          2.2780   -0.0030    1.1540 cd        1 MPK     -0.316900
      4 C4          1.9360    0.0510    2.5860 c3        1 MPK      0.206700
      5 O5          1.8180   -1.2800    3.0800 oh        1 MPK     -0.597800
      6 C6          3.6230   -0.0010    0.5610 cd        1 MPK      0.392800
      7 N7          3.4980   -0.0020   -0.7850 nc        1 MPK     -0.357300
      8 O8          2.2200   -0.0100   -1.1030 os        1 MPK     -0.118100
      9 C9          4.8820   -0.0020    1.2900 ca        1 MPK     -0.138500
     10 C10         5.0150   -0.7740    2.4530 ca        1 MPK     -0.102500
     11 C11         6.2210   -0.7780    3.1510 ca        1 MPK     -0.138500
     12 C12         7.2980   -0.0170    2.6960 ca        1 MPK     -0.117000
     13 C13         7.1700    0.7480    1.5370 ca        1 MPK     -0.138500
     14 C14         5.9680    0.7560    0.8310 ca        1 MPK     -0.102500
     15 H1         -0.3820   -1.0980   -0.2000 hc        1 MPK      0.067367
     16 H2         -0.3110    0.5000   -1.0620 hc        1 MPK      0.067367
     17 H3         -0.5290    0.4470    0.7500 hc        1 MPK      0.067367
     18 H4          2.7430    0.5930    3.1530 h1        1 MPK      0.036200
     19 H5          0.9570    0.5880    2.7290 h1        1 MPK      0.036200
     20 H6          1.6170   -1.2000    4.0210 ho        1 MPK      0.401000
     21 H7          4.1640   -1.3820    2.8030 ha        1 MPK      0.151000
     22 H8          6.3230   -1.3890    4.0600 ha        1 MPK      0.134500
     23 H9          8.2490   -0.0230    3.2490 ha        1 MPK      0.132000
     24 H10         8.0200    1.3450    1.1740 ha        1 MPK      0.134500
     25 H11         5.8740    1.3540   -0.0880 ha        1 MPK      0.151000
@<TRIPOS>BOND
     1    1    2 1   
     2    1   15 1   
     3    1   16 1   
     4    1   17 1   
     5    2    3 2   
     6    2    8 1   
     7    3    4 1   
     8    3    6 1   
     9    4    5 1   
    10    4   18 1   
    11    4   19 1   
    12    5   20 1   
    13    6    7 2   
    14    6    9 1   
    15    7    8 1   
    16    9   10 ar  
    17    9   14 ar  
    18   10   11 ar  
    19   10   21 1   
    20   11   12 ar  
    21   11   22 1   
    22   12   13 ar  
    23   12   23 1   
    24   13   14 ar  
    25   13   24 1   
    26   14   25 1   
@<TRIPOS>SUBSTRUCTURE
     1 MPK         1 TEMP              0 ****  ****    0 ROOT
