@<TRIPOS>MOLECULE
MPK
   25    26     1     0     0
SMALL
bcc


@<TRIPOS>ATOM
      1 C1         -0.0240   -0.0370   -0.1260 c3        1 MPK     -0.140400
      2 C2          1.4240   -0.0170    0.0640 cc        1 MPK      0.289000
      3 C3          2.2780   -0.0020    1.1530 cd        1 MPK     -0.316900
      4 C4          1.9350    0.0530    2.5840 c3        1 MPK      0.206700
      5 O5          1.8160   -1.2770    3.0800 oh        1 MPK     -0.597800
      6 C6          3.6230   -0.0030    0.5610 cd        1 MPK      0.392800
      7 N7          3.5000   -0.0040   -0.7850 nc        1 MPK     -0.357300
      8 O8          2.2220   -0.0120   -1.1040 os        1 MPK     -0.118100
      9 C9          4.8830   -0.0040    1.2910 ca        1 MPK     -0.138500
     10 C10         5.0140   -0.7740    2.4550 ca        1 MPK     -0.102500
     11 C11         6.2190   -0.7790    3.1530 ca        1 MPK     -0.138500
     12 C12         7.2970   -0.0190    2.6990 ca        1 MPK     -0.117000
     13 C13         7.1710    0.7450    1.5390 ca        1 MPK     -0.138500
     14 C14         5.9700    0.7530    0.8320 ca        1 MPK     -0.102500
     15 H1         -0.3820   -1.0970   -0.1990 hc        1 MPK      0.067367
     16 H2         -0.3080    0.4980   -1.0670 hc        1 MPK      0.067367
     17 H3         -0.5280    0.4520    0.7450 hc        1 MPK      0.067367
     18 H4          2.7420    0.5950    3.1520 h1        1 MPK      0.036200
     19 H5          0.9560    0.5920    2.7260 h1        1 MPK      0.036200
     20 H6          1.6140   -1.1960    4.0200 ho        1 MPK      0.401000
     21 H7          4.1620   -1.3810    2.8050 ha        1 MPK      0.151000
     22 H8          6.3200   -1.3880    4.0630 ha        1 MPK      0.134500
     23 H9          8.2480   -0.0250    3.2530 ha        1 MPK      0.132000
     24 H10         8.0210    1.3410    1.1760 ha        1 MPK      0.134500
     25 H11         5.8760    1.3510   -0.0880 ha        1 MPK      0.151000
@<TRIPOS>BOND
     1    1    2 1   
     2    1   15 1   
     3    1   16 1   
     4    1   17 1   
     5    2    3 2   
     6    2    8 1   
     7    3    4 1   
     8    3    6 1   
     9    4    5 1   
    10    4   18 1   
    11    4   19 1   
    12    5   20 1   
    13    6    7 2   
    14    6    9 1   
    15    7    8 1   
    16    9   10 ar  
    17    9   14 ar  
    18   10   11 ar  
    19   10   21 1   
    20   11   12 ar  
    21   11   22 1   
    22   12   13 ar  
    23   12   23 1   
    24   13   14 ar  
    25   13   24 1   
    26   14   25 1   
@<TRIPOS>SUBSTRUCTURE
     1 MPK         1 TEMP              0 ****  ****    0 ROOT
