@<TRIPOS>MOLECULE
MPK
   25    26     1     0     0
SMALL
bcc


@<TRIPOS>ATOM
      1 C1          3.9580   -0.1940    0.2540 c3        1 MPK     -0.140400
      2 C2          2.5240   -0.4470    0.1390 cc        1 MPK      0.289000
      3 C3          1.3730    0.3060    0.2880 cd        1 MPK     -0.316900
      4 C4          1.2480    1.7150    0.6970 c3        1 MPK      0.206700
      5 O5          1.2700    2.5360   -0.4670 oh        1 MPK     -0.597800
      6 C6          0.2820   -0.6340   -0.0060 cd        1 MPK      0.392800
      7 N7          0.8210   -1.8420   -0.2880 nc        1 MPK     -0.357300
      8 O8          2.1330   -1.7610   -0.2100 os        1 MPK     -0.118100
      9 C9         -1.1410   -0.3280   -0.0000 ca        1 MPK     -0.138500
     10 C10        -1.5920    0.8990   -0.5070 ca        1 MPK     -0.102500
     11 C11        -2.9540    1.1930   -0.5050 ca        1 MPK     -0.138500
     12 C12        -3.8710    0.2710    0.0000 ca        1 MPK     -0.117000
     13 C13        -3.4250   -0.9520    0.5000 ca        1 MPK     -0.138500
     14 C14        -2.0650   -1.2560    0.4990 ca        1 MPK     -0.102500
     15 H1          4.4960   -1.1120    0.6020 hc        1 MPK      0.067367
     16 H2          4.3720    0.1010   -0.7450 hc        1 MPK      0.067367
     17 H3          4.1400    0.6390    0.9780 hc        1 MPK      0.067367
     18 H4          0.2780    1.8700    1.2480 h1        1 MPK      0.036200
     19 H5          2.1060    2.0000    1.3690 h1        1 MPK      0.036200
     20 H6          1.1630    3.4430   -0.1580 ho        1 MPK      0.401000
     21 H7         -0.8650    1.6210   -0.9140 ha        1 MPK      0.151000
     22 H8         -3.3050    2.1550   -0.9070 ha        1 MPK      0.134500
     23 H9         -4.9460    0.5070   -0.0000 ha        1 MPK      0.132000
     24 H10        -4.1470   -1.6820    0.8940 ha        1 MPK      0.134500
     25 H11        -1.7170   -2.2260    0.8870 ha        1 MPK      0.151000
@<TRIPOS>BOND
     1    1    2 1   
     2    1   15 1   
     3    1   16 1   
     4    1   17 1   
     5    2    3 2   
     6    2    8 1   
     7    3    4 1   
     8    3    6 1   
     9    4    5 1   
    10    4   18 1   
    11    4   19 1   
    12    5   20 1   
    13    6    7 2   
    14    6    9 1   
    15    7    8 1   
    16    9   10 ar  
    17    9   14 ar  
    18   10   11 ar  
    19   10   21 1   
    20   11   12 ar  
    21   11   22 1   
    22   12   13 ar  
    23   12   23 1   
    24   13   14 ar  
    25   13   24 1   
    26   14   25 1   
@<TRIPOS>SUBSTRUCTURE
     1 MPK         1 TEMP              0 ****  ****    0 ROOT
