@<TRIPOS>MOLECULE
MPL
   28    28     1     0     0
SMALL
bcc


@<TRIPOS>ATOM
      1 P           0.0000    0.0000    0.0000 p5        1 MPL      0.750900
      2 O1P         1.4800    0.0000    0.0000 o         1 MPL     -0.596833
      3 O2P        -0.5370    0.0000    1.5180 o         1 MPL     -0.596833
      4 O3P        -0.5360   -1.3160   -0.7580 o         1 MPL     -0.596833
      5 O4P        -0.5380    1.3130   -0.7590 os        1 MPL     -0.463200
      6 C5A         0.0640    1.3170   -2.0560 c3        1 MPL      0.270700
      7 C5         -0.4000    2.5280   -2.8220 ca        1 MPL      0.023700
      8 N1         -1.6870    4.4940   -2.9060 na        1 MPL      0.588900
      9 C1         -2.6170    5.4150   -2.2490 c3        1 MPL     -0.071400
     10 C6         -1.2760    3.4250   -2.2480 ca        1 MPL     -0.285300
     11 C2         -1.2970    4.7530   -4.1350 ca        1 MPL     -0.421600
     12 C2A        -1.8080    5.9870   -4.8330 c3        1 MPL      0.083200
     13 C3         -0.4140    3.9060   -4.7960 ca        1 MPL      0.247100
     14 O3         -0.0100    4.1810   -6.0610 oh        1 MPL     -0.477100
     15 C4          0.0520    2.7590   -4.1290 ca        1 MPL     -0.336600
     16 C4A         0.9870    1.8300   -4.7820 c         1 MPL      0.682500
     17 O           1.3670    2.0480   -5.9140 o         1 MPL     -0.604100
     18 H51        -0.2240    0.4200   -2.5900 h1        1 MPL      0.037700
     19 H52         1.1420    1.3460   -1.9530 h1        1 MPL      0.037700
     20 H11        -3.5670    5.4010   -2.7680 h1        1 MPL      0.033033
     21 H12        -2.7630    5.1080   -1.2200 h1        1 MPL      0.033033
     22 H13        -2.2080    6.4180   -2.2710 h1        1 MPL      0.033033
     23 H6         -1.6330    3.2510   -1.2400 h4        1 MPL      0.191000
     24 H21        -1.5280    5.9520   -5.8790 hc        1 MPL      0.011367
     25 H22        -2.8870    6.0280   -4.7490 hc        1 MPL      0.011367
     26 H23        -1.3760    6.8670   -4.3730 hc        1 MPL      0.011367
     27 HO3         0.7730    4.7050   -6.0340 ho        1 MPL      0.411000
     28 H           1.3160    0.9380   -4.2620 h4        1 MPL     -0.008800
@<TRIPOS>BOND
     1    1    2 1   
     2    1    3 1   
     3    1    4 1   
     4    1    5 1   
     5    5    6 1   
     6    6    7 1   
     7    6   18 1   
     8    6   19 1   
     9    7   10 ar  
    10    7   15 ar  
    11    8    9 1   
    12    8   10 2   
    13    8   11 1   
    14    9   20 1   
    15    9   21 1   
    16    9   22 1   
    17   10   23 1   
    18   11   12 1   
    19   11   13 ar  
    20   12   24 1   
    21   12   25 1   
    22   12   26 1   
    23   13   14 1   
    24   13   15 ar  
    25   14   27 1   
    26   15   16 1   
    27   16   17 2   
    28   16   28 1   
@<TRIPOS>SUBSTRUCTURE
     1 MPL         1 TEMP              0 ****  ****    0 ROOT
