@<TRIPOS>MOLECULE
MPM
   40    40     1     0     0
SMALL
bcc


@<TRIPOS>ATOM
      1 C4         -0.3440    1.0070    0.1710 ca        1 MPM     -0.164900
      2 C3          0.1740    2.3320    0.2030 ca        1 MPM      0.058800
      3 C5         -1.7300    0.8510    0.0660 ca        1 MPM     -0.149600
      4 C4A         0.5870   -0.1250    0.3390 ce        1 MPM      0.371800
      5 C2         -0.7180    3.4310    0.0820 ca        1 MPM      0.255600
      6 C6         -2.5390    2.0200   -0.0430 ca        1 MPM      0.335200
      7 O1          1.4870    2.6680    0.3650 oh        1 MPM     -0.555100
      8 C5A        -2.4600   -0.4730    0.0460 c3        1 MPM      0.251700
      9 N2          1.5870   -0.3490   -0.4500 n2        1 MPM     -0.499900
     10 N1         -2.0630    3.2660   -0.0470 nb        1 MPM     -0.701000
     11 C2A        -0.1360    4.8040    0.0970 c3        1 MPM     -0.093400
     12 O2         -3.5980   -0.4660    0.8240 os        1 MPM     -0.578200
     13 C           2.5910   -1.2950   -0.1490 c3        1 MPM     -0.050000
     14 P1         -5.1170   -0.5910    0.0210 p5        1 MPM      1.321900
     15 CA2         3.0080   -2.2120   -1.2790 c3        1 MPM      0.010600
     16 CA1         2.5030   -2.0710    1.1420 c3        1 MPM     -0.078100
     17 P2          4.2110   -0.2810    0.2150 p5        1 MPM      1.204700
     18 O3         -4.8510   -1.5470   -1.1140 o         1 MPM     -0.939833
     19 O5         -6.0250   -1.1200    1.1040 o         1 MPM     -0.939833
     20 O4         -5.3850    0.8360   -0.3980 o         1 MPM     -0.939833
     21 O8          3.6980    0.8710    1.0450 o         1 MPM     -0.930500
     22 O6          5.0770   -1.2660    0.9630 o         1 MPM     -0.930500
     23 O7          4.7810    0.0710   -1.1320 o         1 MPM     -0.930500
     24 CA3         2.6130   -1.7860   -2.6720 c3        1 MPM     -0.067100
     25 H4AC        0.3620   -0.7180    1.2520 h4        1 MPM     -0.040200
     26 HC6        -3.6530    1.8600   -0.1310 h4        1 MPM      0.116100
     27 HO1         2.0510    1.8730    0.5480 ho        1 MPM      0.514000
     28 H5A1       -2.7210   -0.7180   -1.0260 h1        1 MPM      0.016700
     29 H5A2       -1.7530   -1.2650    0.4360 h1        1 MPM      0.016700
     30 H2A1        0.5390    4.9310   -0.7860 hc        1 MPM      0.008367
     31 H2A2       -0.9160    5.6030    0.0700 hc        1 MPM      0.008367
     32 H2A3        0.4830    4.9330    1.0200 hc        1 MPM      0.008367
     33 HA21        2.5830   -3.2440   -1.1030 hc        1 MPM      0.002200
     34 HA22        4.1300   -2.3040   -1.2310 hc        1 MPM      0.002200
     35 HA11        3.4170   -2.7090    1.2350 hc        1 MPM      0.016367
     36 HA12        2.5030   -1.3500    1.9980 hc        1 MPM      0.016367
     37 HA13        1.5920   -2.7180    1.2060 hc        1 MPM      0.016367
     38 HA31        3.0340   -0.7740   -2.8960 hc        1 MPM      0.012367
     39 HA32        3.0160   -2.5150   -3.4220 hc        1 MPM      0.012367
     40 HA33        1.5040   -1.7510   -2.7870 hc        1 MPM      0.012367
@<TRIPOS>BOND
     1    1    2 ar  
     2    1    3 ar  
     3    1    4 1   
     4    2    5 ar  
     5    2    7 1   
     6    3    6 ar  
     7    3    8 1   
     8    4    9 2   
     9    4   25 1   
    10    5   10 ar  
    11    5   11 1   
    12    6   10 ar  
    13    6   26 1   
    14    7   27 1   
    15    8   12 1   
    16    8   28 1   
    17    8   29 1   
    18    9   13 1   
    19   11   30 1   
    20   11   31 1   
    21   11   32 1   
    22   12   14 1   
    23   13   15 1   
    24   13   16 1   
    25   13   17 1   
    26   14   18 1   
    27   14   19 1   
    28   14   20 1   
    29   15   24 1   
    30   15   33 1   
    31   15   34 1   
    32   16   35 1   
    33   16   36 1   
    34   16   37 1   
    35   17   21 1   
    36   17   22 1   
    37   17   23 1   
    38   24   38 1   
    39   24   39 1   
    40   24   40 1   
@<TRIPOS>SUBSTRUCTURE
     1 MPM         1 TEMP              0 ****  ****    0 ROOT
