@<TRIPOS>MOLECULE
MPM
   40    40     1     0     0
SMALL
bcc


@<TRIPOS>ATOM
      1 C4         -0.1200   -0.1390   -0.0690 ca        1 MPM     -0.164900
      2 C3          1.2940   -0.1790    0.0720 ca        1 MPM      0.058800
      3 C5         -0.8910   -0.0630    1.0960 ca        1 MPM     -0.149600
      4 C4A        -0.7050   -0.2710   -1.4170 ce        1 MPM      0.371800
      5 C2          1.8660   -0.0930    1.3700 ca        1 MPM      0.255600
      6 C6         -0.2190    0.0130    2.3500 ca        1 MPM      0.335200
      7 O1          2.1910   -0.3180   -0.9470 oh        1 MPM     -0.555100
      8 C5A        -2.4020   -0.0400    1.1430 c3        1 MPM      0.251700
      9 N2         -0.4460    0.5420   -2.3890 n2        1 MPM     -0.499900
     10 N1          1.1070    0.0090    2.4950 nb        1 MPM     -0.701000
     11 C2A         3.3540   -0.1150    1.4770 c3        1 MPM     -0.093400
     12 O2         -2.9160   -0.8420    2.1390 os        1 MPM     -0.578200
     13 C          -0.8320    0.2770   -3.7210 c3        1 MPM     -0.050000
     14 P1         -3.7180   -0.0700    3.4540 p5        1 MPM      1.321900
     15 CA2        -1.4550    1.4290   -4.4810 c3        1 MPM      0.010600
     16 CA1        -1.5660   -1.0040   -4.0300 c3        1 MPM     -0.078100
     17 P2          0.8080   -0.0650   -4.7100 p5        1 MPM      1.204700
     18 O3         -4.4450    1.0830    2.8110 o         1 MPM     -0.939833
     19 O5         -4.6050   -1.1650    3.9930 o         1 MPM     -0.939833
     20 O4         -2.5690    0.3220    4.3530 o         1 MPM     -0.939833
     21 O8          1.5980   -0.9230   -3.7510 o         1 MPM     -0.930500
     22 O6          0.3250   -0.7800   -5.9500 o         1 MPM     -0.930500
     23 O7          1.3850    1.2890   -5.0220 o         1 MPM     -0.930500
     24 CA3        -1.2510    2.8070   -3.8990 c3        1 MPM     -0.067100
     25 H4AC       -1.3380   -1.1800   -1.5120 h4        1 MPM     -0.040200
     26 HC6        -0.8690    0.0790    3.2720 h4        1 MPM      0.116100
     27 HO1         1.7400   -0.4760   -1.8150 ho        1 MPM      0.514000
     28 H5A1       -2.7860   -0.4020    0.1430 h1        1 MPM      0.016700
     29 H5A2       -2.7360    1.0300    1.2910 h1        1 MPM      0.016700
     30 H2A1        3.7480   -1.0290    0.9660 hc        1 MPM      0.008367
     31 H2A2        3.7770    0.7770    0.9520 hc        1 MPM      0.008367
     32 H2A3        3.7100   -0.1110    2.5360 hc        1 MPM      0.008367
     33 HA21       -2.5670    1.2590   -4.5770 hc        1 MPM      0.002200
     34 HA22       -1.0260    1.4070   -5.5220 hc        1 MPM      0.002200
     35 HA11       -1.7170   -1.0680   -5.1360 hc        1 MPM      0.016367
     36 HA12       -0.9260   -1.8690   -3.7240 hc        1 MPM      0.016367
     37 HA13       -2.5570   -1.0790   -3.5160 hc        1 MPM      0.016367
     38 HA31       -1.7150    3.5760   -4.5700 hc        1 MPM      0.012367
     39 HA32       -0.1590    3.0260   -3.8070 hc        1 MPM      0.012367
     40 HA33       -1.7250    2.8970   -2.8930 hc        1 MPM      0.012367
@<TRIPOS>BOND
     1    1    2 ar  
     2    1    3 ar  
     3    1    4 1   
     4    2    5 ar  
     5    2    7 1   
     6    3    6 ar  
     7    3    8 1   
     8    4    9 2   
     9    4   25 1   
    10    5   10 ar  
    11    5   11 1   
    12    6   10 ar  
    13    6   26 1   
    14    7   27 1   
    15    8   12 1   
    16    8   28 1   
    17    8   29 1   
    18    9   13 1   
    19   11   30 1   
    20   11   31 1   
    21   11   32 1   
    22   12   14 1   
    23   13   15 1   
    24   13   16 1   
    25   13   17 1   
    26   14   18 1   
    27   14   19 1   
    28   14   20 1   
    29   15   24 1   
    30   15   33 1   
    31   15   34 1   
    32   16   35 1   
    33   16   36 1   
    34   16   37 1   
    35   17   21 1   
    36   17   22 1   
    37   17   23 1   
    38   24   38 1   
    39   24   39 1   
    40   24   40 1   
@<TRIPOS>SUBSTRUCTURE
     1 MPM         1 TEMP              0 ****  ****    0 ROOT
