@<TRIPOS>MOLECULE
MPM
   40    40     1     0     0
SMALL
bcc


@<TRIPOS>ATOM
      1 C4         -0.1140   -0.1330   -0.0700 ca        1 MPM     -0.164900
      2 C3          1.3010   -0.1750    0.0620 ca        1 MPM      0.058800
      3 C5         -0.8760   -0.0460    1.1000 ca        1 MPM     -0.149600
      4 C4A        -0.7090   -0.2730   -1.4130 ce        1 MPM      0.371800
      5 C2          1.8830   -0.0810    1.3550 ca        1 MPM      0.255600
      6 C6         -0.1950    0.0370    2.3490 ca        1 MPM      0.335200
      7 O1          2.1900   -0.3230   -0.9630 oh        1 MPM     -0.555100
      8 C5A        -2.3870   -0.0190    1.1580 c3        1 MPM      0.251700
      9 N2         -0.4550    0.5320   -2.3930 n2        1 MPM     -0.499900
     10 N1          1.1320    0.0310    2.4850 nb        1 MPM     -0.701000
     11 C2A         3.3710   -0.1050    1.4520 c3        1 MPM     -0.093400
     12 O2         -2.8960   -0.8130    2.1630 os        1 MPM     -0.578200
     13 C          -0.8510    0.2580   -3.7200 c3        1 MPM     -0.050000
     14 P1         -3.6870   -0.0300    3.4790 p5        1 MPM      1.321900
     15 CA2        -1.4770    1.4060   -4.4830 c3        1 MPM      0.010600
     16 CA1        -1.5910   -1.0230   -4.0130 c3        1 MPM     -0.078100
     17 P2          0.7810   -0.0960   -4.7180 p5        1 MPM      1.204700
     18 O3         -4.4150    1.1210    2.8330 o         1 MPM     -0.939833
     19 O5         -4.5720   -1.1190    4.0320 o         1 MPM     -0.939833
     20 O4         -2.5300    0.3660    4.3670 o         1 MPM     -0.939833
     21 O8          1.5750   -0.9490   -3.7580 o         1 MPM     -0.930500
     22 O6          0.2860   -0.8190   -5.9480 o         1 MPM     -0.930500
     23 O7          1.3590    1.2540   -5.0440 o         1 MPM     -0.930500
     24 CA3        -1.2650    2.7870   -3.9130 c3        1 MPM     -0.067100
     25 H4AC       -1.3450   -1.1810   -1.4950 h4        1 MPM     -0.040200
     26 HC6        -0.8380    0.1110    3.2750 h4        1 MPM      0.116100
     27 HO1         1.7330   -0.4880   -1.8270 ho        1 MPM      0.514000
     28 H5A1       -2.7790   -0.3880    0.1640 h1        1 MPM      0.016700
     29 H5A2       -2.7170    1.0520    1.3000 h1        1 MPM      0.016700
     30 H2A1        3.7600   -1.0170    0.9330 hc        1 MPM      0.008033
     31 H2A2        3.7920    0.7890    0.9280 hc        1 MPM      0.008033
     32 H2A3        3.7340   -0.1070    2.5080 hc        1 MPM      0.008033
     33 HA21       -1.0550    1.3750   -5.5270 hc        1 MPM      0.002200
     34 HA22       -2.5900    1.2380   -4.5700 hc        1 MPM      0.002200
     35 HA11       -2.5780   -1.0920   -3.4910 hc        1 MPM      0.016367
     36 HA12       -1.7500   -1.0950   -5.1180 hc        1 MPM      0.016367
     37 HA13       -0.9520   -1.8880   -3.7060 hc        1 MPM      0.016367
     38 HA31       -1.7310    2.8870   -2.9050 hc        1 MPM      0.012367
     39 HA32       -1.7310    3.5530   -4.5870 hc        1 MPM      0.012367
     40 HA33       -0.1710    3.0050   -3.8310 hc        1 MPM      0.012367
@<TRIPOS>BOND
     1    1    2 ar  
     2    1    3 ar  
     3    1    4 1   
     4    2    5 ar  
     5    2    7 1   
     6    3    6 ar  
     7    3    8 1   
     8    4    9 2   
     9    4   25 1   
    10    5   10 ar  
    11    5   11 1   
    12    6   10 ar  
    13    6   26 1   
    14    7   27 1   
    15    8   12 1   
    16    8   28 1   
    17    8   29 1   
    18    9   13 1   
    19   11   30 1   
    20   11   31 1   
    21   11   32 1   
    22   12   14 1   
    23   13   15 1   
    24   13   16 1   
    25   13   17 1   
    26   14   18 1   
    27   14   19 1   
    28   14   20 1   
    29   15   24 1   
    30   15   33 1   
    31   15   34 1   
    32   16   35 1   
    33   16   36 1   
    34   16   37 1   
    35   17   21 1   
    36   17   22 1   
    37   17   23 1   
    38   24   38 1   
    39   24   39 1   
    40   24   40 1   
@<TRIPOS>SUBSTRUCTURE
     1 MPM         1 TEMP              0 ****  ****    0 ROOT
