@<TRIPOS>MOLECULE
MPM
   40    40     1     0     0
SMALL
bcc


@<TRIPOS>ATOM
      1 C4         -0.1160   -0.1390   -0.0710 ca        1 MPM     -0.164900
      2 C3          1.2990   -0.1840    0.0620 ca        1 MPM      0.058800
      3 C5         -0.8780   -0.0570    1.0990 ca        1 MPM     -0.149600
      4 C4A        -0.7090   -0.2710   -1.4150 ce        1 MPM      0.371800
      5 C2          1.8800   -0.0980    1.3550 ca        1 MPM      0.255600
      6 C6         -0.1980    0.0180    2.3490 ca        1 MPM      0.335200
      7 O1          2.1890   -0.3290   -0.9630 oh        1 MPM     -0.555100
      8 C5A        -2.3890   -0.0280    1.1550 c3        1 MPM      0.251700
      9 N2         -0.4530    0.5390   -2.3910 n2        1 MPM     -0.499900
     10 N1          1.1290    0.0090    2.4850 nb        1 MPM     -0.701000
     11 C2A         3.3680   -0.1260    1.4530 c3        1 MPM     -0.093400
     12 O2         -2.9010   -0.8250    2.1560 os        1 MPM     -0.578200
     13 C          -0.8490    0.2730   -3.7200 c3        1 MPM     -0.050000
     14 P1         -3.6910   -0.0480    3.4750 p5        1 MPM      1.321900
     15 CA2        -1.4720    1.4260   -4.4780 c3        1 MPM      0.010600
     16 CA1        -1.5900   -1.0050   -4.0210 c3        1 MPM     -0.078100
     17 P2          0.7840   -0.0790   -4.7180 p5        1 MPM      1.204700
     18 O3         -4.4170    1.1080    2.8340 o         1 MPM     -0.939833
     19 O5         -4.5790   -1.1380    4.0210 o         1 MPM     -0.939833
     20 O4         -2.5340    0.3410    4.3660 o         1 MPM     -0.939833
     21 O8          1.5750   -0.9380   -3.7620 o         1 MPM     -0.930500
     22 O6          0.2890   -0.7940   -5.9530 o         1 MPM     -0.930500
     23 O7          1.3640    1.2720   -5.0370 o         1 MPM     -0.930500
     24 CA3        -1.2580    2.8040   -3.9000 c3        1 MPM     -0.067100
     25 H4AC       -1.3470   -1.1770   -1.5040 h4        1 MPM     -0.040200
     26 HC6        -0.8420    0.0890    3.2740 h4        1 MPM      0.116100
     27 HO1         1.7320   -0.4880   -1.8280 ho        1 MPM      0.514000
     28 H5A1       -2.7180    1.0440    1.3030 h1        1 MPM      0.016700
     29 H5A2       -2.7810   -0.3900    0.1590 h1        1 MPM      0.016700
     30 H2A1        3.7560   -1.0400    0.9370 hc        1 MPM      0.008367
     31 H2A2        3.7920    0.7660    0.9280 hc        1 MPM      0.008367
     32 H2A3        3.7310   -0.1270    2.5090 hc        1 MPM      0.008367
     33 HA21       -1.0490    1.4000   -5.5210 hc        1 MPM      0.002200
     34 HA22       -2.5850    1.2600   -4.5670 hc        1 MPM      0.002200
     35 HA11       -2.5780   -1.0750   -3.5000 hc        1 MPM      0.016367
     36 HA12       -1.7490   -1.0710   -5.1260 hc        1 MPM      0.016367
     37 HA13       -0.9530   -1.8730   -3.7170 hc        1 MPM      0.016367
     38 HA31       -1.7250    2.8990   -2.8910 hc        1 MPM      0.012367
     39 HA32       -1.7230    3.5740   -4.5690 hc        1 MPM      0.012367
     40 HA33       -0.1640    3.0190   -3.8150 hc        1 MPM      0.012367
@<TRIPOS>BOND
     1    1    2 ar  
     2    1    3 ar  
     3    1    4 1   
     4    2    5 ar  
     5    2    7 1   
     6    3    6 ar  
     7    3    8 1   
     8    4    9 2   
     9    4   25 1   
    10    5   10 ar  
    11    5   11 1   
    12    6   10 ar  
    13    6   26 1   
    14    7   27 1   
    15    8   12 1   
    16    8   28 1   
    17    8   29 1   
    18    9   13 1   
    19   11   30 1   
    20   11   31 1   
    21   11   32 1   
    22   12   14 1   
    23   13   15 1   
    24   13   16 1   
    25   13   17 1   
    26   14   18 1   
    27   14   19 1   
    28   14   20 1   
    29   15   24 1   
    30   15   33 1   
    31   15   34 1   
    32   16   35 1   
    33   16   36 1   
    34   16   37 1   
    35   17   21 1   
    36   17   22 1   
    37   17   23 1   
    38   24   38 1   
    39   24   39 1   
    40   24   40 1   
@<TRIPOS>SUBSTRUCTURE
     1 MPM         1 TEMP              0 ****  ****    0 ROOT
