@<TRIPOS>MOLECULE
MPN
   34    34     1     0     0
SMALL
bcc


@<TRIPOS>ATOM
      1 O3P         0.8080   -6.6820   -1.5550 o         1 MPN     -0.740167
      2 P           0.4640   -5.5750   -0.5460 p5        1 MPN      1.370900
      3 O1P        -0.8910   -5.8640    0.0830 o         1 MPN     -0.740167
      4 O2P         1.5570   -5.5260    0.5690 o         1 MPN     -0.740167
      5 O4'         0.4130   -4.2000   -1.2820 os        1 MPN     -0.586200
      6 C4'        -0.1480   -3.0920   -0.6030 c3        1 MPN      0.265400
      7 C3'         0.0370   -1.9130   -1.3850 c3        1 MPN     -0.035900
      8 C2'         1.4870   -1.6120   -1.5570 c         1 MPN      0.220400
      9 S2'         2.6330   -2.6310   -0.8910 s         1 MPN     -0.889400
     10 O3'        -0.7980   -0.6290   -0.7320 os        1 MPN     -0.356600
     11 C7         -0.6190    0.4840   -1.2930 c3        1 MPN      0.384300
     12 C6          0.9430    0.9630   -1.3460 c3        1 MPN      0.110500
     13 C1'         1.8690   -0.0300   -1.8710 c         1 MPN      0.307400
     14 S1'         3.4310    0.3990   -2.2420 s         1 MPN     -0.416400
     15 N5          1.4790    1.3670   -0.1500 nh        1 MPN     -0.674000
     16 N8         -1.5120    1.3780   -0.7050 nh        1 MPN     -0.774200
     17 C10        -0.9970    2.2160    0.4930 ce        1 MPN      0.635500
     18 C9          0.5270    2.1200    0.8530 ce        1 MPN     -0.241700
     19 C4          1.0030    2.7760    1.9170 c1        1 MPN      0.606600
     20 O4          2.1720    2.6220    2.2570 o         1 MPN     -0.608500
     21 N3          0.1440    3.5430    2.7040 n1        1 MPN     -0.652800
     22 C2         -1.2870    3.6340    2.3660 c1        1 MPN      0.574600
     23 N1         -1.8000    2.9430    1.2410 n2        1 MPN     -0.798100
     24 N2         -2.1540    4.4100    3.1740 n3        1 MPN     -0.779400
     25 H4'1       -1.1450   -3.2530   -0.4590 h1        1 MPN      0.043200
     26 H4'2        0.2930   -2.9800    0.2580 h1        1 MPN      0.043200
     27 H3'        -0.3790   -2.1980   -2.2650 h1        1 MPN      0.183700
     28 H7         -0.9010    0.3770   -2.2160 h2        1 MPN      0.089700
     29 H6          0.9800    1.7680   -1.9710 h1        1 MPN      0.036700
     30 H5          2.2460    1.8920   -0.3110 hn        1 MPN      0.418800
     31 H8         -2.2830    0.9260   -0.4580 hn        1 MPN      0.478800
     32 H1         -2.7230    3.0060    1.0250 hn        1 MPN      0.498400
     33 H21        -2.9870    4.6520    2.8570 hn        1 MPN      0.384300
     34 H22        -1.8640    4.7100    4.0430 hn        1 MPN      0.384300
@<TRIPOS>BOND
     1    1    2 1   
     2    2    3 1   
     3    2    4 1   
     4    2    5 1   
     5    5    6 1   
     6    6    7 1   
     7    6   25 1   
     8    6   26 1   
     9    7    8 1   
    10    7   10 1   
    11    7   27 1   
    12    8    9 2   
    13    8   13 1   
    14   10   11 1   
    15   11   12 1   
    16   11   16 1   
    17   11   28 1   
    18   12   13 1   
    19   12   15 1   
    20   12   29 1   
    21   13   14 2   
    22   15   18 1   
    23   15   30 1   
    24   16   17 1   
    25   16   31 1   
    26   17   18 1   
    27   17   23 2   
    28   18   19 2   
    29   19   20 2   
    30   21   22 3   
    31   22   24 1   
    32   23   32 1   
    33   24   33 1   
    34   24   34 1   
@<TRIPOS>SUBSTRUCTURE
     1 MPN         1 TEMP              0 ****  ****    0 ROOT
