@<TRIPOS>MOLECULE
MPN
   34    36     1     0     0
SMALL
bcc


@<TRIPOS>ATOM
      1 O3P         3.6750    0.4950    0.2450 o         1 MPN     -0.848500
      2 P           2.6970    0.3810    1.3600 p5        1 MPN      1.444800
      3 O1P         2.9740    0.0620    2.7720 o         1 MPN     -0.848500
      4 O2P         1.8500    1.7820    1.3160 oh        1 MPN     -0.804400
      5 O4'         1.5210   -0.5670    0.7450 os        1 MPN     -0.598200
      6 C4'         0.3850   -0.8630    1.5130 c3        1 MPN      0.251600
      7 C3'        -0.8600   -0.3070    0.9000 c2        1 MPN     -0.111100
      8 C2'        -1.9000   -1.0270    0.3620 ce        1 MPN      0.098300
      9 S2'        -2.0830   -2.6510    0.3990 s         1 MPN     -0.723300
     10 O3'        -0.9660    1.0810    0.9700 os        1 MPN     -0.377900
     11 C7         -1.2990    1.7320   -0.2680 c3        1 MPN      0.373300
     12 C6         -2.2980    0.9220   -1.1540 c3        1 MPN      0.103500
     13 C1'        -2.9080   -0.2050   -0.3190 c         1 MPN      0.263400
     14 S1'        -4.4540   -0.3210   -0.2580 s         1 MPN     -0.402400
     15 N5         -1.8020    0.5170   -2.4700 nh        1 MPN     -0.647000
     16 N8         -0.0920    2.1780   -0.9590 nh        1 MPN     -0.710000
     17 C10         0.4530    1.2000   -1.8360 cc        1 MPN      0.266000
     18 C9         -0.4000    0.4160   -2.6080 cd        1 MPN     -0.127200
     19 C4          0.1940   -0.5100   -3.6110 c         1 MPN      0.727700
     20 O4         -0.5160   -1.1100   -4.4480 o         1 MPN     -0.627100
     21 N3          1.5820   -0.7100   -3.5980 nc        1 MPN     -0.777100
     22 C2          2.3360   -0.0060   -2.7390 cd        1 MPN      0.841100
     23 N1          1.8510    1.0740   -1.9620 na        1 MPN     -0.696000
     24 N2          3.7360   -0.2330   -2.6770 nh        1 MPN     -0.892800
     25 H4'1        0.5290   -0.4520    2.5530 h1        1 MPN      0.048200
     26 H4'2        0.2680   -1.9860    1.5430 h1        1 MPN      0.048200
     27 H3'         1.0420    1.7560    1.8180 ho        1 MPN      0.439000
     28 H7         -1.8190    2.6770    0.0820 h2        1 MPN      0.063700
     29 H6         -3.1420    1.6410   -1.4050 h1        1 MPN      0.066700
     30 H5         -2.2310   -0.3440   -2.7700 hn        1 MPN      0.400800
     31 H8          0.5790    2.5320   -0.2930 hn        1 MPN      0.416800
     32 H1          2.4010    1.3270   -1.1430 hn        1 MPN      0.489800
     33 H21         3.9860   -1.1460   -2.9900 hn        1 MPN      0.423300
     34 H22         4.1370   -0.0050   -1.7800 hn        1 MPN      0.423300
@<TRIPOS>BOND
     1    1    2 1   
     2    2    3 1   
     3    2    4 1   
     4    2    5 1   
     5    4   27 1   
     6    5    6 1   
     7    6    7 1   
     8    6   25 1   
     9    6   26 1   
    10    7    8 2   
    11    7   10 1   
    12    8    9 1   
    13    8   13 1   
    14   10   11 1   
    15   11   12 1   
    16   11   16 1   
    17   11   28 1   
    18   12   13 1   
    19   12   15 1   
    20   12   29 1   
    21   13   14 2   
    22   15   18 1   
    23   15   30 1   
    24   16   17 1   
    25   16   31 1   
    26   17   18 2   
    27   17   23 1   
    28   18   19 1   
    29   19   20 2   
    30   19   21 1   
    31   21   22 2   
    32   22   23 1   
    33   22   24 1   
    34   23   32 1   
    35   24   33 1   
    36   24   34 1   
@<TRIPOS>SUBSTRUCTURE
     1 MPN         1 TEMP              0 ****  ****    0 ROOT
