@<TRIPOS>MOLECULE
MPO
   27    27     1     0     0
SMALL
bcc


@<TRIPOS>ATOM
      1 S1          0.0990   -0.0960    3.1710 s6        1 MPO      1.427800
      2 O1          0.2150    1.3050    3.3220 o         1 MPO     -0.751867
      3 O2          1.3260   -0.7470    2.8970 o         1 MPO     -0.751867
      4 O4          0.6820   -0.1190   -4.6840 os        1 MPO     -0.429600
      5 N1         -0.4450    0.2050   -2.0510 n3        1 MPO     -0.724600
      6 C1         -0.8870   -0.3260    1.7000 c3        1 MPO     -0.290600
      7 O3         -0.6660   -0.7210    4.1860 o         1 MPO     -0.751867
      8 C2         -0.1620    0.0810    0.4510 c3        1 MPO     -0.039400
      9 C3         -0.9730   -0.2970   -0.7860 c3        1 MPO      0.169800
     10 C4         -1.2450   -0.2580   -3.1780 c3        1 MPO      0.132800
     11 C5         -0.6910    0.2170   -4.5250 c3        1 MPO      0.127400
     12 C6          1.4840    0.3720   -3.6130 c3        1 MPO      0.127400
     13 C7          0.9690   -0.0830   -2.2440 c3        1 MPO      0.132800
     14 H11        -1.1820   -1.4010    1.6410 h1        1 MPO      0.062200
     15 H12        -1.8280    0.2640    1.8080 h1        1 MPO      0.062200
     16 H21         0.0240    1.1880    0.4690 hc        1 MPO      0.055200
     17 H22         0.8370   -0.4330    0.4270 hc        1 MPO      0.055200
     18 H31        -1.0770   -1.4230   -0.8080 h1        1 MPO      0.024200
     19 H32        -2.0090    0.1350   -0.6810 h1        1 MPO      0.024200
     20 H41        -1.3220   -1.3850   -3.2050 h1        1 MPO      0.041450
     21 H42        -2.2840    0.1550   -3.0530 h1        1 MPO      0.041450
     22 H51        -1.2080   -0.3150   -5.3650 h1        1 MPO      0.043450
     23 H52        -0.8180    1.3260   -4.6370 h1        1 MPO      0.043450
     24 H61         2.4990   -0.0610   -3.8070 h1        1 MPO      0.043450
     25 H62         1.5260    1.4920   -3.6690 h1        1 MPO      0.043450
     26 H71         1.5410    0.4720   -1.4490 h1        1 MPO      0.041450
     27 H72         1.1900   -1.1840   -2.1260 h1        1 MPO      0.041450
@<TRIPOS>BOND
     1    1    2 1   
     2    1    3 1   
     3    1    6 1   
     4    1    7 1   
     5    4   11 1   
     6    4   12 1   
     7    5    9 1   
     8    5   10 1   
     9    5   13 1   
    10    6    8 1   
    11    6   14 1   
    12    6   15 1   
    13    8    9 1   
    14    8   16 1   
    15    8   17 1   
    16    9   18 1   
    17    9   19 1   
    18   10   11 1   
    19   10   20 1   
    20   10   21 1   
    21   11   22 1   
    22   11   23 1   
    23   12   13 1   
    24   12   24 1   
    25   12   25 1   
    26   13   26 1   
    27   13   27 1   
@<TRIPOS>SUBSTRUCTURE
     1 MPO         1 TEMP              0 ****  ****    0 ROOT
