@<TRIPOS>MOLECULE
MPO
   27    27     1     0     0
SMALL
bcc


@<TRIPOS>ATOM
      1 S1         -0.1310    0.1250   -0.0650 s6        1 MPO      1.427800
      2 O1          1.2330   -0.0580    0.2600 o         1 MPO     -0.751867
      3 O2         -1.0160   -0.1270    1.0120 o         1 MPO     -0.751867
      4 O4         -1.8720   -7.5370   -0.6090 os        1 MPO     -0.429600
      5 N1         -0.8320   -4.9390   -1.2980 n3        1 MPO     -0.724600
      6 C1         -0.4960   -1.1390   -1.2710 c3        1 MPO     -0.290600
      7 O3         -0.4000    1.3320   -0.7550 o         1 MPO     -0.751867
      8 C2         -0.4800   -2.5200   -0.6820 c3        1 MPO     -0.039400
      9 C3         -0.9690   -3.5430   -1.7040 c3        1 MPO      0.169800
     10 C4         -1.3810   -5.8380   -2.3040 c3        1 MPO      0.132800
     11 C5         -1.2920   -7.3100   -1.8880 c3        1 MPO      0.127400
     12 C6         -1.3070   -6.6990    0.3950 c3        1 MPO      0.127400
     13 C7         -1.3800   -5.2150    0.0230 c3        1 MPO      0.132800
     14 H11        -1.4980   -0.9220   -1.7130 h1        1 MPO      0.062200
     15 H12         0.2480   -1.0660   -2.0990 h1        1 MPO      0.062200
     16 H21        -1.1440   -2.5350    0.2250 hc        1 MPO      0.055200
     17 H22         0.5610   -2.7720   -0.3480 hc        1 MPO      0.055200
     18 H31        -0.3620   -3.4270   -2.6460 h1        1 MPO      0.024200
     19 H32        -2.0430   -3.3000   -1.9610 h1        1 MPO      0.024200
     20 H41        -2.4620   -5.6010   -2.5360 h1        1 MPO      0.041450
     21 H42        -0.7880   -5.6970   -3.2500 h1        1 MPO      0.041450
     22 H51        -0.2240   -7.6550   -1.8780 h1        1 MPO      0.043450
     23 H52        -1.8950   -7.9470   -2.5860 h1        1 MPO      0.043450
     24 H61        -0.2450   -7.0100    0.5800 h1        1 MPO      0.043450
     25 H62        -1.9300   -6.9000    1.3050 h1        1 MPO      0.043450
     26 H71        -0.7720   -4.6330    0.7710 h1        1 MPO      0.041450
     27 H72        -2.4530   -4.8760    0.1080 h1        1 MPO      0.041450
@<TRIPOS>BOND
     1    1    2 1   
     2    1    3 1   
     3    1    6 1   
     4    1    7 1   
     5    4   11 1   
     6    4   12 1   
     7    5    9 1   
     8    5   10 1   
     9    5   13 1   
    10    6    8 1   
    11    6   14 1   
    12    6   15 1   
    13    8    9 1   
    14    8   16 1   
    15    8   17 1   
    16    9   18 1   
    17    9   19 1   
    18   10   11 1   
    19   10   20 1   
    20   10   21 1   
    21   11   22 1   
    22   11   23 1   
    23   12   13 1   
    24   12   24 1   
    25   12   25 1   
    26   13   26 1   
    27   13   27 1   
@<TRIPOS>SUBSTRUCTURE
     1 MPO         1 TEMP              0 ****  ****    0 ROOT
