@<TRIPOS>MOLECULE
MPO
   27    27     1     0     0
SMALL
bcc


@<TRIPOS>ATOM
      1 S1         -0.1350    0.1260   -0.0630 s6        1 MPO      1.427800
      2 O1          1.2310   -0.0540    0.2560 o         1 MPO     -0.751867
      3 O2         -1.0140   -0.1290    1.0170 o         1 MPO     -0.751867
      4 O4         -1.8670   -7.5390   -0.6100 os        1 MPO     -0.429600
      5 N1         -0.8310   -4.9390   -1.2990 n3        1 MPO     -0.724600
      6 C1         -0.5020   -1.1380   -1.2700 c3        1 MPO     -0.290600
      7 O3         -0.4090    1.3330   -0.7510 o         1 MPO     -0.751867
      8 C2         -0.4810   -2.5190   -0.6820 c3        1 MPO     -0.039400
      9 C3         -0.9720   -3.5430   -1.7030 c3        1 MPO      0.169800
     10 C4         -1.3810   -5.8380   -2.3050 c3        1 MPO      0.132800
     11 C5         -1.2890   -7.3090   -1.8900 c3        1 MPO      0.127400
     12 C6         -1.3010   -6.7000    0.3940 c3        1 MPO      0.127400
     13 C7         -1.3760   -5.2160    0.0230 c3        1 MPO      0.132800
     14 H11         0.2400   -1.0630   -2.1000 h1        1 MPO      0.062200
     15 H12        -1.5050   -0.9220   -1.7090 h1        1 MPO      0.062200
     16 H21        -1.1420   -2.5370    0.2270 hc        1 MPO      0.055200
     17 H22         0.5620   -2.7700   -0.3510 hc        1 MPO      0.055200
     18 H31        -0.3670   -3.4250   -2.6470 h1        1 MPO      0.024200
     19 H32        -2.0470   -3.3000   -1.9570 h1        1 MPO      0.024200
     20 H41        -0.7910   -5.6950   -3.2520 h1        1 MPO      0.041450
     21 H42        -2.4620   -5.6020   -2.5340 h1        1 MPO      0.041450
     22 H51        -0.2210   -7.6530   -1.8830 h1        1 MPO      0.043450
     23 H52        -1.8930   -7.9470   -2.5870 h1        1 MPO      0.043450
     24 H61        -1.9220   -6.9030    1.3050 h1        1 MPO      0.043450
     25 H62        -0.2380   -7.0110    0.5760 h1        1 MPO      0.043450
     26 H71        -2.4500   -4.8790    0.1110 h1        1 MPO      0.041450
     27 H72        -0.7670   -4.6340    0.7710 h1        1 MPO      0.041450
@<TRIPOS>BOND
     1    1    2 1   
     2    1    3 1   
     3    1    6 1   
     4    1    7 1   
     5    4   11 1   
     6    4   12 1   
     7    5    9 1   
     8    5   10 1   
     9    5   13 1   
    10    6    8 1   
    11    6   14 1   
    12    6   15 1   
    13    8    9 1   
    14    8   16 1   
    15    8   17 1   
    16    9   18 1   
    17    9   19 1   
    18   10   11 1   
    19   10   20 1   
    20   10   21 1   
    21   11   22 1   
    22   11   23 1   
    23   12   13 1   
    24   12   24 1   
    25   12   25 1   
    26   13   26 1   
    27   13   27 1   
@<TRIPOS>SUBSTRUCTURE
     1 MPO         1 TEMP              0 ****  ****    0 ROOT
