@<TRIPOS>MOLECULE
MPO
   27    27     1     0     0
SMALL
bcc


@<TRIPOS>ATOM
      1 S1         -0.1290    0.1270   -0.0760 s6        1 MPO      1.427800
      2 O1          1.2360   -0.0540    0.2470 o         1 MPO     -0.751867
      3 O2         -1.0110   -0.1220    1.0040 o         1 MPO     -0.751867
      4 O4         -1.8730   -7.5360   -0.6000 os        1 MPO     -0.429600
      5 N1         -0.8320   -4.9400   -1.2960 n3        1 MPO     -0.724600
      6 C1         -0.4960   -1.1400   -1.2790 c3        1 MPO     -0.290600
      7 O3         -0.3990    1.3320   -0.7680 o         1 MPO     -0.751867
      8 C2         -0.4790   -2.5190   -0.6860 c3        1 MPO     -0.039400
      9 C3         -0.9700   -3.5450   -1.7040 c3        1 MPO      0.169800
     10 C4         -1.3830   -5.8420   -2.2990 c3        1 MPO      0.132800
     11 C5         -1.2940   -7.3120   -1.8800 c3        1 MPO      0.127400
     12 C6         -1.3070   -6.6950    0.4020 c3        1 MPO      0.127400
     13 C7         -1.3790   -5.2120    0.0260 c3        1 MPO      0.132800
     14 H11         0.2480   -1.0700   -2.1070 h1        1 MPO      0.062200
     15 H12        -1.4980   -0.9230   -1.7200 h1        1 MPO      0.062200
     16 H21        -1.1430   -2.5330    0.2220 hc        1 MPO      0.055200
     17 H22         0.5620   -2.7710   -0.3520 hc        1 MPO      0.055200
     18 H31        -2.0440   -3.3020   -1.9620 h1        1 MPO      0.024200
     19 H32        -0.3630   -3.4310   -2.6480 h1        1 MPO      0.024200
     20 H41        -2.4630   -5.6050   -2.5310 h1        1 MPO      0.041450
     21 H42        -0.7910   -5.7030   -3.2460 h1        1 MPO      0.041450
     22 H51        -1.8970   -7.9510   -2.5750 h1        1 MPO      0.043450
     23 H52        -0.2260   -7.6570   -1.8700 h1        1 MPO      0.043450
     24 H61        -0.2450   -7.0070    0.5870 h1        1 MPO      0.043450
     25 H62        -1.9300   -6.8940    1.3130 h1        1 MPO      0.043450
     26 H71        -0.7710   -4.6290    0.7730 h1        1 MPO      0.041450
     27 H72        -2.4530   -4.8730    0.1110 h1        1 MPO      0.041450
@<TRIPOS>BOND
     1    1    2 1   
     2    1    3 1   
     3    1    6 1   
     4    1    7 1   
     5    4   11 1   
     6    4   12 1   
     7    5    9 1   
     8    5   10 1   
     9    5   13 1   
    10    6    8 1   
    11    6   14 1   
    12    6   15 1   
    13    8    9 1   
    14    8   16 1   
    15    8   17 1   
    16    9   18 1   
    17    9   19 1   
    18   10   11 1   
    19   10   20 1   
    20   10   21 1   
    21   11   22 1   
    22   11   23 1   
    23   12   13 1   
    24   12   24 1   
    25   12   25 1   
    26   13   26 1   
    27   13   27 1   
@<TRIPOS>SUBSTRUCTURE
     1 MPO         1 TEMP              0 ****  ****    0 ROOT
