@<TRIPOS>MOLECULE
MPP
   28    28     1     0     0
SMALL
bcc


@<TRIPOS>ATOM
      1 CA          0.1010    0.0880   -0.0380 c3        1 MPP     -0.192400
      2 C           1.5980    0.4500    0.0040 c         1 MPP      0.907600
      3 OT1         2.0180    1.1540    0.9680 o         1 MPP     -0.847800
      4 OT2         2.3270    0.0390   -0.9420 o         1 MPP     -0.847800
      5 CB         -0.3980   -0.3170    1.3320 c3        1 MPP     -0.040100
      6 CG         -1.8810   -0.2730    1.4420 ca        1 MPP     -0.026300
      7 CD1        -2.5390    0.9650    1.4220 ca        1 MPP     -0.183000
      8 CD2        -2.6320   -1.4450    1.5730 ca        1 MPP     -0.151000
      9 CE1        -3.9300    1.0280    1.5240 ca        1 MPP      0.102100
     10 OEA        -4.6660    2.2000    1.5060 os        1 MPP     -0.319900
     11 CEA        -3.9080    3.3980    1.3940 c3        1 MPP      0.112700
     12 CE2        -4.0210   -1.3950    1.6870 ca        1 MPP     -0.163000
     13 CZ         -4.6790   -0.1640    1.6660 ca        1 MPP      0.055100
     14 OZA        -6.0500   -0.0220    1.8330 os        1 MPP     -0.318900
     15 CZA        -6.8230   -1.1050    1.3310 c3        1 MPP      0.117700
     16 HA1        -0.4540    0.9910   -0.3980 hc        1 MPP      0.025200
     17 HA2        -0.0630   -0.7350   -0.7750 hc        1 MPP      0.025200
     18 HB1        -0.0260   -1.3480    1.5710 hc        1 MPP      0.060200
     19 HB2         0.0560    0.3850    2.0880 hc        1 MPP      0.060200
     20 HD1        -1.9350    1.8780    1.3130 ha        1 MPP      0.155000
     21 HD2        -2.1220   -2.4190    1.5840 ha        1 MPP      0.131000
     22 HEA1       -3.3380    3.4190    0.4330 h1        1 MPP      0.040367
     23 HEA2       -4.6870    4.2020    1.4080 h1        1 MPP      0.040367
     24 HEA3       -3.2120    3.5110    2.2600 h1        1 MPP      0.040367
     25 HE2        -4.5980   -2.3240    1.7900 ha        1 MPP      0.123000
     26 HZA1       -6.4840   -1.4130    0.3130 h1        1 MPP      0.032033
     27 HZA2       -6.7710   -1.9730    2.0330 h1        1 MPP      0.032033
     28 HZA3       -7.8650   -0.6980    1.2960 h1        1 MPP      0.032033
@<TRIPOS>BOND
     1    1    2 1   
     2    1    5 1   
     3    1   16 1   
     4    1   17 1   
     5    2    3 1   
     6    2    4 1   
     7    5    6 1   
     8    5   18 1   
     9    5   19 1   
    10    6    7 ar  
    11    6    8 ar  
    12    7    9 ar  
    13    7   20 1   
    14    8   12 ar  
    15    8   21 1   
    16    9   10 1   
    17    9   13 ar  
    18   10   11 1   
    19   11   22 1   
    20   11   23 1   
    21   11   24 1   
    22   12   13 ar  
    23   12   25 1   
    24   13   14 1   
    25   14   15 1   
    26   15   26 1   
    27   15   27 1   
    28   15   28 1   
@<TRIPOS>SUBSTRUCTURE
     1 MPP         1 TEMP              0 ****  ****    0 ROOT
