@<TRIPOS>MOLECULE
MPP
   28    28     1     0     0
SMALL
bcc


@<TRIPOS>ATOM
      1 CA          0.1480   -0.5360   -2.6530 c3        1 MPP     -0.192400
      2 C          -0.3000   -0.2270   -4.0950 c         1 MPP      0.907600
      3 OT1        -1.0820    0.7500   -4.2830 o         1 MPP     -0.847800
      4 OT2         0.1240   -0.9820   -5.0150 o         1 MPP     -0.847800
      5 CB          0.5000    0.7340   -1.9110 c3        1 MPP     -0.041100
      6 CG          0.5340    0.5490   -0.4340 ca        1 MPP     -0.025300
      7 CD1        -0.6620    0.3170    0.2600 ca        1 MPP     -0.183000
      8 CD2         1.7370    0.6100    0.2750 ca        1 MPP     -0.152000
      9 CE1        -0.6520    0.1410    1.6450 ca        1 MPP      0.103100
     10 OEA        -1.7770   -0.1010    2.4130 os        1 MPP     -0.319900
     11 CEA        -3.0090   -0.1400    1.7020 c3        1 MPP      0.112700
     12 CE2         1.7590    0.4460    1.6590 ca        1 MPP     -0.163000
     13 CZ          0.5710    0.2140    2.3540 ca        1 MPP      0.054100
     14 OZA         0.4980    0.1020    3.7360 os        1 MPP     -0.318900
     15 CZA         1.6420   -0.4860    4.3420 c3        1 MPP      0.117700
     16 HA1         1.0210   -1.2340   -2.6750 hc        1 MPP      0.025200
     17 HA2        -0.7000   -1.0590   -2.1410 hc        1 MPP      0.025200
     18 HB1        -0.2700    1.5140   -2.1740 hc        1 MPP      0.060200
     19 HB2         1.4930    1.1110   -2.2730 hc        1 MPP      0.060200
     20 HD1        -1.6000    0.2670   -0.3130 ha        1 MPP      0.155000
     21 HD2         2.6790    0.7860   -0.2650 ha        1 MPP      0.131000
     22 HEA1       -3.7660   -0.3320    2.5030 h1        1 MPP      0.040367
     23 HEA2       -3.2080    0.8370    1.1980 h1        1 MPP      0.040367
     24 HEA3       -3.0080   -0.9700    0.9540 h1        1 MPP      0.040367
     25 HE2         2.7120    0.4980    2.2040 ha        1 MPP      0.123000
     26 HZA1        1.2960   -0.7490    5.3730 h1        1 MPP      0.032033
     27 HZA2        1.9750   -1.3980    3.7920 h1        1 MPP      0.032033
     28 HZA3        2.4750    0.2580    4.3920 h1        1 MPP      0.032033
@<TRIPOS>BOND
     1    1    2 1   
     2    1    5 1   
     3    1   16 1   
     4    1   17 1   
     5    2    3 1   
     6    2    4 1   
     7    5    6 1   
     8    5   18 1   
     9    5   19 1   
    10    6    7 ar  
    11    6    8 ar  
    12    7    9 ar  
    13    7   20 1   
    14    8   12 ar  
    15    8   21 1   
    16    9   10 1   
    17    9   13 ar  
    18   10   11 1   
    19   11   22 1   
    20   11   23 1   
    21   11   24 1   
    22   12   13 ar  
    23   12   25 1   
    24   13   14 1   
    25   14   15 1   
    26   15   26 1   
    27   15   27 1   
    28   15   28 1   
@<TRIPOS>SUBSTRUCTURE
     1 MPP         1 TEMP              0 ****  ****    0 ROOT
