@<TRIPOS>MOLECULE
MPP
   28    28     1     0     0
SMALL
bcc


@<TRIPOS>ATOM
      1 CA          0.0950    0.0660   -0.0450 c3        1 MPP     -0.192400
      2 C           1.5930    0.4280   -0.0170 c         1 MPP      0.907600
      3 OT1         2.0170    1.1500    0.9320 o         1 MPP     -0.847800
      4 OT2         2.3170   -0.0010   -0.9590 o         1 MPP     -0.847800
      5 CB         -0.3970   -0.3150    1.3340 c3        1 MPP     -0.041100
      6 CG         -1.8800   -0.2690    1.4500 ca        1 MPP     -0.025300
      7 CD1        -2.5380    0.9690    1.4110 ca        1 MPP     -0.183000
      8 CD2        -2.6300   -1.4380    1.6050 ca        1 MPP     -0.152000
      9 CE1        -3.9280    1.0340    1.5190 ca        1 MPP      0.103100
     10 OEA        -4.6640    2.2050    1.4830 os        1 MPP     -0.319900
     11 CEA        -3.9060    3.4020    1.3490 c3        1 MPP      0.112700
     12 CE2        -4.0180   -1.3860    1.7240 ca        1 MPP     -0.163000
     13 CZ         -4.6770   -0.1560    1.6850 ca        1 MPP      0.054100
     14 OZA        -6.0470   -0.0120    1.8570 os        1 MPP     -0.318900
     15 CZA        -6.8220   -1.0950    1.3610 c3        1 MPP      0.117700
     16 HA1        -0.4620    0.9620   -0.4190 hc        1 MPP      0.025200
     17 HA2        -0.0720   -0.7710   -0.7670 hc        1 MPP      0.025200
     18 HB1        -0.0240   -1.3410    1.5900 hc        1 MPP      0.060200
     19 HB2         0.0600    0.4020    2.0750 hc        1 MPP      0.060200
     20 HD1        -1.9340    1.8800    1.2840 ha        1 MPP      0.155000
     21 HD2        -2.1200   -2.4120    1.6310 ha        1 MPP      0.131000
     22 HEA1       -3.3400    3.4070    0.3860 h1        1 MPP      0.040367
     23 HEA2       -4.6850    4.2050    1.3530 h1        1 MPP      0.040367
     24 HEA3       -3.2070    3.5280    2.2120 h1        1 MPP      0.040367
     25 HE2        -4.5950   -2.3130    1.8470 ha        1 MPP      0.123000
     26 HZA1       -6.4850   -1.4080    0.3440 h1        1 MPP      0.032033
     27 HZA2       -6.7700   -1.9610    2.0670 h1        1 MPP      0.032033
     28 HZA3       -7.8640   -0.6870    1.3250 h1        1 MPP      0.032033
@<TRIPOS>BOND
     1    1    2 1   
     2    1    5 1   
     3    1   16 1   
     4    1   17 1   
     5    2    3 1   
     6    2    4 1   
     7    5    6 1   
     8    5   18 1   
     9    5   19 1   
    10    6    7 ar  
    11    6    8 ar  
    12    7    9 ar  
    13    7   20 1   
    14    8   12 ar  
    15    8   21 1   
    16    9   10 1   
    17    9   13 ar  
    18   10   11 1   
    19   11   22 1   
    20   11   23 1   
    21   11   24 1   
    22   12   13 ar  
    23   12   25 1   
    24   13   14 1   
    25   14   15 1   
    26   15   26 1   
    27   15   27 1   
    28   15   28 1   
@<TRIPOS>SUBSTRUCTURE
     1 MPP         1 TEMP              0 ****  ****    0 ROOT
