@<TRIPOS>MOLECULE
MPQ
   22    22     1     0     0
SMALL
bcc


@<TRIPOS>ATOM
      1 N          -1.5240   -1.3680    1.2610 n3        1 MPQ     -0.796200
      2 CM         -1.5600   -2.1480    0.0470 c3        1 MPQ      0.134100
      3 CA         -0.9050   -0.0460    1.1220 c3        1 MPQ      0.059800
      4 CG          0.4500   -0.0870    0.4720 ca        1 MPQ     -0.020300
      5 CD1         1.6030   -0.1690    1.2610 ca        1 MPQ     -0.122000
      6 CD2         0.5810   -0.0180   -0.9220 ca        1 MPQ     -0.122000
      7 CE1         2.8660   -0.1830    0.6680 ca        1 MPQ     -0.151000
      8 CE2         1.8430   -0.0340   -1.5110 ca        1 MPQ     -0.151000
      9 CZ          2.9890   -0.1180   -0.7190 ca        1 MPQ     -0.159000
     10 C          -1.8230    1.0060    0.4020 c         1 MPQ      0.895600
     11 O          -2.3600    0.6840   -0.6960 o         1 MPQ     -0.834300
     12 OXT        -1.9960    2.1060    0.9910 o         1 MPQ     -0.834300
     13 H          -2.4740   -1.2050    1.5580 hn        1 MPQ      0.344800
     14 HM1        -2.0410   -1.6120   -0.8170 h1        1 MPQ      0.026033
     15 HM2        -0.5090   -2.4120   -0.2450 h1        1 MPQ      0.026033
     16 HM3        -2.1240   -3.0970    0.2500 h1        1 MPQ      0.026033
     17 HA1        -0.7710    0.3250    2.1840 h1        1 MPQ      0.053700
     18 HD11        1.5100   -0.2210    2.3550 ha        1 MPQ      0.152000
     19 HD21       -0.3380    0.0680   -1.5320 ha        1 MPQ      0.152000
     20 HE11        3.7650   -0.2460    1.2960 ha        1 MPQ      0.108000
     21 HE21        1.9360    0.0260   -2.6040 ha        1 MPQ      0.108000
     22 HZ1         3.9820   -0.1280   -1.1850 ha        1 MPQ      0.104000
@<TRIPOS>BOND
     1    1    2 1   
     2    1    3 1   
     3    1   13 1   
     4    2   14 1   
     5    2   15 1   
     6    2   16 1   
     7    3    4 1   
     8    3   10 1   
     9    3   17 1   
    10    4    5 ar  
    11    4    6 ar  
    12    5    7 ar  
    13    5   18 1   
    14    6    8 ar  
    15    6   19 1   
    16    7    9 ar  
    17    7   20 1   
    18    8    9 ar  
    19    8   21 1   
    20    9   22 1   
    21   10   11 1   
    22   10   12 1   
@<TRIPOS>SUBSTRUCTURE
     1 MPQ         1 TEMP              0 ****  ****    0 ROOT
