@<TRIPOS>MOLECULE
MPR
   11    10     1     0     0
SMALL
bcc


@<TRIPOS>ATOM
      1 C1          0.0130    0.0370    0.0190 c         1 MPR      0.566900
      2 O           1.1100   -0.5020   -0.1200 o         1 MPR     -0.518100
      3 C2         -0.7070    0.0830    1.3330 c3        1 MPR     -0.198400
      4 C3         -1.6750    1.2350    1.3970 c3        1 MPR      0.007700
      5 S3         -2.5350    1.0950    2.9380 sh        1 MPR     -0.365900
      6 H1         -0.5150    0.5130   -0.8380 h4        1 MPR     -0.004800
      7 H21         0.0370    0.1520    2.1720 hc        1 MPR      0.092200
      8 H22        -1.2570   -0.8910    1.4590 hc        1 MPR      0.092200
      9 H31        -1.1310    2.2090    1.3400 h1        1 MPR      0.063200
     10 H32        -2.3960    1.1950    0.5450 h1        1 MPR      0.063200
     11 HS3        -3.2930    2.1740    2.8530 hs        1 MPR      0.202800
@<TRIPOS>BOND
     1    1    2 2   
     2    1    3 1   
     3    1    6 1   
     4    3    4 1   
     5    3    7 1   
     6    3    8 1   
     7    4    5 1   
     8    4    9 1   
     9    4   10 1   
    10    5   11 1   
@<TRIPOS>SUBSTRUCTURE
     1 MPR         1 TEMP              0 ****  ****    0 ROOT
