@<TRIPOS>MOLECULE
MPR
   11    10     1     0     0
SMALL
bcc


@<TRIPOS>ATOM
      1 C1          0.0050    0.0130    0.0240 c         1 MPR      0.566900
      2 O           1.0970   -0.5380   -0.1120 o         1 MPR     -0.518100
      3 C2         -0.7090    0.0840    1.3410 c3        1 MPR     -0.198400
      4 C3         -1.6710    1.2410    1.3900 c3        1 MPR      0.007700
      5 S3         -2.5240    1.1300    2.9380 sh        1 MPR     -0.365900
      6 H1         -0.5230    0.4820   -0.8370 h4        1 MPR     -0.004800
      7 H21         0.0390    0.1630    2.1750 hc        1 MPR      0.092200
      8 H22        -1.2630   -0.8860    1.4850 hc        1 MPR      0.092200
      9 H31        -1.1240    2.2110    1.3130 h1        1 MPR      0.063200
     10 H32        -2.3970    1.1900    0.5430 h1        1 MPR      0.063200
     11 HS3        -3.2790    2.2100    2.8380 hs        1 MPR      0.202800
@<TRIPOS>BOND
     1    1    2 2   
     2    1    3 1   
     3    1    6 1   
     4    3    4 1   
     5    3    7 1   
     6    3    8 1   
     7    4    5 1   
     8    4    9 1   
     9    4   10 1   
    10    5   11 1   
@<TRIPOS>SUBSTRUCTURE
     1 MPR         1 TEMP              0 ****  ****    0 ROOT
