@<TRIPOS>MOLECULE
MPR
   11    10     1     0     0
SMALL
bcc


@<TRIPOS>ATOM
      1 C1          0.2340    0.2980   -1.9250 c         1 MPR      0.566900
      2 O          -0.4200    0.1180   -2.9520 o         1 MPR     -0.519100
      3 C2         -0.3760    0.2490   -0.5560 c3        1 MPR     -0.198400
      4 C3          0.6480   -0.0730    0.4990 c3        1 MPR      0.007700
      5 S3         -0.1790    0.0220    2.0610 sh        1 MPR     -0.365900
      6 H1          1.3240    0.5230   -1.9600 h4        1 MPR     -0.004800
      7 H21        -1.2070   -0.5070   -0.5380 hc        1 MPR      0.092200
      8 H22        -0.8410    1.2540   -0.3500 hc        1 MPR      0.092200
      9 H31         1.4960    0.6540    0.4640 h1        1 MPR      0.063200
     10 H32         1.0680   -1.0960    0.3400 h1        1 MPR      0.063200
     11 HS3         0.8250   -0.3170    2.8500 hs        1 MPR      0.202800
@<TRIPOS>BOND
     1    1    2 2   
     2    1    3 1   
     3    1    6 1   
     4    3    4 1   
     5    3    7 1   
     6    3    8 1   
     7    4    5 1   
     8    4    9 1   
     9    4   10 1   
    10    5   11 1   
@<TRIPOS>SUBSTRUCTURE
     1 MPR         1 TEMP              0 ****  ****    0 ROOT
