@<TRIPOS>MOLECULE
MPS
    9     8     1     0     0
SMALL
bcc


@<TRIPOS>ATOM
      1 CM         -0.0320   -1.0700    0.3250 c3        1 MPS     -0.455300
      2 P          -0.4880   -1.2840    1.8790 p5        1 MPS      1.464300
      3 O1          0.5030   -1.7410    2.8430 o         1 MPS     -0.857300
      4 O2         -1.6460   -2.3980    1.8530 oh        1 MPS     -0.797400
      5 HM1        -0.8000   -1.4330   -0.4040 hc        1 MPS      0.111367
      6 HM2         0.1690   -0.0050    0.0550 hc        1 MPS      0.111367
      7 HM3         0.9090   -1.6280    0.0860 hc        1 MPS      0.111367
      8 H          -1.1210   -0.2030    2.1620 hp        1 MPS     -0.166400
      9 HO2        -1.5280   -3.1330    2.4510 ho        1 MPS      0.479000
@<TRIPOS>BOND
     1    1    2 1   
     2    1    5 1   
     3    1    6 1   
     4    1    7 1   
     5    2    3 2   
     6    2    4 1   
     7    2    8 1   
     8    4    9 1   
@<TRIPOS>SUBSTRUCTURE
     1 MPS         1 TEMP              0 ****  ****    0 ROOT
