@<TRIPOS>MOLECULE
MPS
    9     8     1     0     0
SMALL
bcc


@<TRIPOS>ATOM
      1 CM          0.1080    0.0020    0.0070 c3        1 MPS     -0.455300
      2 P           1.7410   -0.0310    0.0440 p5        1 MPS      1.464300
      3 O1          2.4210    0.3170    1.2840 o         1 MPS     -0.857300
      4 O2          2.2320    1.0310   -1.0580 oh        1 MPS     -0.797400
      5 HM1        -0.2930    0.4390   -0.9410 hc        1 MPS      0.111367
      6 HM2        -0.3150    0.6230    0.8380 hc        1 MPS      0.111367
      7 HM3        -0.3670   -1.0040    0.1080 hc        1 MPS      0.111367
      8 H           2.0340   -1.1650   -0.4840 hp        1 MPS     -0.166400
      9 HO2         2.8710    1.6740   -0.7580 ho        1 MPS      0.479000
@<TRIPOS>BOND
     1    1    2 1   
     2    1    5 1   
     3    1    6 1   
     4    1    7 1   
     5    2    3 2   
     6    2    4 1   
     7    2    8 1   
     8    4    9 1   
@<TRIPOS>SUBSTRUCTURE
     1 MPS         1 TEMP              0 ****  ****    0 ROOT
