@<TRIPOS>MOLECULE
MPS
    9     8     1     0     0
SMALL
bcc


@<TRIPOS>ATOM
      1 CM         -1.2170   -0.1560    0.1000 c3        1 MPS     -0.455300
      2 P           0.5990   -0.1560    0.1000 p5        1 MPS      1.464300
      3 O1          1.0920   -0.1560    1.4960 o         1 MPS     -0.857300
      4 O2          1.1260    1.1340   -0.6450 oh        1 MPS     -0.797400
      5 HM1        -1.5420   -0.9510    0.5650 hc        1 MPS      0.111367
      6 HM2        -1.5420    0.6430    0.5560 hc        1 MPS      0.111367
      7 HM3        -1.5420   -0.1620   -0.8200 hc        1 MPS      0.111367
      8 H           1.0380   -1.2320   -0.5210 hp        1 MPS     -0.166400
      9 HO2         1.9880    1.0370   -0.8320 ho        1 MPS      0.479000
@<TRIPOS>BOND
     1    1    2 1   
     2    1    5 1   
     3    1    6 1   
     4    1    7 1   
     5    2    3 2   
     6    2    4 1   
     7    2    8 1   
     8    4    9 1   
@<TRIPOS>SUBSTRUCTURE
     1 MPS         1 TEMP              0 ****  ****    0 ROOT
