@<TRIPOS>MOLECULE
MPT
   11    10     1     0     0
SMALL
bcc


@<TRIPOS>ATOM
      1 CA         -0.0190   -0.0000    0.0220 c3        1 MPT     -0.202400
      2 C           1.5280    0.0000    0.0050 c         1 MPT      0.915600
      3 O           2.1480    0.0000    1.1060 o         1 MPT     -0.845300
      4 CB         -0.5410   -0.0000    1.4250 c3        1 MPT      0.080700
      5 SG         -2.3330   -0.0000    1.3730 sh        1 MPT     -0.485900
      6 OXT         2.0860    0.0000   -1.1280 o         1 MPT     -0.845300
      7 HA1        -0.3720   -0.9050   -0.5340 hc        1 MPT      0.038700
      8 HA2        -0.3720    0.9050   -0.5340 hc        1 MPT      0.038700
      9 HB1        -0.1810    0.9020    1.9720 h1        1 MPT      0.062700
     10 HB2        -0.1810   -0.9020    1.9720 h1        1 MPT      0.062700
     11 HG         -2.5810   -0.0000    2.6670 hs        1 MPT      0.179800
@<TRIPOS>BOND
     1    1    2 1   
     2    1    4 1   
     3    1    7 1   
     4    1    8 1   
     5    2    3 1   
     6    2    6 1   
     7    4    5 1   
     8    4    9 1   
     9    4   10 1   
    10    5   11 1   
@<TRIPOS>SUBSTRUCTURE
     1 MPT         1 TEMP              0 ****  ****    0 ROOT
