@<TRIPOS>MOLECULE
MPT
   11    10     1     0     0
SMALL
bcc


@<TRIPOS>ATOM
      1 CA         -0.1730   -0.5760   -0.0000 c3        1 MPT     -0.202400
      2 C          -1.6080    0.0000    0.0000 c         1 MPT      0.915600
      3 O          -1.7600    1.2550    0.0000 o         1 MPT     -0.845300
      4 CB          0.8470    0.5210    0.0000 c3        1 MPT      0.080700
      5 SG          2.4820   -0.2140    0.0000 sh        1 MPT     -0.485900
      6 OXT        -2.5580   -0.8320   -0.0000 o         1 MPT     -0.845300
      7 HA1        -0.0600   -1.2240    0.9050 hc        1 MPT      0.038700
      8 HA2        -0.0600   -1.2240   -0.9050 hc        1 MPT      0.038700
      9 HB1         0.7240    1.1640   -0.9020 h1        1 MPT      0.062700
     10 HB2         0.7240    1.1640    0.9020 h1        1 MPT      0.062700
     11 HG          3.2070    0.8880    0.0000 hs        1 MPT      0.179800
@<TRIPOS>BOND
     1    1    2 1   
     2    1    4 1   
     3    1    7 1   
     4    1    8 1   
     5    2    3 1   
     6    2    6 1   
     7    4    5 1   
     8    4    9 1   
     9    4   10 1   
    10    5   11 1   
@<TRIPOS>SUBSTRUCTURE
     1 MPT         1 TEMP              0 ****  ****    0 ROOT
