@<TRIPOS>MOLECULE
MPU
   30    31     1     0     0
SMALL
bcc


@<TRIPOS>ATOM
      1 N2         -0.2970    0.8310    0.3530 n         1 MPU     -0.511400
      2 C1          1.1030    1.0970    0.2550 c         1 MPU      0.621000
      3 O11         1.4580    1.8640   -0.6350 o         1 MPU     -0.485500
      4 C10         1.9550    0.4030    1.2590 ca        1 MPU      0.258500
      5 N9          3.3030    0.5820    1.1920 nb        1 MPU     -0.560000
      6 C8          4.0460   -0.0570    2.1090 ca        1 MPU      0.315300
      7 C7          3.4230   -0.8670    3.1310 ca        1 MPU      0.337900
      8 N6          2.1110   -1.0620    3.2130 nb        1 MPU     -0.570000
      9 C5          1.3420   -0.4320    2.2530 ca        1 MPU      0.487000
     10 N4         -0.0540   -0.6330    2.2810 nc        1 MPU     -0.603700
     11 C3         -0.7650   -0.0150    1.3570 cd        1 MPU      0.533800
     12 N13        -2.2460   -0.2680    1.4150 n4        1 MPU     -0.803600
     13 C16         5.5590    0.0300    2.1140 c3        1 MPU      0.055800
     14 O21         6.0940    0.8740    1.1170 oh        1 MPU     -0.575800
     15 C26         6.1810   -1.3630    1.8440 c3        1 MPU      0.122100
     16 O22         6.0110   -1.7530    0.5030 oh        1 MPU     -0.583800
     17 C28         7.6670   -1.3330    2.2350 c3        1 MPU      0.091400
     18 O24         7.7950   -1.3190    3.6400 oh        1 MPU     -0.594800
     19 HN2        -0.9010    1.2660   -0.3120 hn        1 MPU      0.355500
     20 H7          4.0400   -1.3650    3.9070 h4        1 MPU      0.071100
     21 H131       -2.5540   -0.7060    0.5380 hn        1 MPU      0.485800
     22 H132       -2.7420    0.6190    1.5580 hn        1 MPU      0.485800
     23 H16         5.8780    0.3820    3.1400 h1        1 MPU      0.088700
     24 H21         5.7570    1.7680    1.2640 ho        1 MPU      0.430000
     25 H26         5.6370   -2.1430    2.4470 h1        1 MPU      0.072700
     26 H22         6.4490   -1.0910   -0.0530 ho        1 MPU      0.431000
     27 H281        8.1430   -0.3780    1.8800 h1        1 MPU      0.075200
     28 H282        8.1910   -2.2100    1.7720 h1        1 MPU      0.075200
     29 H24         7.7790   -2.2350    3.9430 ho        1 MPU      0.407000
     30 H133       -2.4560   -0.9040    2.2020 hn        1 MPU      0.485800
@<TRIPOS>BOND
     1    1    2 1   
     2    1   11 1   
     3    1   19 1   
     4    2    3 2   
     5    2    4 1   
     6    4    5 ar  
     7    4    9 ar  
     8    5    6 ar  
     9    6    7 ar  
    10    6   13 1   
    11    7    8 ar  
    12    7   20 1   
    13    8    9 ar  
    14    9   10 1   
    15   10   11 2   
    16   11   12 1   
    17   12   21 1   
    18   12   22 1   
    19   12   30 1   
    20   13   14 1   
    21   13   15 1   
    22   13   23 1   
    23   14   24 1   
    24   15   16 1   
    25   15   17 1   
    26   15   25 1   
    27   16   26 1   
    28   17   18 1   
    29   17   27 1   
    30   17   28 1   
    31   18   29 1   
@<TRIPOS>SUBSTRUCTURE
     1 MPU         1 TEMP              0 ****  ****    0 ROOT
