@<TRIPOS>MOLECULE
MPU
   29    30     1     0     0
SMALL
bcc


@<TRIPOS>ATOM
      1 N2          3.4740   -1.1460   -0.0230 n         1 MPU     -0.513400
      2 C1          2.1500   -1.4150    0.3800 c         1 MPU      0.622000
      3 O11         1.8890   -2.5610    0.7680 o         1 MPU     -0.572500
      4 C10         1.2030   -0.2780    0.2810 ca        1 MPU      0.169500
      5 N9         -0.0920   -0.4720    0.6450 nb        1 MPU     -0.552000
      6 C8         -0.9130    0.5830    0.5460 ca        1 MPU      0.218300
      7 C7         -0.4300    1.8520    0.0760 ca        1 MPU      0.348900
      8 N6          0.8280    2.0710   -0.2880 nb        1 MPU     -0.622000
      9 C5          1.6980    0.9940   -0.1940 ca        1 MPU      0.576000
     10 N4          3.0240    1.1810   -0.5720 nc        1 MPU     -0.741700
     11 C3          3.8680    0.1380   -0.4470 cd        1 MPU      0.701800
     12 N13         5.2350    0.3460   -0.7010 nh        1 MPU     -0.898800
     13 C16        -2.3670    0.4600    0.9380 c3        1 MPU      0.081800
     14 O21        -2.5350   -0.0830    2.2320 oh        1 MPU     -0.588800
     15 C26        -3.1580   -0.3810   -0.0860 c3        1 MPU      0.064100
     16 O22        -3.9870   -1.3180    0.5800 oh        1 MPU     -0.595800
     17 C28        -4.0120    0.5140   -0.9880 c3        1 MPU      0.104400
     18 O24        -4.6950   -0.2470   -1.9600 oh        1 MPU     -0.592800
     19 HN2         4.1440   -1.8780    0.0840 hn        1 MPU      0.339500
     20 H7         -1.1130    2.7190    0.0030 h4        1 MPU      0.039100
     21 H131        5.4690    1.2320   -1.0970 hn        1 MPU      0.432800
     22 H132        5.7490   -0.4270   -1.0560 hn        1 MPU      0.432800
     23 H16        -2.8090    1.4960    1.0230 h1        1 MPU      0.082700
     24 H21        -2.2210   -0.9990    2.2160 ho        1 MPU      0.433000
     25 H26        -2.4770   -1.0220   -0.7130 h1        1 MPU      0.106700
     26 H22        -4.4690   -0.8460    1.2730 ho        1 MPU      0.413000
     27 H281       -4.7520    1.0900   -0.3690 h1        1 MPU      0.047700
     28 H282       -3.3680    1.2250   -1.5690 h1        1 MPU      0.047700
     29 H24        -5.0940   -1.0010   -1.5040 ho        1 MPU      0.415000
@<TRIPOS>BOND
     1    1    2 1   
     2    1   11 1   
     3    1   19 1   
     4    2    3 2   
     5    2    4 1   
     6    4    5 ar  
     7    4    9 ar  
     8    5    6 ar  
     9    6    7 ar  
    10    6   13 1   
    11    7    8 ar  
    12    7   20 1   
    13    8    9 ar  
    14    9   10 1   
    15   10   11 2   
    16   11   12 1   
    17   12   21 1   
    18   12   22 1   
    19   13   14 1   
    20   13   15 1   
    21   13   23 1   
    22   14   24 1   
    23   15   16 1   
    24   15   17 1   
    25   15   25 1   
    26   16   26 1   
    27   17   18 1   
    28   17   27 1   
    29   17   28 1   
    30   18   29 1   
@<TRIPOS>SUBSTRUCTURE
     1 MPU         1 TEMP              0 ****  ****    0 ROOT
