@<TRIPOS>MOLECULE
MPV
   21    22     1     0     0
SMALL
bcc


@<TRIPOS>ATOM
      1 C1         -0.0700   -0.0880   -0.0530 cc        1 MPV     -0.346300
      2 C2          1.3410   -0.0270   -0.0570 cd        1 MPV      0.089300
      3 N3          1.7350    0.1050    1.3040 na        1 MPV      0.068400
      4 N4          0.6740    0.0800    2.1290 nd        1 MPV     -0.501800
      5 C5         -0.4430   -0.0190    1.3460 cc        1 MPV      0.411800
      6 C6         -1.7870   -0.0430    1.8440 cc        1 MPV     -0.137600
      7 S7         -3.1250   -0.2150    0.8280 ss        1 MPV      0.018200
      8 C8         -4.2220   -0.1530    2.0820 cc        1 MPV     -0.171100
      9 C9         -3.6010   -0.0020    3.3020 cd        1 MPV     -0.159000
     10 C10        -2.1810    0.0620    3.1670 cd        1 MPV     -0.132000
     11 C11         3.1040    0.0430    1.7450 c3        1 MPV      0.040600
     12 N12         2.2190   -0.1460   -1.1370 nv        1 MPV     -0.779200
     13 H1         -0.7350   -0.1790   -0.9020 ha        1 MPV      0.166000
     14 H8         -5.2970   -0.2270    1.9240 h4        1 MPV      0.169000
     15 H9         -4.1120    0.0620    4.2650 ha        1 MPV      0.152000
     16 H10        -1.4990    0.1790    4.0130 ha        1 MPV      0.165000
     17 H11         3.5600   -0.9370    1.4400 h1        1 MPV      0.056700
     18 H11A        3.1640    0.1470    2.8610 h1        1 MPV      0.056700
     19 H11B        3.6760    0.8820    1.2660 h1        1 MPV      0.056700
     20 HN12        1.7740    0.1190   -1.9920 hn        1 MPV      0.388300
     21 HN1A        3.0870    0.3310   -1.0060 hn        1 MPV      0.388300
@<TRIPOS>BOND
     1    1    2 2   
     2    1    5 1   
     3    1   13 1   
     4    2    3 1   
     5    2   12 1   
     6    3    4 1   
     7    3   11 1   
     8    4    5 2   
     9    5    6 1   
    10    6    7 1   
    11    6   10 2   
    12    7    8 1   
    13    8    9 2   
    14    8   14 1   
    15    9   10 1   
    16    9   15 1   
    17   10   16 1   
    18   11   17 1   
    19   11   18 1   
    20   11   19 1   
    21   12   20 1   
    22   12   21 1   
@<TRIPOS>SUBSTRUCTURE
     1 MPV         1 TEMP              0 ****  ****    0 ROOT
