@<TRIPOS>MOLECULE
MPV
   21    22     1     0     0
SMALL
bcc


@<TRIPOS>ATOM
      1 C1         -0.0680    0.0730   -0.0540 cc        1 MPV     -0.346300
      2 C2          1.3420    0.0130   -0.0550 cd        1 MPV      0.089300
      3 N3          1.7350   -0.1060    1.3070 na        1 MPV      0.068400
      4 N4          0.6730   -0.0750    2.1300 nd        1 MPV     -0.501800
      5 C5         -0.4430    0.0160    1.3450 cc        1 MPV      0.411800
      6 C6         -1.7880    0.0430    1.8410 cc        1 MPV     -0.137600
      7 S7         -3.1250    0.2010    0.8220 ss        1 MPV      0.018200
      8 C8         -4.2230    0.1520    2.0750 cc        1 MPV     -0.171100
      9 C9         -3.6040    0.0150    3.2980 cd        1 MPV     -0.159000
     10 C10        -2.1830   -0.0480    3.1650 cd        1 MPV     -0.132000
     11 C11         3.1040   -0.0380    1.7490 c3        1 MPV      0.040600
     12 N12         2.2220    0.1230   -1.1360 nh        1 MPV     -0.779200
     13 H1         -0.7320    0.1550   -0.9050 ha        1 MPV      0.166000
     14 H8         -5.2980    0.2220    1.9150 h4        1 MPV      0.169000
     15 H9         -4.1150   -0.0400    4.2610 ha        1 MPV      0.152000
     16 H10        -1.5020   -0.1560    4.0130 ha        1 MPV      0.165000
     17 H11         3.6780   -0.8810    1.2780 h1        1 MPV      0.056700
     18 H11A        3.1620   -0.1330    2.8660 h1        1 MPV      0.056700
     19 H11B        3.5590    0.9400    1.4360 h1        1 MPV      0.056700
     20 HN12        3.0910   -0.3520   -0.9990 hn        1 MPV      0.388300
     21 HN1A        1.7780   -0.1490   -1.9890 hn        1 MPV      0.388300
@<TRIPOS>BOND
     1    1    2 2   
     2    1    5 1   
     3    1   13 1   
     4    2    3 1   
     5    2   12 1   
     6    3    4 1   
     7    3   11 1   
     8    4    5 2   
     9    5    6 1   
    10    6    7 1   
    11    6   10 2   
    12    7    8 1   
    13    8    9 2   
    14    8   14 1   
    15    9   10 1   
    16    9   15 1   
    17   10   16 1   
    18   11   17 1   
    19   11   18 1   
    20   11   19 1   
    21   12   20 1   
    22   12   21 1   
@<TRIPOS>SUBSTRUCTURE
     1 MPV         1 TEMP              0 ****  ****    0 ROOT
