@<TRIPOS>MOLECULE
MPV
   22    23     1     0     0
SMALL
bcc


@<TRIPOS>ATOM
      1 C1         -0.1020   -0.0000   -0.0770 cc        1 MPV     -0.202300
      2 C2          1.3120   -0.0000   -0.0530 cd        1 MPV     -0.167700
      3 N3          1.7140   -0.0010    1.3080 na        1 MPV      0.137400
      4 N4          0.6520   -0.0020    2.1060 nd        1 MPV     -0.421800
      5 C5         -0.4810   -0.0010    1.3170 cc        1 MPV      0.454800
      6 C6         -1.8170   -0.0020    1.8240 cc        1 MPV     -0.227600
      7 S7         -3.1860   -0.0020    0.8370 ss        1 MPV      0.048200
      8 C8         -4.2440   -0.0030    2.1190 cc        1 MPV     -0.126100
      9 C9         -3.5900   -0.0030    3.3350 cd        1 MPV     -0.158000
     10 C10        -2.1750   -0.0030    3.1680 cd        1 MPV     -0.080000
     11 C11         3.0890   -0.0010    1.7540 c3        1 MPV      0.011600
     12 N12         2.2090    0.0010   -1.1810 n4        1 MPV     -0.662000
     13 H1         -0.7660   -0.0000   -0.9360 ha        1 MPV      0.194000
     14 H8         -5.3280   -0.0030    1.9880 h4        1 MPV      0.191000
     15 H9         -4.0780   -0.0040    4.3130 ha        1 MPV      0.175000
     16 H10        -1.4710   -0.0030    4.0060 ha        1 MPV      0.173000
     17 H11         3.6020    0.9210    1.3700 h1        1 MPV      0.083033
     18 H11A        3.1320   -0.0020    2.8790 h1        1 MPV      0.083033
     19 H11B        3.6020   -0.9230    1.3690 h1        1 MPV      0.083033
     20 HN12        2.8030    0.8400   -1.1650 hn        1 MPV      0.469800
     21 HN1A        2.8040   -0.8380   -1.1670 hn        1 MPV      0.469800
     22 H123        1.6410    0.0010   -2.0390 hn        1 MPV      0.469800
@<TRIPOS>BOND
     1    1    2 2   
     2    1    5 1   
     3    1   13 1   
     4    2    3 1   
     5    2   12 1   
     6    3    4 1   
     7    3   11 1   
     8    4    5 2   
     9    5    6 1   
    10    6    7 1   
    11    6   10 2   
    12    7    8 1   
    13    8    9 2   
    14    8   14 1   
    15    9   10 1   
    16    9   15 1   
    17   10   16 1   
    18   11   17 1   
    19   11   18 1   
    20   11   19 1   
    21   12   20 1   
    22   12   21 1   
    23   12   22 1   
@<TRIPOS>SUBSTRUCTURE
     1 MPV         1 TEMP              0 ****  ****    0 ROOT
