@<TRIPOS>MOLECULE
MPV
   21    22     1     0     0
SMALL
bcc


@<TRIPOS>ATOM
      1 C1         -0.9820   -1.1140    0.0840 cc        1 MPV     -0.346300
      2 C2         -2.3460   -0.7500    0.0590 cd        1 MPV      0.089300
      3 N3         -2.3760    0.6680   -0.0590 na        1 MPV      0.068400
      4 N4         -1.1370    1.1880   -0.0580 nd        1 MPV     -0.501800
      5 C5         -0.2600    0.1410    0.0100 cc        1 MPV      0.411800
      6 C6          1.1680    0.2720    0.0020 cc        1 MPV     -0.137600
      7 S7          2.1990   -1.0580    0.1390 ss        1 MPV      0.018200
      8 C8          3.5830   -0.1320    0.0520 cc        1 MPV     -0.171100
      9 C9          3.2970    1.2090   -0.0830 cd        1 MPV     -0.159000
     10 C10         1.8890    1.4480   -0.1120 cd        1 MPV     -0.132000
     11 C11        -3.5810    1.4490    0.0400 c3        1 MPV      0.040600
     12 N12        -3.4720   -1.5660    0.1960 nh        1 MPV     -0.779200
     13 H1         -0.5590   -2.1070    0.1540 ha        1 MPV      0.166000
     14 H8          4.5810   -0.5640    0.0990 h4        1 MPV      0.169000
     15 H9          4.0390    2.0070   -0.1590 ha        1 MPV      0.152000
     16 H10         1.4480    2.4430   -0.2120 ha        1 MPV      0.165000
     17 H11        -4.0770    1.2630    1.0300 h1        1 MPV      0.056700
     18 H11A       -3.3520    2.5430   -0.0590 h1        1 MPV      0.056700
     19 H11B       -4.2780    1.1430   -0.7860 h1        1 MPV      0.056700
     20 HN12       -3.2710   -2.5050   -0.0830 hn        1 MPV      0.388300
     21 HN1A       -4.2870   -1.2090   -0.2580 hn        1 MPV      0.388300
@<TRIPOS>BOND
     1    1    2 2   
     2    1    5 1   
     3    1   13 1   
     4    2    3 1   
     5    2   12 1   
     6    3    4 1   
     7    3   11 1   
     8    4    5 2   
     9    5    6 1   
    10    6    7 1   
    11    6   10 2   
    12    7    8 1   
    13    8    9 2   
    14    8   14 1   
    15    9   10 1   
    16    9   15 1   
    17   10   16 1   
    18   11   17 1   
    19   11   18 1   
    20   11   19 1   
    21   12   20 1   
    22   12   21 1   
@<TRIPOS>SUBSTRUCTURE
     1 MPV         1 TEMP              0 ****  ****    0 ROOT
