@<TRIPOS>MOLECULE
MPW
   33    35     1     0     0
SMALL
bcc


@<TRIPOS>ATOM
      1 O           0.3260    1.1230   -0.2090 os        1 MPW     -0.319900
      2 C1          6.7130   -0.5750    5.7780 ca        1 MPW     -0.033900
      3 N1          8.7260   -2.0540    5.9910 nb        1 MPW     -0.659000
      4 C2          6.9420   -0.0270    7.0480 ca        1 MPW     -0.036000
      5 N2          7.1800   -1.9550    4.0230 na        1 MPW     -0.384000
      6 C3          8.0400   -0.4960    7.7550 ca        1 MPW     -0.270300
      7 N3          3.6630   -1.3740    0.1720 nb        1 MPW     -0.702000
      8 C4          8.8840   -1.4890    7.1950 ca        1 MPW      0.409200
      9 N4          5.7250   -0.3460    4.8070 nc        1 MPW     -0.567100
     10 C5          7.6470   -1.5950    5.2950 ca        1 MPW      0.397800
     11 C6          6.0240   -1.1730    3.7810 cd        1 MPW      0.425800
     12 C7          4.0770   -0.3970    2.4240 c3        1 MPW     -0.123700
     13 C8          3.2930   -0.5030    1.1460 ca        1 MPW      0.435600
     14 C9          2.9140   -1.4160   -0.9430 ca        1 MPW      0.433200
     15 C10         1.7770   -0.6210   -1.1680 ca        1 MPW     -0.328300
     16 C11         1.4070    0.2730   -0.1550 ca        1 MPW      0.163100
     17 C12        -0.4570    1.0660   -1.3990 c3        1 MPW      0.111700
     18 C13         2.1710    0.3410    1.0250 ca        1 MPW     -0.276300
     19 C14         5.2760   -1.3180    2.4930 c3        1 MPW     -0.086700
     20 HN2         7.5810   -2.6210    3.4180 hn        1 MPW      0.316700
     21 H3          8.2690   -0.1030    8.7550 ha        1 MPW      0.144000
     22 H4          9.7570   -1.8550    7.7670 h4        1 MPW      0.023100
     23 H7          4.4130    0.6700    2.5350 hc        1 MPW      0.075700
     24 H7A         3.3790   -0.6190    3.2770 hc        1 MPW      0.075700
     25 H9          3.2480   -2.1370   -1.7110 h4        1 MPW      0.021100
     26 H10         1.2140   -0.7090   -2.1040 ha        1 MPW      0.148000
     27 H12        -1.2590    1.8260   -1.2170 h1        1 MPW      0.048367
     28 H12A       -0.8980    0.0480   -1.5300 h1        1 MPW      0.048367
     29 H12B        0.1590    1.3450   -2.2880 h1        1 MPW      0.048367
     30 H13         1.8930    1.0360    1.8280 ha        1 MPW      0.162000
     31 H14         5.9790   -1.0970    1.6440 hc        1 MPW      0.074700
     32 H14A        4.9430   -2.3880    2.3910 hc        1 MPW      0.074700
     33 H2          6.2730    0.7420    7.4590 ha        1 MPW      0.151000
@<TRIPOS>BOND
     1    1   16 1   
     2    1   17 1   
     3    2    4 ar  
     4    2    9 1   
     5    2   10 ar  
     6    3    8 ar  
     7    3   10 ar  
     8    4    6 ar  
     9    4   33 1   
    10    5   10 1   
    11    5   11 1   
    12    5   20 1   
    13    6    8 ar  
    14    6   21 1   
    15    7   13 ar  
    16    7   14 ar  
    17    8   22 1   
    18    9   11 2   
    19   11   19 1   
    20   12   13 1   
    21   12   19 1   
    22   12   23 1   
    23   12   24 1   
    24   13   18 ar  
    25   14   15 ar  
    26   14   25 1   
    27   15   16 ar  
    28   15   26 1   
    29   16   18 ar  
    30   17   27 1   
    31   17   28 1   
    32   17   29 1   
    33   18   30 1   
    34   19   31 1   
    35   19   32 1   
@<TRIPOS>SUBSTRUCTURE
     1 MPW         1 TEMP              0 ****  ****    0 ROOT
