@<TRIPOS>MOLECULE
MPW
   33    35     1     0     0
SMALL
bcc


@<TRIPOS>ATOM
      1 O           5.3670    0.6240    1.4190 os        1 MPW     -0.319900
      2 C1         -3.5080    0.2180    0.6520 ca        1 MPW     -0.033900
      3 N1         -5.2040   -0.4830   -1.0570 nb        1 MPW     -0.659000
      4 C2         -4.5200    0.5680    1.5570 ca        1 MPW     -0.036000
      5 N2         -2.7170   -0.5670   -1.3390 na        1 MPW     -0.384000
      6 C3         -5.8330    0.3890    1.1460 ca        1 MPW     -0.270300
      7 N3          2.5310   -0.5420   -1.4290 nb        1 MPW     -0.702000
      8 C4         -6.1170   -0.1290   -0.1440 ca        1 MPW      0.409200
      9 N4         -2.1070    0.2640    0.7250 nc        1 MPW     -0.567100
     10 C5         -3.9130   -0.3080   -0.6550 ca        1 MPW      0.397800
     11 C6         -1.6650   -0.2050   -0.4620 cd        1 MPW      0.425800
     12 C7          0.7330    0.0780    0.1780 c3        1 MPW     -0.123700
     13 C8          2.1780   -0.0600   -0.2090 ca        1 MPW      0.435600
     14 C9          3.8410   -0.6380   -1.7050 ca        1 MPW      0.433200
     15 C10         4.8700   -0.2740   -0.8200 ca        1 MPW     -0.328300
     16 C11         4.4930    0.2220    0.4350 ca        1 MPW      0.163100
     17 C12         6.7530    0.5160    1.1090 c3        1 MPW      0.111700
     18 C13         3.1270    0.3350    0.7550 ca        1 MPW     -0.276300
     19 C14        -0.2410   -0.3610   -0.8950 c3        1 MPW     -0.086700
     20 HN2        -2.6290   -0.9290   -2.2500 hn        1 MPW      0.316700
     21 H3         -6.6660    0.6460    1.8130 ha        1 MPW      0.144000
     22 H4         -7.1680   -0.2670   -0.4610 h4        1 MPW      0.023100
     23 H7          0.5660   -0.5270    1.1110 hc        1 MPW      0.075700
     24 H7A         0.5470    1.1550    0.4400 hc        1 MPW      0.075700
     25 H9          4.0860   -1.0350   -2.7080 h4        1 MPW      0.021100
     26 H10         5.9200   -0.3790   -1.1150 ha        1 MPW      0.148000
     27 H12         7.0300   -0.5480    0.9120 h1        1 MPW      0.048367
     28 H12A        7.0110    1.1580    0.2320 h1        1 MPW      0.048367
     29 H12B        7.2560    0.8910    2.0360 h1        1 MPW      0.048367
     30 H13         2.8160    0.7210    1.7340 ha        1 MPW      0.162000
     31 H14        -0.0620   -1.4400   -1.1550 hc        1 MPW      0.074700
     32 H14A       -0.0810    0.2460   -1.8280 hc        1 MPW      0.074700
     33 H2         -4.2730    0.9670    2.5510 ha        1 MPW      0.151000
@<TRIPOS>BOND
     1    1   16 1   
     2    1   17 1   
     3    2    4 ar  
     4    2    9 1   
     5    2   10 ar  
     6    3    8 ar  
     7    3   10 ar  
     8    4    6 ar  
     9    4   33 1   
    10    5   10 1   
    11    5   11 1   
    12    5   20 1   
    13    6    8 ar  
    14    6   21 1   
    15    7   13 ar  
    16    7   14 ar  
    17    8   22 1   
    18    9   11 2   
    19   11   19 1   
    20   12   13 1   
    21   12   19 1   
    22   12   23 1   
    23   12   24 1   
    24   13   18 ar  
    25   14   15 ar  
    26   14   25 1   
    27   15   16 ar  
    28   15   26 1   
    29   16   18 ar  
    30   17   27 1   
    31   17   28 1   
    32   17   29 1   
    33   18   30 1   
    34   19   31 1   
    35   19   32 1   
@<TRIPOS>SUBSTRUCTURE
     1 MPW         1 TEMP              0 ****  ****    0 ROOT
