@<TRIPOS>MOLECULE
MPW
   33    35     1     0     0
SMALL
bcc


@<TRIPOS>ATOM
      1 O           0.3610    1.1730   -0.2280 os        1 MPW     -0.319900
      2 C1          6.7490   -0.5460    5.7520 ca        1 MPW     -0.033900
      3 N1          8.5840   -2.2210    6.0870 nb        1 MPW     -0.659000
      4 C2          7.0350    0.0610    6.9830 ca        1 MPW     -0.036000
      5 N2          7.0620   -2.0900    4.1020 na        1 MPW     -0.384000
      6 C3          8.0740   -0.4750    7.7310 ca        1 MPW     -0.270300
      7 N3          3.6660   -1.3640    0.1660 nb        1 MPW     -0.702000
      8 C4          8.8030   -1.5930    7.2500 ca        1 MPW      0.409200
      9 N4          5.7940   -0.2780    4.7580 nc        1 MPW     -0.567100
     10 C5          7.5640   -1.6960    5.3500 ca        1 MPW      0.397800
     11 C6          6.0000   -1.2040    3.7960 cd        1 MPW      0.425800
     12 C7          4.1230   -0.3450    2.3910 c3        1 MPW     -0.123700
     13 C8          3.3200   -0.4690    1.1270 ca        1 MPW      0.435600
     14 C9          2.9050   -1.4150   -0.9400 ca        1 MPW      0.433200
     15 C10         1.7780   -0.6090   -1.1690 ca        1 MPW     -0.328300
     16 C11         1.4310    0.3100   -0.1690 ca        1 MPW      0.163100
     17 C12        -0.4350    1.1050   -1.4080 c3        1 MPW      0.111700
     18 C13         2.2080    0.3880    1.0020 ca        1 MPW     -0.276300
     19 C14         5.2460   -1.3530    2.5120 c3        1 MPW     -0.086700
     20 HN2         7.3880   -2.8370    3.5490 hn        1 MPW      0.316700
     21 H3          8.3430   -0.0410    8.7030 ha        1 MPW      0.144000
     22 H4          9.6290   -2.0120    7.8540 h4        1 MPW      0.023100
     23 H7          4.5450    0.6970    2.4290 hc        1 MPW      0.075700
     24 H7A         3.4200   -0.4540    3.2610 hc        1 MPW      0.075700
     25 H9          3.2210   -2.1560   -1.6970 h4        1 MPW      0.021100
     26 H10         1.2040   -0.7070   -2.0970 ha        1 MPW      0.148000
     27 H12        -1.2240    1.8800   -1.2330 h1        1 MPW      0.048367
     28 H12A       -0.8920    0.0910   -1.5150 h1        1 MPW      0.048367
     29 H12B        0.1750    1.3580   -2.3090 h1        1 MPW      0.048367
     30 H13         1.9490    1.1030    1.7940 ha        1 MPW      0.162000
     31 H14         5.9660   -1.2300    1.6580 hc        1 MPW      0.075200
     32 H14A        4.8290   -2.3960    2.4590 hc        1 MPW      0.075200
     33 H2          6.4550    0.9260    7.3330 ha        1 MPW      0.151000
@<TRIPOS>BOND
     1    1   16 1   
     2    1   17 1   
     3    2    4 ar  
     4    2    9 1   
     5    2   10 ar  
     6    3    8 ar  
     7    3   10 ar  
     8    4    6 ar  
     9    4   33 1   
    10    5   10 1   
    11    5   11 1   
    12    5   20 1   
    13    6    8 ar  
    14    6   21 1   
    15    7   13 ar  
    16    7   14 ar  
    17    8   22 1   
    18    9   11 2   
    19   11   19 1   
    20   12   13 1   
    21   12   19 1   
    22   12   23 1   
    23   12   24 1   
    24   13   18 ar  
    25   14   15 ar  
    26   14   25 1   
    27   15   16 ar  
    28   15   26 1   
    29   16   18 ar  
    30   17   27 1   
    31   17   28 1   
    32   17   29 1   
    33   18   30 1   
    34   19   31 1   
    35   19   32 1   
@<TRIPOS>SUBSTRUCTURE
     1 MPW         1 TEMP              0 ****  ****    0 ROOT
