@<TRIPOS>MOLECULE
MPX
   42    43     1     0     0
SMALL
bcc


@<TRIPOS>ATOM
      1 C1         -0.8210   -0.8510   -0.1230 ca        1 MPX     -0.544500
      2 C2          0.3980   -1.4750    0.2060 ca        1 MPX      0.046000
      3 C3          1.5260   -0.7500    0.5600 ca        1 MPX     -0.182500
      4 C4          1.4780    0.6610    0.6070 ca        1 MPX      0.155600
      5 C5          0.2570    1.3070    0.2560 ca        1 MPX     -0.182500
      6 C6         -0.8510    0.5610   -0.0930 ca        1 MPX      0.046000
      7 N10         2.5590    1.4810    0.9700 n         1 MPX     -0.376100
      8 C16         3.7780    1.0540    1.4460 c         1 MPX      0.306400
      9 S25         4.3920   -0.3450    1.6980 s         1 MPX     -0.085400
     10 N17         4.7700    2.2160    1.7620 n4        1 MPX     -0.428600
     11 N18         4.2150    3.2840    2.5250 n3        1 MPX     -0.524400
     12 C23         4.9630    4.5550    2.3410 c3        1 MPX      0.115300
     13 C22         4.3510    5.6970    3.1830 c3        1 MPX      0.177800
     14 N21         4.2650    5.3370    4.5850 n3        1 MPX     -0.743600
     15 C24         3.8580    6.4270    5.4440 c3        1 MPX      0.154100
     16 C20         3.4920    4.1240    4.7720 c3        1 MPX      0.177800
     17 C19         4.0820    2.9460    3.9640 c3        1 MPX      0.115300
     18 S7         -2.1680   -1.7100   -0.3730 sy        1 MPX      1.482200
     19 N15        -2.0540   -1.9140   -2.2620 n4        1 MPX     -0.794500
     20 O14        -2.0670   -3.0270    0.0160 o         1 MPX     -0.548800
     21 O13        -3.3250   -0.9710   -0.2810 o         1 MPX     -0.548800
     22 H2          0.4600   -2.5830    0.2110 ha        1 MPX      0.186000
     23 H3          2.4510   -1.3050    0.8150 ha        1 MPX      0.189000
     24 H5          0.1740    2.4090    0.2720 ha        1 MPX      0.189000
     25 H6         -1.7980    1.0890   -0.3290 ha        1 MPX      0.186000
     26 H10         2.3500    2.4670    0.9660 hn        1 MPX      0.368500
     27 H17         5.5800    1.7480    2.2310 hn        1 MPX      0.460800
     28 H231        4.8900    4.8580    1.2580 h1        1 MPX      0.075200
     29 H232        6.0510    4.4450    2.6220 h1        1 MPX      0.075200
     30 H221        3.3500    5.9770    2.7430 h1        1 MPX      0.069450
     31 H222        5.0410    6.5840    3.0810 h1        1 MPX      0.069450
     32 H241        3.9200    6.0830    6.5110 h1        1 MPX      0.058033
     33 H242        4.5720    7.2810    5.3000 h1        1 MPX      0.058033
     34 H243        2.8140    6.7850    5.2360 h1        1 MPX      0.058033
     35 H201        2.4070    4.2520    4.4890 h1        1 MPX      0.069450
     36 H202        3.5410    3.8320    5.8600 h1        1 MPX      0.069450
     37 H191        5.0750    2.6600    4.4200 h1        1 MPX      0.075200
     38 H192        3.3730    2.0770    4.0580 h1        1 MPX      0.075200
     39 H151       -2.8790   -1.5130   -2.7120 hn        1 MPX      0.464133
     40 H152       -2.0260   -2.9050   -2.5110 hn        1 MPX      0.464133
     41 H172        5.0960    2.6080    0.8620 hn        1 MPX      0.460800
     42 H153       -1.2360   -1.4710   -2.6710 hn        1 MPX      0.464133
@<TRIPOS>BOND
     1    1    2 ar  
     2    1    6 ar  
     3    1   18 1   
     4    2    3 ar  
     5    2   22 1   
     6    3    4 ar  
     7    3   23 1   
     8    4    5 ar  
     9    4    7 1   
    10    5    6 ar  
    11    5   24 1   
    12    6   25 1   
    13    7    8 1   
    14    7   26 1   
    15    8    9 2   
    16    8   10 1   
    17   10   11 1   
    18   10   27 1   
    19   10   41 1   
    20   11   12 1   
    21   11   17 1   
    22   12   13 1   
    23   12   28 1   
    24   12   29 1   
    25   13   14 1   
    26   13   30 1   
    27   13   31 1   
    28   14   15 1   
    29   14   16 1   
    30   15   32 1   
    31   15   33 1   
    32   15   34 1   
    33   16   17 1   
    34   16   35 1   
    35   16   36 1   
    36   17   37 1   
    37   17   38 1   
    38   18   19 1   
    39   18   20 2   
    40   18   21 2   
    41   19   39 1   
    42   19   40 1   
    43   19   42 1   
@<TRIPOS>SUBSTRUCTURE
     1 MPX         1 TEMP              0 ****  ****    0 ROOT
