@<TRIPOS>MOLECULE
MPX
   43    44     1     0     0
SMALL
bcc


@<TRIPOS>ATOM
      1 C1         -0.8100   -0.8850   -0.4340 ca        1 MPX     -0.410500
      2 C2          0.4270   -0.7070   -1.0730 ca        1 MPX      0.029500
      3 C3          1.4540    0.0320   -0.4820 ca        1 MPX     -0.113000
      4 C4          1.2420    0.6100    0.7820 ca        1 MPX      0.026600
      5 C5          0.0050    0.4640    1.4330 ca        1 MPX     -0.113000
      6 C6         -1.0040   -0.2810    0.8180 ca        1 MPX      0.029500
      7 N10         2.3000    1.4380    1.3960 n4        1 MPX     -0.480200
      8 C16         3.2840    0.6500    2.2250 c         1 MPX     -0.020600
      9 S25         3.1380   -0.7800    2.6640 s         1 MPX      0.350600
     10 N17         4.4980    1.4880    2.6090 n4        1 MPX     -0.414600
     11 N18         4.1780    2.8480    2.9780 n3        1 MPX     -0.530400
     12 C23         5.1940    3.8090    2.4740 c3        1 MPX      0.097300
     13 C22         4.8730    5.2600    2.9220 c3        1 MPX      0.187300
     14 N21         4.7380    5.3350    4.3590 n3        1 MPX     -0.752600
     15 C24         4.7230    6.6740    4.9050 c3        1 MPX      0.157100
     16 C20         3.6870    4.4660    4.8350 c3        1 MPX      0.187300
     17 C19         3.9710    2.9920    4.4410 c3        1 MPX      0.097300
     18 S7         -1.9480   -1.9490   -1.0560 sy        1 MPX      1.442200
     19 N15        -2.9830   -0.8050   -2.0990 n4        1 MPX     -0.811500
     20 O14        -1.3820   -2.7570   -2.0100 o         1 MPX     -0.512800
     21 O13        -2.8420   -2.3220   -0.0840 o         1 MPX     -0.512800
     22 H2          0.6210   -1.1840   -2.0600 ha        1 MPX      0.214000
     23 H3          2.4080    0.1430   -1.0310 ha        1 MPX      0.192500
     24 H5         -0.2010    0.9210    2.4200 ha        1 MPX      0.192500
     25 H6         -1.9670   -0.4140    1.3600 ha        1 MPX      0.214000
     26 H10         2.7900    1.9460    0.6400 hn        1 MPX      0.491800
     27 H17         5.1500    1.5020    1.8010 hn        1 MPX      0.479300
     28 H231        5.1760    3.7880    1.3480 h1        1 MPX      0.083700
     29 H232        6.2340    3.5550    2.8370 h1        1 MPX      0.083700
     30 H221        5.7470    5.8990    2.6000 h1        1 MPX      0.079700
     31 H222        3.9530    5.6120    2.3700 h1        1 MPX      0.079700
     32 H241        5.6490    7.2100    4.5630 h1        1 MPX      0.069367
     33 H242        3.8200    7.2630    4.5890 h1        1 MPX      0.069367
     34 H243        4.7430    6.6040    6.0250 h1        1 MPX      0.069367
     35 H201        3.6620    4.5030    5.9630 h1        1 MPX      0.079700
     36 H202        2.6660    4.7510    4.4470 h1        1 MPX      0.079700
     37 H191        3.0740    2.3790    4.7340 h1        1 MPX      0.083700
     38 H192        4.8690    2.6430    5.0330 h1        1 MPX      0.083700
     39 H151       -3.9640   -0.8220   -1.7890 hn        1 MPX      0.482800
     40 H152       -2.9860   -1.1140   -3.0800 hn        1 MPX      0.482800
     41 H102        1.8510    2.1500    2.0060 hn        1 MPX      0.491800
     42 H172        4.9660    0.9680    3.3860 hn        1 MPX      0.479300
     43 H153       -2.6910    0.1700   -2.0980 hn        1 MPX      0.482800
@<TRIPOS>BOND
     1    1    2 ar  
     2    1    6 ar  
     3    1   18 1   
     4    2    3 ar  
     5    2   22 1   
     6    3    4 ar  
     7    3   23 1   
     8    4    5 ar  
     9    4    7 1   
    10    5    6 ar  
    11    5   24 1   
    12    6   25 1   
    13    7    8 1   
    14    7   26 1   
    15    7   41 1   
    16    8    9 2   
    17    8   10 1   
    18   10   11 1   
    19   10   27 1   
    20   10   42 1   
    21   11   12 1   
    22   11   17 1   
    23   12   13 1   
    24   12   28 1   
    25   12   29 1   
    26   13   14 1   
    27   13   30 1   
    28   13   31 1   
    29   14   15 1   
    30   14   16 1   
    31   15   32 1   
    32   15   33 1   
    33   15   34 1   
    34   16   17 1   
    35   16   35 1   
    36   16   36 1   
    37   17   37 1   
    38   17   38 1   
    39   18   19 1   
    40   18   20 2   
    41   18   21 2   
    42   19   39 1   
    43   19   40 1   
    44   19   43 1   
@<TRIPOS>SUBSTRUCTURE
     1 MPX         1 TEMP              0 ****  ****    0 ROOT
