@<TRIPOS>MOLECULE
MPX
   40    41     1     0     0
SMALL
bcc


@<TRIPOS>ATOM
      1 C1         -2.2520    0.2010    0.3550 ca        1 MPX     -0.404500
      2 C2         -1.5310   -0.1740   -0.7840 ca        1 MPX     -0.002500
      3 C3         -0.4390   -1.0290   -0.7060 ca        1 MPX     -0.172000
      4 C4         -0.0300   -1.5370    0.5450 ca        1 MPX      0.126600
      5 C5         -0.7640   -1.1730    1.7000 ca        1 MPX     -0.172000
      6 C6         -1.8510   -0.3190    1.5910 ca        1 MPX     -0.002500
      7 N10         1.0260   -2.4540    0.6800 n         1 MPX     -0.420100
      8 C16         2.2190   -2.5100   -0.0150 c         1 MPX      0.560400
      9 S25         3.0820   -3.8800   -0.0120 s         1 MPX     -0.539400
     10 N17         2.6990   -1.4160   -0.7780 n         1 MPX     -0.355300
     11 N18         2.4500   -0.1170   -0.3790 n3        1 MPX     -0.498600
     12 C23         2.3390    0.7960   -1.5420 c3        1 MPX      0.139800
     13 C22         2.0180    2.2370   -1.1070 c3        1 MPX      0.170800
     14 N21         2.9640    2.7590   -0.1330 n3        1 MPX     -0.734600
     15 C24         2.6620    4.1140    0.2680 c3        1 MPX      0.158100
     16 C20         3.1250    1.8620    1.0020 c3        1 MPX      0.170800
     17 C19         3.4510    0.4210    0.5760 c3        1 MPX      0.139800
     18 S7         -3.5980    1.2110    0.2360 sy        1 MPX      1.530200
     19 N15        -2.9810    2.6750    0.4540 n3        1 MPX     -1.027700
     20 O14        -4.1090    1.1200   -1.0760 o         1 MPX     -0.658300
     21 O13        -4.4700    0.9170    1.3060 o         1 MPX     -0.658300
     22 H2         -1.8570    0.1970   -1.7730 ha        1 MPX      0.154500
     23 H3          0.0960   -1.3120   -1.6270 ha        1 MPX      0.151000
     24 H5         -0.4810   -1.5670    2.6890 ha        1 MPX      0.151000
     25 H6         -2.4280   -0.0570    2.4970 ha        1 MPX      0.154500
     26 H10         0.8370   -3.2630    1.2440 hn        1 MPX      0.355500
     27 H17         3.6520   -1.6020   -1.0780 hn        1 MPX      0.304500
     28 H231        1.4890    0.4370   -2.1880 h1        1 MPX      0.052950
     29 H232        3.2790    0.8020   -2.1650 h1        1 MPX      0.052950
     30 H221        0.9570    2.2750   -0.7240 h1        1 MPX      0.042450
     31 H222        2.0770    2.8860   -2.0260 h1        1 MPX      0.042450
     32 H241        1.6770    4.2120    0.8020 h1        1 MPX      0.035033
     33 H242        3.4750    4.4780    0.9480 h1        1 MPX      0.035033
     34 H243        2.6380    4.7630   -0.6470 h1        1 MPX      0.035033
     35 H201        3.9900    2.2370    1.6190 h1        1 MPX      0.042450
     36 H202        2.2080    1.8480    1.6610 h1        1 MPX      0.042450
     37 H191        3.4320   -0.2200    1.5020 h1        1 MPX      0.052950
     38 H192        4.4970    0.3940    0.1510 h1        1 MPX      0.052950
     39 H151       -2.9000    3.1090    1.3380 hn        1 MPX      0.446300
     40 H152       -2.6780    3.2560   -0.2860 hn        1 MPX      0.446300
@<TRIPOS>BOND
     1    1    2 ar  
     2    1    6 ar  
     3    1   18 1   
     4    2    3 ar  
     5    2   22 1   
     6    3    4 ar  
     7    3   23 1   
     8    4    5 ar  
     9    4    7 1   
    10    5    6 ar  
    11    5   24 1   
    12    6   25 1   
    13    7    8 1   
    14    7   26 1   
    15    8    9 2   
    16    8   10 1   
    17   10   11 1   
    18   10   27 1   
    19   11   12 1   
    20   11   17 1   
    21   12   13 1   
    22   12   28 1   
    23   12   29 1   
    24   13   14 1   
    25   13   30 1   
    26   13   31 1   
    27   14   15 1   
    28   14   16 1   
    29   15   32 1   
    30   15   33 1   
    31   15   34 1   
    32   16   17 1   
    33   16   35 1   
    34   16   36 1   
    35   17   37 1   
    36   17   38 1   
    37   18   19 1   
    38   18   20 2   
    39   18   21 2   
    40   19   39 1   
    41   19   40 1   
@<TRIPOS>SUBSTRUCTURE
     1 MPX         1 TEMP              0 ****  ****    0 ROOT
