@<TRIPOS>MOLECULE
MPX
   42    43     1     0     0
SMALL
bcc


@<TRIPOS>ATOM
      1 C1         -0.8260   -0.8380   -0.1360 ca        1 MPX     -0.544500
      2 C2          0.3690   -1.4780    0.2450 ca        1 MPX      0.046000
      3 C3          1.5020   -0.7680    0.6140 ca        1 MPX     -0.182500
      4 C4          1.4830    0.6450    0.6230 ca        1 MPX      0.155600
      5 C5          0.2870    1.3070    0.2200 ca        1 MPX     -0.182500
      6 C6         -0.8260    0.5760   -0.1430 ca        1 MPX      0.046000
      7 N10         2.5700    1.4510    0.9980 ns        1 MPX     -0.376100
      8 C16         3.7650    1.0110    1.5210 c         1 MPX      0.306400
      9 S25         4.3410   -0.3930    1.8270 s         1 MPX     -0.085400
     10 N17         4.7730    2.1610    1.8350 ny        1 MPX     -0.428600
     11 N18         4.2200    3.2600    2.5530 n3        1 MPX     -0.524400
     12 C23         5.0000    4.5100    2.3580 c3        1 MPX      0.115300
     13 C22         4.3890    5.6860    3.1510 c3        1 MPX      0.177800
     14 N21         4.2530    5.3670    4.5590 n3        1 MPX     -0.743600
     15 C24         3.8460    6.4870    5.3760 c3        1 MPX      0.154100
     16 C20         3.4490    4.1750    4.7540 c3        1 MPX      0.177800
     17 C19         4.0370    2.9640    3.9950 c3        1 MPX      0.115300
     18 S7         -2.1830   -1.6750   -0.4040 sy        1 MPX      1.482200
     19 N15        -2.0190   -1.9290   -2.2830 nz        1 MPX     -0.794500
     20 O14        -2.1220   -2.9820    0.0210 o         1 MPX     -0.548800
     21 O13        -3.3260   -0.9090   -0.3650 o         1 MPX     -0.548800
     22 H2          0.4070   -2.5870    0.2790 ha        1 MPX      0.186000
     23 H3          2.4070   -1.3350    0.9100 ha        1 MPX      0.189000
     24 H5          0.2270    2.4100    0.2060 ha        1 MPX      0.189000
     25 H6         -1.7540    1.1170   -0.4200 ha        1 MPX      0.186000
     26 H10         2.3840    2.4410    0.9610 hn        1 MPX      0.368500
     27 H17         5.5580    1.6880    2.3410 hn        1 MPX      0.460800
     28 H231        4.9670    4.7840    1.2660 h1        1 MPX      0.075200
     29 H232        6.0770    4.3840    2.6750 h1        1 MPX      0.075200
     30 H221        3.4080    5.9760    2.6740 h1        1 MPX      0.069450
     31 H222        5.1010    6.5550    3.0470 h1        1 MPX      0.069450
     32 H241        4.5820    7.3220    5.2310 h1        1 MPX      0.058033
     33 H242        3.8680    6.1720    6.4530 h1        1 MPX      0.058033
     34 H243        2.8160    6.8620    5.1270 h1        1 MPX      0.058033
     35 H201        3.4590    3.9120    5.8500 h1        1 MPX      0.069450
     36 H202        2.3760    4.3190    4.4350 h1        1 MPX      0.069450
     37 H191        5.0090    2.6700    4.4890 h1        1 MPX      0.075200
     38 H192        3.3060    2.1130    4.0910 h1        1 MPX      0.075200
     39 H151       -2.8220   -1.5230   -2.7670 hn        1 MPX      0.464133
     40 H152       -1.1800   -1.5140   -2.6780 hn        1 MPX      0.464133
     41 H172        5.1340    2.5210    0.9350 hn        1 MPX      0.460800
     42 H153       -2.0050   -2.9260   -2.5060 hn        1 MPX      0.464133
@<TRIPOS>BOND
     1    1    2 ar  
     2    1    6 ar  
     3    1   18 1   
     4    2    3 ar  
     5    2   22 1   
     6    3    4 ar  
     7    3   23 1   
     8    4    5 ar  
     9    4    7 1   
    10    5    6 ar  
    11    5   24 1   
    12    6   25 1   
    13    7    8 1   
    14    7   26 1   
    15    8    9 2   
    16    8   10 1   
    17   10   11 1   
    18   10   27 1   
    19   10   41 1   
    20   11   12 1   
    21   11   17 1   
    22   12   13 1   
    23   12   28 1   
    24   12   29 1   
    25   13   14 1   
    26   13   30 1   
    27   13   31 1   
    28   14   15 1   
    29   14   16 1   
    30   15   32 1   
    31   15   33 1   
    32   15   34 1   
    33   16   17 1   
    34   16   35 1   
    35   16   36 1   
    36   17   37 1   
    37   17   38 1   
    38   18   19 1   
    39   18   20 2   
    40   18   21 2   
    41   19   39 1   
    42   19   40 1   
    43   19   42 1   
@<TRIPOS>SUBSTRUCTURE
     1 MPX         1 TEMP              0 ****  ****    0 ROOT
