@<TRIPOS>MOLECULE
MPY
   68    72     1     0     0
SMALL
bcc


@<TRIPOS>ATOM
      1 N1         -0.0370    0.1100   -0.1300 n         1 MPY     -0.113200
      2 N2          1.2100   -0.1710    3.3210 nc        1 MPY     -0.078400
      3 C3          2.9960   -0.5560    1.9160 cd        1 MPY      0.711900
      4 N4          2.4060   -0.4440    3.3250 nd        1 MPY     -0.218300
      5 N5          4.2400   -0.8090    1.7160 ne        1 MPY     -0.620100
      6 C6          4.8160   -0.9010    0.4110 c         1 MPY      0.724100
      7 C7          6.2590   -0.5930    0.3130 ca        1 MPY     -0.183600
      8 O8          4.1550   -1.2600   -0.5830 o         1 MPY     -0.575100
      9 C9          6.8400   -0.5620   -0.9650 ca        1 MPY     -0.038500
     10 C10         8.1850   -0.2790   -1.1320 ca        1 MPY     -0.203500
     11 C11         8.4170   -0.0480    1.2700 ca        1 MPY     -0.203500
     12 C12         7.0660   -0.3370    1.4270 ca        1 MPY     -0.038500
     13 C13         0.7160   -0.0430    1.9770 cc        1 MPY     -0.053600
     14 C14         1.8450   -0.2850    1.0360 cd        1 MPY     -0.330900
     15 C15         1.3440   -0.1840   -0.2380 cc        1 MPY      0.036700
     16 C16        -0.4150    0.2010    1.2300 cd        1 MPY     -0.040300
     17 N17        10.4000    0.1800   -0.1900 nh        1 MPY     -0.643000
     18 C18        11.2120    0.2870    1.0100 c3        1 MPY      0.190800
     19 C19        12.7240    0.2610    0.7120 c3        1 MPY      0.163300
     20 N20        13.1180    1.2100   -0.3190 n3        1 MPY     -0.731600
     21 C21        12.3140    1.0670   -1.5230 c3        1 MPY      0.163300
     22 C22        10.7990    1.1030   -1.2400 c3        1 MPY      0.190800
     23 C23        14.5370    1.1750   -0.5910 c3        1 MPY      0.156100
     24 C24         9.0160   -0.0160   -0.0120 ca        1 MPY      0.188600
     25 C25        -0.8700    0.3090   -1.2770 c         1 MPY      0.660900
     26 O26        -0.3150    0.4360   -2.3850 o         1 MPY     -0.563100
     27 C27        -3.1400    0.3890   -2.1920 ca        1 MPY      0.013600
     28 C28        -3.9300   -0.7620   -2.4320 ca        1 MPY     -0.057300
     29 C29        -3.2810    1.5320   -3.0210 ca        1 MPY     -0.057300
     30 N30        -2.2560    0.4200   -1.0770 n         1 MPY     -0.439100
     31 C31        -4.8510   -0.7540   -3.4830 ca        1 MPY     -0.128500
     32 C32        -3.8170   -1.9940   -1.5980 c3        1 MPY     -0.048600
     33 C33        -4.2060    1.4930   -4.0670 ca        1 MPY     -0.128500
     34 C34        -2.4470    2.7410   -2.7700 c3        1 MPY     -0.048600
     35 C35        -4.9860    0.3640   -4.2980 ca        1 MPY     -0.116000
     36 C36        -4.6850   -1.9330   -0.3630 c3        1 MPY     -0.092100
     37 C37        -2.7440    3.9240   -3.6560 c3        1 MPY     -0.092100
     38 H9          6.2090   -0.7750   -1.8450 ha        1 MPY      0.156000
     39 H10         8.6010   -0.2830   -2.1500 ha        1 MPY      0.139000
     40 H11         9.0090    0.1590    2.1750 ha        1 MPY      0.139000
     41 H12         6.6460   -0.3590    2.4460 ha        1 MPY      0.156000
     42 H15         1.8220   -0.3010   -1.2200 h4        1 MPY      0.222000
     43 H16        -1.4320    0.4450    1.5420 h4        1 MPY      0.188000
     44 H181       10.9720    1.2300    1.5830 h1        1 MPY      0.047450
     45 H182       10.9860   -0.5980    1.6700 h1        1 MPY      0.047450
     46 H191       13.2610    0.5410    1.6620 h1        1 MPY      0.040700
     47 H192       13.0220   -0.7950    0.4440 h1        1 MPY      0.040700
     48 H211       12.5560    0.1130   -2.0770 h1        1 MPY      0.040700
     49 H212       12.5520    1.9330   -2.2020 h1        1 MPY      0.040700
     50 H221       10.2740    0.8250   -2.1960 h1        1 MPY      0.047450
     51 H222       10.5050    2.1600   -0.9730 h1        1 MPY      0.047450
     52 H231       14.7810    1.9850   -1.3280 h1        1 MPY      0.034033
     53 H232       14.8870    0.1920   -1.0110 h1        1 MPY      0.034033
     54 H233       15.0910    1.3750    0.3620 h1        1 MPY      0.034033
     55 H30        -2.6320   -0.0110   -0.2570 hn        1 MPY      0.314500
     56 H31        -5.4680   -1.6470   -3.6680 ha        1 MPY      0.139500
     57 H321       -2.7480   -2.1780   -1.3050 hc        1 MPY      0.058950
     58 H322       -4.1270   -2.8820   -2.2140 hc        1 MPY      0.058950
     59 H33        -4.3270    2.3680   -4.7260 ha        1 MPY      0.139500
     60 H341       -2.5800    3.0550   -1.6980 hc        1 MPY      0.058950
     61 H342       -1.3650    2.4520   -2.9010 hc        1 MPY      0.058950
     62 H35        -5.7090    0.3560   -5.1280 ha        1 MPY      0.137000
     63 H361       -4.4040   -1.0760    0.2930 hc        1 MPY      0.037367
     64 H362       -4.5770   -2.8770    0.2250 hc        1 MPY      0.037367
     65 H363       -5.7590   -1.8140   -0.6470 hc        1 MPY      0.037367
     66 H371       -2.0910    4.7820   -3.3610 hc        1 MPY      0.037367
     67 H372       -3.8090    4.2450   -3.5560 hc        1 MPY      0.037367
     68 H373       -2.5400    3.6860   -4.7280 hc        1 MPY      0.037367
@<TRIPOS>BOND
     1    1   15 1   
     2    1   16 1   
     3    1   25 1   
     4    2    4 2   
     5    2   13 1   
     6    3    4 1   
     7    3    5 2   
     8    3   14 1   
     9    5    6 1   
    10    6    7 1   
    11    6    8 2   
    12    7    9 ar  
    13    7   12 ar  
    14    9   10 ar  
    15    9   38 1   
    16   10   24 ar  
    17   10   39 1   
    18   11   12 ar  
    19   11   24 ar  
    20   11   40 1   
    21   12   41 1   
    22   13   14 1   
    23   13   16 2   
    24   14   15 2   
    25   15   42 1   
    26   16   43 1   
    27   17   18 1   
    28   17   22 1   
    29   17   24 1   
    30   18   19 1   
    31   18   44 1   
    32   18   45 1   
    33   19   20 1   
    34   19   46 1   
    35   19   47 1   
    36   20   21 1   
    37   20   23 1   
    38   21   22 1   
    39   21   48 1   
    40   21   49 1   
    41   22   50 1   
    42   22   51 1   
    43   23   52 1   
    44   23   53 1   
    45   23   54 1   
    46   25   26 2   
    47   25   30 1   
    48   27   28 ar  
    49   27   29 ar  
    50   27   30 1   
    51   28   31 ar  
    52   28   32 1   
    53   29   33 ar  
    54   29   34 1   
    55   30   55 1   
    56   31   35 ar  
    57   31   56 1   
    58   32   36 1   
    59   32   57 1   
    60   32   58 1   
    61   33   35 ar  
    62   33   59 1   
    63   34   37 1   
    64   34   60 1   
    65   34   61 1   
    66   35   62 1   
    67   36   63 1   
    68   36   64 1   
    69   36   65 1   
    70   37   66 1   
    71   37   67 1   
    72   37   68 1   
@<TRIPOS>SUBSTRUCTURE
     1 MPY         1 TEMP              0 ****  ****    0 ROOT
