@<TRIPOS>MOLECULE
MPY
   68    72     1     0     0
SMALL
bcc


@<TRIPOS>ATOM
      1 N1         -0.0270    0.1010   -0.1190 n         1 MPY     -0.113200
      2 N2          1.2150   -0.1650    3.3340 nc        1 MPY     -0.078400
      3 C3          2.9970   -0.5820    1.9340 cd        1 MPY      0.710900
      4 N4          2.4080   -0.4520    3.3420 nd        1 MPY     -0.218300
      5 N5          4.2380   -0.8520    1.7370 ne        1 MPY     -0.620100
      6 C6          4.8140   -0.9610    0.4330 c         1 MPY      0.724100
      7 C7          6.2530   -0.6380    0.3280 ca        1 MPY     -0.183600
      8 O8          4.1560   -1.3470   -0.5520 o         1 MPY     -0.575100
      9 C9          6.8300   -0.6170   -0.9520 ca        1 MPY     -0.038500
     10 C10         8.1720   -0.3200   -1.1260 ca        1 MPY     -0.203500
     11 C11         8.4080   -0.0570    1.2720 ca        1 MPY     -0.203500
     12 C12         7.0600   -0.3590    1.4350 ca        1 MPY     -0.038500
     13 C13         0.7230   -0.0430    1.9880 cc        1 MPY     -0.053600
     14 C14         1.8500   -0.3060    1.0510 cd        1 MPY     -0.330900
     15 C15         1.3510   -0.2110   -0.2250 cc        1 MPY      0.035700
     16 C16        -0.4050    0.2070    1.2390 cd        1 MPY     -0.040300
     17 N17        10.3840    0.1760   -0.1960 nh        1 MPY     -0.643000
     18 C18        11.1970    0.3070    1.0000 c3        1 MPY      0.190800
     19 C19        12.7090    0.2950    0.6980 c3        1 MPY      0.163300
     20 N20        13.0890    1.2360   -0.3460 n3        1 MPY     -0.731600
     21 C21        12.2830    1.0690   -1.5460 c3        1 MPY      0.163300
     22 C22        10.7680    1.0910   -1.2600 c3        1 MPY      0.190800
     23 C23        14.5070    1.2150   -0.6220 c3        1 MPY      0.156100
     24 C24         9.0030   -0.0340   -0.0120 ca        1 MPY      0.188600
     25 C25        -0.8570    0.2990   -1.2700 c         1 MPY      0.660900
     26 O26        -0.2990    0.4090   -2.3780 o         1 MPY     -0.564100
     27 C27        -3.1250    0.3980   -2.1870 ca        1 MPY      0.013600
     28 C28        -3.9290   -0.7450   -2.4170 ca        1 MPY     -0.057300
     29 C29        -3.2510    1.5360   -3.0260 ca        1 MPY     -0.057300
     30 N30        -2.2410    0.4290   -1.0720 ns        1 MPY     -0.439100
     31 C31        -4.8490   -0.7350   -3.4690 ca        1 MPY     -0.128500
     32 C32        -3.8320   -1.9700   -1.5710 c3        1 MPY     -0.048600
     33 C33        -4.1760    1.4990   -4.0740 ca        1 MPY     -0.128500
     34 C34        -2.4020    2.7360   -2.7870 c3        1 MPY     -0.048600
     35 C35        -4.9700    0.3780   -4.2940 ca        1 MPY     -0.116000
     36 C36        -4.7010   -1.8870   -0.3380 c3        1 MPY     -0.092100
     37 C37        -2.6830    3.9150   -3.6830 c3        1 MPY     -0.092100
     38 H9          6.1990   -0.8490   -1.8270 ha        1 MPY      0.156000
     39 H10         8.5850   -0.3330   -2.1460 ha        1 MPY      0.139000
     40 H11         8.9990    0.1670    2.1720 ha        1 MPY      0.139000
     41 H12         6.6430   -0.3740    2.4560 ha        1 MPY      0.156000
     42 H15         1.8270   -0.3430   -1.2040 h4        1 MPY      0.222000
     43 H16        -1.4190    0.4660    1.5480 h4        1 MPY      0.188000
     44 H181       10.9840   -0.5720    1.6710 h1        1 MPY      0.047450
     45 H182       10.9480    1.2540    1.5610 h1        1 MPY      0.047450
     46 H191       13.0180   -0.7600    0.4410 h1        1 MPY      0.040700
     47 H192       13.2450    0.5930    1.6420 h1        1 MPY      0.040700
     48 H211       12.5090    1.9290   -2.2360 h1        1 MPY      0.040700
     49 H212       12.5360    0.1120   -2.0900 h1        1 MPY      0.040700
     50 H221       10.4630    2.1470   -1.0050 h1        1 MPY      0.047450
     51 H222       10.2450    0.7950   -2.2100 h1        1 MPY      0.047450
     52 H231       15.0620    1.4330    0.3270 h1        1 MPY      0.034033
     53 H232       14.7400    2.0180   -1.3700 h1        1 MPY      0.034033
     54 H233       14.8680    0.2310   -1.0300 h1        1 MPY      0.034033
     55 H30        -2.6230    0.0100   -0.2480 hn        1 MPY      0.314500
     56 H31        -5.4770   -1.6220   -3.6460 ha        1 MPY      0.139500
     57 H321       -4.1530   -2.8600   -2.1790 hc        1 MPY      0.058700
     58 H322       -2.7670   -2.1650   -1.2760 hc        1 MPY      0.058700
     59 H33        -4.2850    2.3680   -4.7400 ha        1 MPY      0.139500
     60 H341       -2.5320    3.0620   -1.7170 hc        1 MPY      0.058700
     61 H342       -1.3230    2.4330   -2.9130 hc        1 MPY      0.058700
     62 H35        -5.6920    0.3710   -5.1240 ha        1 MPY      0.137000
     63 H361       -4.4090   -1.0260    0.3110 hc        1 MPY      0.037367
     64 H362       -4.6050   -2.8260    0.2590 hc        1 MPY      0.037367
     65 H363       -5.7730   -1.7560   -0.6230 hc        1 MPY      0.037367
     66 H371       -3.7440    4.2500   -3.5880 hc        1 MPY      0.037367
     67 H372       -2.0200    4.7670   -3.3950 hc        1 MPY      0.037367
     68 H373       -2.4820    3.6640   -4.7530 hc        1 MPY      0.037367
@<TRIPOS>BOND
     1    1   15 1   
     2    1   16 1   
     3    1   25 1   
     4    2    4 2   
     5    2   13 1   
     6    3    4 1   
     7    3    5 2   
     8    3   14 1   
     9    5    6 1   
    10    6    7 1   
    11    6    8 2   
    12    7    9 ar  
    13    7   12 ar  
    14    9   10 ar  
    15    9   38 1   
    16   10   24 ar  
    17   10   39 1   
    18   11   12 ar  
    19   11   24 ar  
    20   11   40 1   
    21   12   41 1   
    22   13   14 1   
    23   13   16 2   
    24   14   15 2   
    25   15   42 1   
    26   16   43 1   
    27   17   18 1   
    28   17   22 1   
    29   17   24 1   
    30   18   19 1   
    31   18   44 1   
    32   18   45 1   
    33   19   20 1   
    34   19   46 1   
    35   19   47 1   
    36   20   21 1   
    37   20   23 1   
    38   21   22 1   
    39   21   48 1   
    40   21   49 1   
    41   22   50 1   
    42   22   51 1   
    43   23   52 1   
    44   23   53 1   
    45   23   54 1   
    46   25   26 2   
    47   25   30 1   
    48   27   28 ar  
    49   27   29 ar  
    50   27   30 1   
    51   28   31 ar  
    52   28   32 1   
    53   29   33 ar  
    54   29   34 1   
    55   30   55 1   
    56   31   35 ar  
    57   31   56 1   
    58   32   36 1   
    59   32   57 1   
    60   32   58 1   
    61   33   35 ar  
    62   33   59 1   
    63   34   37 1   
    64   34   60 1   
    65   34   61 1   
    66   35   62 1   
    67   36   63 1   
    68   36   64 1   
    69   36   65 1   
    70   37   66 1   
    71   37   67 1   
    72   37   68 1   
@<TRIPOS>SUBSTRUCTURE
     1 MPY         1 TEMP              0 ****  ****    0 ROOT
