@<TRIPOS>MOLECULE
MPY
   68    72     1     0     0
SMALL
bcc


@<TRIPOS>ATOM
      1 N1         -3.0340    0.7860   -0.1750 n         1 MPY     -0.113200
      2 N2         -1.3550    4.0010   -0.7960 nc        1 MPY     -0.078400
      3 C3          0.2150    2.5740    0.1030 cd        1 MPY      0.710900
      4 N4         -0.1800    3.9480   -0.4480 nd        1 MPY     -0.218300
      5 N5          1.4120    2.3140    0.4930 ne        1 MPY     -0.619100
      6 C6          1.8070    1.0350    0.9940 c         1 MPY      0.724100
      7 C7          3.2260    0.6680    0.7950 ca        1 MPY     -0.183600
      8 O8          1.0170    0.2880    1.6030 o         1 MPY     -0.575100
      9 C9          3.6280   -0.6250    1.1640 ca        1 MPY     -0.038500
     10 C10         4.9400   -1.0390    1.0040 ca        1 MPY     -0.203500
     11 C11         5.4980    1.1400    0.0980 ca        1 MPY     -0.203500
     12 C12         4.1780    1.5450    0.2660 ca        1 MPY     -0.038500
     13 C13        -2.0170    2.7440   -0.5730 cc        1 MPY     -0.053600
     14 C14        -1.0300    1.7920    0.0090 cd        1 MPY     -0.330900
     15 C15        -1.6910    0.6100    0.2390 cc        1 MPY      0.035700
     16 C16        -3.2270    2.0940   -0.6760 cd        1 MPY     -0.040300
     17 N17         7.2660   -0.5640    0.3940 nh        1 MPY     -0.643000
     18 C18         8.2330    0.4380   -0.0180 c3        1 MPY      0.190800
     19 C19         9.6910   -0.0310    0.1620 c3        1 MPY      0.163300
     20 N20         9.9470   -1.3360   -0.4280 n3        1 MPY     -0.731600
     21 C21         8.9860   -2.3320    0.0210 c3        1 MPY      0.163300
     22 C22         7.5240   -1.8810   -0.1650 c3        1 MPY      0.190800
     23 C23        11.3160   -1.7660   -0.2510 c3        1 MPY      0.156100
     24 C24         5.9170   -0.1610    0.4660 ca        1 MPY      0.188600
     25 C25        -4.0020   -0.2660   -0.1000 c         1 MPY      0.660900
     26 O26        -3.5920   -1.4190    0.1350 o         1 MPY     -0.564100
     27 C27        -6.3680   -0.8980   -0.0840 ca        1 MPY      0.013600
     28 C28        -7.2260   -0.6990    1.0260 ca        1 MPY     -0.057300
     29 C29        -6.5730   -2.0020   -0.9520 ca        1 MPY     -0.057300
     30 N30        -5.3440    0.0510   -0.3660 n         1 MPY     -0.439100
     31 C31        -8.2750   -1.5940    1.2490 ca        1 MPY     -0.128500
     32 C32        -7.0510    0.4390    1.9740 c3        1 MPY     -0.048600
     33 C33        -7.6290   -2.8780   -0.6850 ca        1 MPY     -0.128500
     34 C34        -5.6690   -2.2120   -2.1160 c3        1 MPY     -0.048600
     35 C35        -8.4740   -2.6790    0.4020 ca        1 MPY     -0.116000
     36 C36        -7.7470    1.6940    1.5000 c3        1 MPY     -0.092100
     37 C37        -6.0340   -3.3640   -3.0170 c3        1 MPY     -0.092100
     38 H9          2.8820   -1.3160    1.5940 ha        1 MPY      0.156000
     39 H10         5.2150   -2.0550    1.3230 ha        1 MPY      0.139000
     40 H11         6.2080    1.8600   -0.3350 ha        1 MPY      0.139000
     41 H12         3.9000    2.5710   -0.0280 ha        1 MPY      0.156000
     42 H15        -1.3510   -0.3430    0.6660 h4        1 MPY      0.222000
     43 H16        -4.1840    2.4360   -1.0740 h4        1 MPY      0.188000
     44 H181        8.0790    0.7340   -1.0970 h1        1 MPY      0.047450
     45 H182        8.0940    1.3510    0.6260 h1        1 MPY      0.047450
     46 H191       10.3540    0.7180   -0.3560 h1        1 MPY      0.040700
     47 H192        9.9420   -0.0130    1.2630 h1        1 MPY      0.040700
     48 H211        9.1360   -3.2600   -0.6000 h1        1 MPY      0.040700
     49 H212        9.1450   -2.6090    1.1040 h1        1 MPY      0.040700
     50 H221        6.8730   -2.6380    0.3530 h1        1 MPY      0.047450
     51 H222        7.2760   -1.9010   -1.2660 h1        1 MPY      0.047450
     52 H231       11.6000   -1.9190    0.8270 h1        1 MPY      0.034033
     53 H232       11.4630   -2.7320   -0.8000 h1        1 MPY      0.034033
     54 H233       11.9960   -0.9920   -0.6930 h1        1 MPY      0.034033
     55 H30        -5.6260    0.9980   -0.2150 hn        1 MPY      0.314500
     56 H31        -8.9440   -1.4390    2.1090 ha        1 MPY      0.139500
     57 H321       -7.4730    0.1490    2.9750 hc        1 MPY      0.058700
     58 H322       -5.9610    0.6480    2.1460 hc        1 MPY      0.058700
     59 H33        -7.8020   -3.7450   -1.3420 ha        1 MPY      0.139500
     60 H341       -5.6480   -1.2700   -2.7310 hc        1 MPY      0.058700
     61 H342       -4.6240   -2.3760   -1.7230 hc        1 MPY      0.058700
     62 H35        -9.3000   -3.3810    0.5920 ha        1 MPY      0.137000
     63 H361       -8.8430    1.5120    1.3870 hc        1 MPY      0.037367
     64 H362       -7.5980    2.5150    2.2420 hc        1 MPY      0.037367
     65 H363       -7.3490    2.0340    0.5140 hc        1 MPY      0.037367
     66 H371       -5.9820   -4.3360   -2.4690 hc        1 MPY      0.037367
     67 H372       -7.0640   -3.2420   -3.4320 hc        1 MPY      0.037367
     68 H373       -5.3160   -3.4090   -3.8730 hc        1 MPY      0.037367
@<TRIPOS>BOND
     1    1   15 1   
     2    1   16 1   
     3    1   25 1   
     4    2    4 2   
     5    2   13 1   
     6    3    4 1   
     7    3    5 2   
     8    3   14 1   
     9    5    6 1   
    10    6    7 1   
    11    6    8 2   
    12    7    9 ar  
    13    7   12 ar  
    14    9   10 ar  
    15    9   38 1   
    16   10   24 ar  
    17   10   39 1   
    18   11   12 ar  
    19   11   24 ar  
    20   11   40 1   
    21   12   41 1   
    22   13   14 1   
    23   13   16 2   
    24   14   15 2   
    25   15   42 1   
    26   16   43 1   
    27   17   18 1   
    28   17   22 1   
    29   17   24 1   
    30   18   19 1   
    31   18   44 1   
    32   18   45 1   
    33   19   20 1   
    34   19   46 1   
    35   19   47 1   
    36   20   21 1   
    37   20   23 1   
    38   21   22 1   
    39   21   48 1   
    40   21   49 1   
    41   22   50 1   
    42   22   51 1   
    43   23   52 1   
    44   23   53 1   
    45   23   54 1   
    46   25   26 2   
    47   25   30 1   
    48   27   28 ar  
    49   27   29 ar  
    50   27   30 1   
    51   28   31 ar  
    52   28   32 1   
    53   29   33 ar  
    54   29   34 1   
    55   30   55 1   
    56   31   35 ar  
    57   31   56 1   
    58   32   36 1   
    59   32   57 1   
    60   32   58 1   
    61   33   35 ar  
    62   33   59 1   
    63   34   37 1   
    64   34   60 1   
    65   34   61 1   
    66   35   62 1   
    67   36   63 1   
    68   36   64 1   
    69   36   65 1   
    70   37   66 1   
    71   37   67 1   
    72   37   68 1   
@<TRIPOS>SUBSTRUCTURE
     1 MPY         1 TEMP              0 ****  ****    0 ROOT
