@<TRIPOS>MOLECULE
MPY
   69    73     1     0     0
SMALL
bcc


@<TRIPOS>ATOM
      1 N1         -0.1920    0.5380   -0.0820 n         1 MPY     -0.120200
      2 N2          1.0890   -1.4420    2.7580 nc        1 MPY     -0.078400
      3 C3          2.9190   -0.7090    1.5590 cd        1 MPY      0.678900
      4 N4          2.3120   -1.4780    2.7320 nd        1 MPY     -0.164300
      5 N5          4.1830   -0.6300    1.3630 ne        1 MPY     -0.571100
      6 C6          4.7620    0.0950    0.2580 c         1 MPY      0.740100
      7 C7          6.2250    0.0890    0.1780 ca        1 MPY     -0.221600
      8 O8          4.0370    0.6840   -0.5690 o         1 MPY     -0.604100
      9 C9          6.8300    0.7860   -0.8840 ca        1 MPY     -0.015500
     10 C10         8.2040    0.8220   -1.0260 ca        1 MPY     -0.226000
     11 C11         8.4280   -0.5370    0.9730 ca        1 MPY     -0.226000
     12 C12         7.0500   -0.5660    1.1050 ca        1 MPY     -0.015500
     13 C13         0.5720   -0.6690    1.6510 cc        1 MPY      0.024400
     14 C14         1.7340   -0.1750    0.8460 cd        1 MPY     -0.272900
     15 C15         1.2470    0.5530   -0.1960 cc        1 MPY      0.038700
     16 C16        -0.5820   -0.2240    1.0680 cd        1 MPY     -0.094300
     17 N17        10.4340    0.0830   -0.3040 nh        1 MPY     -0.641000
     18 C18        11.2530   -0.3570    0.8110 c3        1 MPY      0.200300
     19 C19        12.7570   -0.4810    0.5050 c3        1 MPY      0.159800
     20 N20        13.2810    0.6570   -0.2320 n3        1 MPY     -0.728600
     21 C21        12.5370    0.8590   -1.4630 c3        1 MPY      0.159800
     22 C22        11.0240    1.0320   -1.2290 c3        1 MPY      0.200300
     23 C23        14.7090    0.5780   -0.4450 c3        1 MPY      0.154100
     24 C24         9.0560    0.1400   -0.1100 ca        1 MPY      0.234600
     25 C25        -0.9900    1.2090   -0.9890 c         1 MPY      0.550900
     26 O26        -0.5780    1.8990   -1.9230 o         1 MPY     -0.448100
     27 C27        -3.1860    0.5860   -1.9960 ca        1 MPY     -0.069400
     28 C28        -3.4240   -0.8070   -2.0510 ca        1 MPY     -0.025300
     29 C29        -3.6190    1.4520   -3.0330 ca        1 MPY     -0.025300
     30 N30        -2.5110    1.1500   -0.8210 n4        1 MPY     -0.518200
     31 C31        -4.0800   -1.3240   -3.1720 ca        1 MPY     -0.116000
     32 C32        -3.0190   -1.7540   -0.9730 c3        1 MPY     -0.071100
     33 C33        -4.2690    0.8840   -4.1320 ca        1 MPY     -0.116000
     34 C34        -3.3960    2.9250   -2.9490 c3        1 MPY     -0.071100
     35 C35        -4.4940   -0.4880   -4.2060 ca        1 MPY     -0.060000
     36 C36        -3.9860   -1.7690    0.1870 c3        1 MPY     -0.099100
     37 C37        -3.8970    3.7180   -4.1310 c3        1 MPY     -0.099100
     38 H9          6.1890    1.3150   -1.6110 ha        1 MPY      0.152500
     39 H10         8.6220    1.3940   -1.8680 ha        1 MPY      0.144500
     40 H11         9.0270   -1.0560    1.7370 ha        1 MPY      0.144500
     41 H12         6.6150   -1.1120    1.9590 ha        1 MPY      0.152500
     42 H15         1.7430    1.0890   -1.0190 h4        1 MPY      0.245000
     43 H16        -1.6230   -0.3790    1.3590 h4        1 MPY      0.188000
     44 H181       10.9060   -1.3860    1.1180 h1        1 MPY      0.050700
     45 H182       11.1170    0.3420    1.6870 h1        1 MPY      0.050700
     46 H191       13.2950   -0.5390    1.4920 h1        1 MPY      0.045950
     47 H192       12.9340   -1.4520   -0.0440 h1        1 MPY      0.045950
     48 H211       12.6930    0.0080   -2.1910 h1        1 MPY      0.045950
     49 H212       12.9100    1.8030   -1.9500 h1        1 MPY      0.045950
     50 H221       10.5310    0.8970   -2.2340 h1        1 MPY      0.050700
     51 H222       10.8310    2.0860   -0.8750 h1        1 MPY      0.050700
     52 H231       15.0170   -0.3000   -1.0770 h1        1 MPY      0.039367
     53 H232       15.2170    0.4980    0.5510 h1        1 MPY      0.039367
     54 H233       15.0490    1.5200   -0.9500 h1        1 MPY      0.039367
     55 H30        -2.8260    2.1240   -0.6950 hn        1 MPY      0.468300
     56 H31        -4.2690   -2.4090   -3.2340 ha        1 MPY      0.170500
     57 H321       -1.9790   -1.5300   -0.6130 hc        1 MPY      0.064950
     58 H322       -2.9700   -2.7950   -1.4040 hc        1 MPY      0.064950
     59 H33        -4.6140    1.5280   -4.9600 ha        1 MPY      0.170500
     60 H341       -3.9120    3.3170   -2.0270 hc        1 MPY      0.064950
     61 H342       -2.2910    3.1210   -2.8420 hc        1 MPY      0.064950
     62 H35        -5.0050   -0.9150   -5.0870 ha        1 MPY      0.170000
     63 H361       -5.0160   -2.0270   -0.1630 hc        1 MPY      0.052867
     64 H362       -4.0370   -0.7820    0.7080 hc        1 MPY      0.052867
     65 H363       -3.6670   -2.5390    0.9330 hc        1 MPY      0.052867
     66 H371       -3.6750    4.8020   -3.9680 hc        1 MPY      0.052867
     67 H372       -5.0010    3.6040   -4.2560 hc        1 MPY      0.052867
     68 H373       -3.3890    3.3980   -5.0730 hc        1 MPY      0.052867
     69 H302       -2.7840    0.6030    0.0040 hn        1 MPY      0.468300
@<TRIPOS>BOND
     1    1   15 1   
     2    1   16 1   
     3    1   25 1   
     4    2    4 2   
     5    2   13 1   
     6    3    4 1   
     7    3    5 2   
     8    3   14 1   
     9    5    6 1   
    10    6    7 1   
    11    6    8 2   
    12    7    9 ar  
    13    7   12 ar  
    14    9   10 ar  
    15    9   38 1   
    16   10   24 ar  
    17   10   39 1   
    18   11   12 ar  
    19   11   24 ar  
    20   11   40 1   
    21   12   41 1   
    22   13   14 1   
    23   13   16 2   
    24   14   15 2   
    25   15   42 1   
    26   16   43 1   
    27   17   18 1   
    28   17   22 1   
    29   17   24 1   
    30   18   19 1   
    31   18   44 1   
    32   18   45 1   
    33   19   20 1   
    34   19   46 1   
    35   19   47 1   
    36   20   21 1   
    37   20   23 1   
    38   21   22 1   
    39   21   48 1   
    40   21   49 1   
    41   22   50 1   
    42   22   51 1   
    43   23   52 1   
    44   23   53 1   
    45   23   54 1   
    46   25   26 2   
    47   25   30 1   
    48   27   28 ar  
    49   27   29 ar  
    50   27   30 1   
    51   28   31 ar  
    52   28   32 1   
    53   29   33 ar  
    54   29   34 1   
    55   30   55 1   
    56   30   69 1   
    57   31   35 ar  
    58   31   56 1   
    59   32   36 1   
    60   32   57 1   
    61   32   58 1   
    62   33   35 ar  
    63   33   59 1   
    64   34   37 1   
    65   34   60 1   
    66   34   61 1   
    67   35   62 1   
    68   36   63 1   
    69   36   64 1   
    70   36   65 1   
    71   37   66 1   
    72   37   67 1   
    73   37   68 1   
@<TRIPOS>SUBSTRUCTURE
     1 MPY         1 TEMP              0 ****  ****    0 ROOT
