@<TRIPOS>MOLECULE
MPZ
   65    69     1     0     0
SMALL
bcc


@<TRIPOS>ATOM
      1 O16         0.7550   -1.7090   -0.5620 o         1 MPZ     -0.585100
      2 C15         1.5670   -0.7710   -0.4630 c         1 MPZ      0.682700
      3 C14         2.4490   -0.6380    0.7360 ca        1 MPZ     -0.149600
      4 C13         1.8930   -0.8840    1.9960 ca        1 MPZ     -0.095000
      5 C12         2.6840   -0.7840    3.1380 ca        1 MPZ     -0.126000
      6 C11         3.8040   -0.3120    0.6220 ca        1 MPZ     -0.095000
      7 C10         4.5950   -0.2230    1.7660 ca        1 MPZ     -0.126000
      8 C09         4.0390   -0.4520    3.0300 ca        1 MPZ     -0.061300
      9 C08         4.8930   -0.2890    4.2540 c3        1 MPZ      0.210100
     10 N07         4.7570   -1.3710    5.2220 n3        1 MPZ     -0.729600
     11 C06         5.3930   -1.0380    6.4900 c3        1 MPZ      0.165800
     12 C05         5.2930   -2.1770    7.5230 c3        1 MPZ      0.168300
     13 C04         5.2130   -2.6510    4.6990 c3        1 MPZ      0.165800
     14 C03         5.1120   -3.7890    5.7320 c3        1 MPZ      0.168300
     15 NP2         5.7450   -3.4580    7.0020 n3        1 MPZ     -0.733600
     16 C01         5.6260   -4.5220    7.9720 c3        1 MPZ      0.157100
     17 N17         1.7070    0.2210   -1.4250 n         1 MPZ     -0.470100
     18 C18         1.0220    0.3430   -2.6450 ca        1 MPZ      0.085600
     19 C19         1.3710    1.4180   -3.5010 ca        1 MPZ     -0.194000
     20 C20         0.7250    1.5750   -4.7180 ca        1 MPZ     -0.095000
     21 C21        -0.2700    0.6930   -5.1320 ca        1 MPZ     -0.133000
     22 C23        -0.6410   -0.3730   -4.2910 ca        1 MPZ      0.152600
     23 C22         0.0060   -0.5430   -3.0470 ca        1 MPZ     -0.196000
     24 N24        -1.5890   -1.3400   -4.7050 nh        1 MPZ     -0.703300
     25 C25        -2.9210   -0.9880   -5.0150 ca        1 MPZ      0.871900
     26 N26        -3.2250    0.3290   -5.3420 nb        1 MPZ     -0.728000
     27 C27        -4.4910    0.5650   -5.7140 ca        1 MPZ      0.461200
     28 C28        -5.4830   -0.4270   -5.7760 ca        1 MPZ     -0.408600
     29 C30        -5.0990   -1.7380   -5.4100 cp        1 MPZ      0.535800
     30 N29        -3.8360   -2.0340   -5.0240 nb        1 MPZ     -0.745000
     31 C31        -6.0990   -2.8150   -5.4430 cp        1 MPZ     -0.274800
     32 C32        -5.7670   -4.1200   -5.8330 ca        1 MPZ     -0.050000
     33 C36        -6.7690   -5.0910   -5.8570 ca        1 MPZ     -0.254300
     34 C35        -8.0730   -4.7240   -5.4820 ca        1 MPZ      0.405200
     35 N34        -8.4100   -3.4780   -5.0950 nb        1 MPZ     -0.668000
     36 C33        -7.4380   -2.5490   -5.0760 ca        1 MPZ      0.416200
     37 H13         0.8310   -1.1650    2.0740 ha        1 MPZ      0.145500
     38 H12         2.2440   -0.9750    4.1300 ha        1 MPZ      0.146500
     39 H11         4.2610   -0.1460   -0.3650 ha        1 MPZ      0.145500
     40 H10         5.6620    0.0260    1.6700 ha        1 MPZ      0.146500
     41 H081        4.5710    0.6660    4.7660 h1        1 MPZ      0.042700
     42 H082        5.9710   -0.1530    3.9350 h1        1 MPZ      0.042700
     43 H061        4.8630   -0.1410    6.9180 h1        1 MPZ      0.039700
     44 H062        6.4800   -0.7670    6.3540 h1        1 MPZ      0.039700
     45 H051        4.2290   -2.2300    7.9000 h1        1 MPZ      0.038200
     46 H052        5.9540   -1.9080    8.3940 h1        1 MPZ      0.038200
     47 H041        6.2780   -2.5940    4.3290 h1        1 MPZ      0.039700
     48 H042        4.5540   -2.9150    3.8250 h1        1 MPZ      0.039700
     49 H031        4.0250   -4.0620    5.8670 h1        1 MPZ      0.038200
     50 H032        5.6430   -4.6860    5.3080 h1        1 MPZ      0.038200
     51 H011        6.2050   -4.2400    8.8890 h1        1 MPZ      0.032700
     52 H012        4.5630   -4.7360    8.2730 h1        1 MPZ      0.032700
     53 H013        6.0680   -5.4570    7.5380 h1        1 MPZ      0.032700
     54 H17         2.3660    0.9440   -1.2330 hn        1 MPZ      0.320500
     55 H19         2.1540    2.1340   -3.2100 ha        1 MPZ      0.130000
     56 H20         1.0070    2.4120   -5.3750 ha        1 MPZ      0.135000
     57 H21        -0.7550    0.8400   -6.1080 ha        1 MPZ      0.155000
     58 H22        -0.2860   -1.3800   -2.3900 ha        1 MPZ      0.175000
     59 H24        -1.4960   -2.2240   -4.2400 hn        1 MPZ      0.441800
     60 H27        -4.7180    1.6160   -5.9760 h4        1 MPZ      0.028100
     61 H28        -6.5030   -0.1970   -6.0990 ha        1 MPZ      0.157000
     62 H32        -4.7340   -4.3750   -6.1150 ha        1 MPZ      0.157000
     63 H36        -6.5470   -6.1230   -6.1600 ha        1 MPZ      0.147000
     64 H35        -8.8950   -5.4620   -5.4880 h4        1 MPZ      0.024100
     65 H33        -7.7430   -1.5400   -4.7420 h4        1 MPZ      0.026100
@<TRIPOS>BOND
     1    1    2 2   
     2    2    3 1   
     3    2   17 1   
     4    3    4 ar  
     5    3    6 ar  
     6    4    5 ar  
     7    4   37 1   
     8    5    8 ar  
     9    5   38 1   
    10    6    7 ar  
    11    6   39 1   
    12    7    8 ar  
    13    7   40 1   
    14    8    9 1   
    15    9   10 1   
    16    9   41 1   
    17    9   42 1   
    18   10   11 1   
    19   10   13 1   
    20   11   12 1   
    21   11   43 1   
    22   11   44 1   
    23   12   15 1   
    24   12   45 1   
    25   12   46 1   
    26   13   14 1   
    27   13   47 1   
    28   13   48 1   
    29   14   15 1   
    30   14   49 1   
    31   14   50 1   
    32   15   16 1   
    33   16   51 1   
    34   16   52 1   
    35   16   53 1   
    36   17   18 1   
    37   17   54 1   
    38   18   19 ar  
    39   18   23 ar  
    40   19   20 ar  
    41   19   55 1   
    42   20   21 ar  
    43   20   56 1   
    44   21   22 ar  
    45   21   57 1   
    46   22   23 ar  
    47   22   24 1   
    48   23   58 1   
    49   24   25 1   
    50   24   59 1   
    51   25   26 ar  
    52   25   30 ar  
    53   26   27 ar  
    54   27   28 ar  
    55   27   60 1   
    56   28   29 ar  
    57   28   61 1   
    58   29   30 ar  
    59   29   31 1   
    60   31   32 ar  
    61   31   36 ar  
    62   32   33 ar  
    63   32   62 1   
    64   33   34 ar  
    65   33   63 1   
    66   34   35 ar  
    67   34   64 1   
    68   35   36 ar  
    69   36   65 1   
@<TRIPOS>SUBSTRUCTURE
     1 MPZ         1 TEMP              0 ****  ****    0 ROOT
