@<TRIPOS>MOLECULE
MPZ
   65    69     1     0     0
SMALL
bcc


@<TRIPOS>ATOM
      1 O16        -0.0090    0.5140   -0.6650 o         1 MPZ     -0.585100
      2 C15         1.0250    0.3070   -1.3270 c         1 MPZ      0.682700
      3 C14         0.9680    0.1090   -2.8060 ca        1 MPZ     -0.149600
      4 C13        -0.0610   -0.6830   -3.3280 ca        1 MPZ     -0.095000
      5 C12        -0.1590   -0.8820   -4.7040 ca        1 MPZ     -0.126000
      6 C11         1.8850    0.7170   -3.6680 ca        1 MPZ     -0.095000
      7 C10         1.7790    0.5250   -5.0440 ca        1 MPZ     -0.126000
      8 C09         0.7610   -0.2800   -5.5690 ca        1 MPZ     -0.061300
      9 C08         0.7030   -0.5250   -7.0490 c3        1 MPZ      0.210100
     10 N07        -0.6310   -0.3920   -7.6210 n3        1 MPZ     -0.729600
     11 C06        -0.6810   -0.8930   -8.9890 c3        1 MPZ      0.165800
     12 C05        -2.0720   -0.7360   -9.6310 c3        1 MPZ      0.168300
     13 C04        -1.1550    0.9620   -7.5150 c3        1 MPZ      0.165800
     14 C03        -2.5460    1.1180   -8.1560 c3        1 MPZ      0.168300
     15 NP2        -2.5990    0.6170   -9.5220 n3        1 MPZ     -0.733600
     16 C01        -3.9130    0.7460  -10.1080 c3        1 MPZ      0.157100
     17 N17         2.2900    0.2250   -0.7580 n         1 MPZ     -0.470100
     18 C18         2.6400    0.3730    0.5940 ca        1 MPZ      0.085600
     19 C19         4.0110    0.2800    0.9410 ca        1 MPZ     -0.194000
     20 C20         4.4040    0.4270    2.2630 ca        1 MPZ     -0.095000
     21 C21         3.4790    0.6710    3.2740 ca        1 MPZ     -0.133000
     22 C23         2.1120    0.7540    2.9520 ca        1 MPZ      0.152600
     23 C22         1.6960    0.6030    1.6110 ca        1 MPZ     -0.196000
     24 N24         1.1440    1.0810    3.9340 nh        1 MPZ     -0.703300
     25 C25         0.9320    0.2660    5.0670 ca        1 MPZ      0.871900
     26 N26         1.9270   -0.6160    5.4740 nb        1 MPZ     -0.728000
     27 C27         1.6890   -1.2860    6.6110 ca        1 MPZ      0.461200
     28 C28         0.5160   -1.1420    7.3700 ca        1 MPZ     -0.408600
     29 C30        -0.4550   -0.2390    6.8780 cp        1 MPZ      0.535800
     30 N29        -0.2700    0.4630    5.7360 nb        1 MPZ     -0.745000
     31 C31        -1.7090   -0.0570    7.6240 cp        1 MPZ     -0.274800
     32 C32        -2.3410    1.1910    7.7150 ca        1 MPZ     -0.050000
     33 C36        -3.5210    1.2970    8.4520 ca        1 MPZ     -0.254300
     34 C35        -4.0350    0.1440    9.0720 ca        1 MPZ      0.405200
     35 N34        -3.4490   -1.0670    8.9880 nb        1 MPZ     -0.668000
     36 C33        -2.3120   -1.1580    8.2760 ca        1 MPZ      0.416200
     37 H13        -0.7950   -1.1380   -2.6440 ha        1 MPZ      0.145500
     38 H12        -0.9670   -1.5080   -5.1120 ha        1 MPZ      0.146500
     39 H11         2.6810    1.3670   -3.2730 ha        1 MPZ      0.145500
     40 H10         2.4990    1.0120   -5.7180 ha        1 MPZ      0.146500
     41 H081        1.0440   -1.5880   -7.2300 h1        1 MPZ      0.042700
     42 H082        1.4430    0.1580   -7.5650 h1        1 MPZ      0.042700
     43 H061       -0.4380   -1.9920   -8.9640 h1        1 MPZ      0.039700
     44 H062        0.0810   -0.3840   -9.6480 h1        1 MPZ      0.039700
     45 H051       -2.7710   -1.4950   -9.1700 h1        1 MPZ      0.038200
     46 H052       -1.9740   -0.9790  -10.7260 h1        1 MPZ      0.038200
     47 H041       -1.2480    1.2050   -6.4190 h1        1 MPZ      0.039700
     48 H042       -0.4560    1.7170   -7.9810 h1        1 MPZ      0.039700
     49 H031       -2.7900    2.2170   -8.1850 h1        1 MPZ      0.038200
     50 H032       -3.3090    0.6120   -7.4960 h1        1 MPZ      0.038200
     51 H011       -4.2210    1.8240  -10.0670 h1        1 MPZ      0.032700
     52 H012       -3.8630    0.4250  -11.1810 h1        1 MPZ      0.032700
     53 H013       -4.6980    0.1300   -9.5880 h1        1 MPZ      0.032700
     54 H17         3.0470    0.0220   -1.3740 hn        1 MPZ      0.320500
     55 H19         4.7730    0.0900    0.1700 ha        1 MPZ      0.130000
     56 H20         5.4730    0.3540    2.5190 ha        1 MPZ      0.135000
     57 H21         3.8260    0.7940    4.3100 ha        1 MPZ      0.155000
     58 H22         0.6230    0.6700    1.3620 ha        1 MPZ      0.175000
     59 H24         0.3080    1.4880    3.5590 hn        1 MPZ      0.441800
     60 H27         2.4900   -1.9810    6.9260 h4        1 MPZ      0.028100
     61 H28         0.3650   -1.6980    8.3010 ha        1 MPZ      0.157000
     62 H32        -1.9140    2.0730    7.2120 ha        1 MPZ      0.157000
     63 H36        -4.0410    2.2590    8.5470 ha        1 MPZ      0.147000
     64 H35        -4.9660    0.1850    9.6650 h4        1 MPZ      0.024100
     65 H33        -1.8610   -2.1660    8.2150 h4        1 MPZ      0.026100
@<TRIPOS>BOND
     1    1    2 2   
     2    2    3 1   
     3    2   17 1   
     4    3    4 ar  
     5    3    6 ar  
     6    4    5 ar  
     7    4   37 1   
     8    5    8 ar  
     9    5   38 1   
    10    6    7 ar  
    11    6   39 1   
    12    7    8 ar  
    13    7   40 1   
    14    8    9 1   
    15    9   10 1   
    16    9   41 1   
    17    9   42 1   
    18   10   11 1   
    19   10   13 1   
    20   11   12 1   
    21   11   43 1   
    22   11   44 1   
    23   12   15 1   
    24   12   45 1   
    25   12   46 1   
    26   13   14 1   
    27   13   47 1   
    28   13   48 1   
    29   14   15 1   
    30   14   49 1   
    31   14   50 1   
    32   15   16 1   
    33   16   51 1   
    34   16   52 1   
    35   16   53 1   
    36   17   18 1   
    37   17   54 1   
    38   18   19 ar  
    39   18   23 ar  
    40   19   20 ar  
    41   19   55 1   
    42   20   21 ar  
    43   20   56 1   
    44   21   22 ar  
    45   21   57 1   
    46   22   23 ar  
    47   22   24 1   
    48   23   58 1   
    49   24   25 1   
    50   24   59 1   
    51   25   26 ar  
    52   25   30 ar  
    53   26   27 ar  
    54   27   28 ar  
    55   27   60 1   
    56   28   29 ar  
    57   28   61 1   
    58   29   30 ar  
    59   29   31 1   
    60   31   32 ar  
    61   31   36 ar  
    62   32   33 ar  
    63   32   62 1   
    64   33   34 ar  
    65   33   63 1   
    66   34   35 ar  
    67   34   64 1   
    68   35   36 ar  
    69   36   65 1   
@<TRIPOS>SUBSTRUCTURE
     1 MPZ         1 TEMP              0 ****  ****    0 ROOT
