@<TRIPOS>MOLECULE
MPZ
   67    71     1     0     0
SMALL
bcc


@<TRIPOS>ATOM
      1 O16         1.1690   -3.5210   -1.1850 o         1 MPZ     -0.438100
      2 C15         1.9270   -2.5790   -1.0200 c         1 MPZ      0.601700
      3 C14         2.3240   -1.8790    0.1840 ca        1 MPZ     -0.235600
      4 C13         2.2260   -2.5980    1.3940 ca        1 MPZ     -0.059500
      5 C12         2.5900   -1.9960    2.5940 ca        1 MPZ     -0.122000
      6 C11         2.7670   -0.5430    0.2050 ca        1 MPZ     -0.059500
      7 C10         3.1230    0.0480    1.4070 ca        1 MPZ     -0.122000
      8 C09         3.0480   -0.6720    2.6150 ca        1 MPZ      0.033700
      9 C08         3.4080    0.0290    3.8960 c3        1 MPZ      0.192100
     10 N07         3.9370   -0.8590    4.9170 n3        1 MPZ     -0.744600
     11 C06         3.5970   -0.4170    6.2650 c3        1 MPZ      0.166300
     12 C05         4.2030   -1.3150    7.3620 c3        1 MPZ      0.169300
     13 C04         5.3630   -1.1110    4.7480 c3        1 MPZ      0.166300
     14 C03         5.9510   -2.0070    5.8560 c3        1 MPZ      0.169300
     15 NP2         5.6320   -1.5200    7.1880 n3        1 MPZ     -0.732600
     16 C01         6.2150   -2.3270    8.2360 c3        1 MPZ      0.154100
     17 N17         2.6310   -2.1260   -2.3280 n4        1 MPZ     -0.568200
     18 C18         1.7100   -1.5230   -3.2910 ca        1 MPZ     -0.019400
     19 C19         1.8220   -0.1560   -3.6070 ca        1 MPZ     -0.062000
     20 C20         0.9470    0.4070   -4.5340 ca        1 MPZ     -0.084000
     21 C21        -0.0340   -0.3640   -5.1560 ca        1 MPZ     -0.054000
     22 C23        -0.1360   -1.7310   -4.8390 ca        1 MPZ     -0.013400
     23 C22         0.7230   -2.3210   -3.8970 ca        1 MPZ     -0.059000
     24 N24        -1.1490   -2.5530   -5.5100 n4        1 MPZ     -0.616100
     25 C25        -2.3840   -2.7250   -4.6660 ca        1 MPZ      0.698900
     26 N26        -2.2390   -3.4860   -3.5370 nb        1 MPZ     -0.689000
     27 C27        -3.3770   -3.6540   -2.8270 ca        1 MPZ      0.462200
     28 C28        -4.6030   -3.0910   -3.2150 ca        1 MPZ     -0.301600
     29 C30        -4.6440   -2.3140   -4.4060 cp        1 MPZ      0.577800
     30 N29        -3.5090   -2.1160   -5.1420 nb        1 MPZ     -0.683000
     31 C31        -5.9020   -1.7300   -4.8580 cp        1 MPZ     -0.344800
     32 C32        -5.9550   -0.5150   -5.5660 ca        1 MPZ     -0.035000
     33 C36        -7.1950   -0.0150   -5.9550 ca        1 MPZ     -0.245300
     34 C35        -8.3540   -0.7510   -5.6330 ca        1 MPZ      0.458200
     35 N34        -8.3210   -1.9230   -4.9670 nb        1 MPZ     -0.642000
     36 C33        -7.1240   -2.3980   -4.5920 ca        1 MPZ      0.448200
     37 H13         1.8620   -3.6400    1.3860 ha        1 MPZ      0.142500
     38 H12         2.5170   -2.5710    3.5360 ha        1 MPZ      0.183500
     39 H11         2.8050    0.0630   -0.7130 ha        1 MPZ      0.142500
     40 H10         3.4670    1.0970    1.4200 ha        1 MPZ      0.183500
     41 H081        4.1250    0.8720    3.6530 h1        1 MPZ      0.068700
     42 H082        2.4530    0.5060    4.2740 h1        1 MPZ      0.068700
     43 H061        3.9290    0.6470    6.4460 h1        1 MPZ      0.040700
     44 H062        2.4770   -0.4580    6.3690 h1        1 MPZ      0.040700
     45 H051        4.0430   -0.7990    8.3500 h1        1 MPZ      0.045450
     46 H052        3.6360   -2.2920    7.3840 h1        1 MPZ      0.045450
     47 H041        5.5020   -1.6390    3.7640 h1        1 MPZ      0.040700
     48 H042        5.9530   -0.1490    4.7130 h1        1 MPZ      0.040700
     49 H031        5.5920   -3.0660    5.6960 h1        1 MPZ      0.045450
     50 H032        7.0710   -2.0000    5.7420 h1        1 MPZ      0.045450
     51 H011        7.3260   -2.3640    8.0860 h1        1 MPZ      0.042700
     52 H012        5.8200   -3.3800    8.2590 h1        1 MPZ      0.042700
     53 H013        6.0000   -1.8420    9.2250 h1        1 MPZ      0.042700
     54 H17         3.0560   -2.9580   -2.7600 hn        1 MPZ      0.469800
     55 H19         2.5910    0.4840   -3.1380 ha        1 MPZ      0.180000
     56 H20         1.0330    1.4820   -4.7830 ha        1 MPZ      0.201000
     57 H21        -0.7140    0.1140   -5.8870 ha        1 MPZ      0.190000
     58 H22         0.6110   -3.3870   -3.6130 ha        1 MPZ      0.201000
     59 H24        -0.7620   -3.4900   -5.7020 hn        1 MPZ      0.487300
     60 H27        -3.2790   -4.2730   -1.9110 h4        1 MPZ      0.075100
     61 H28        -5.5100   -3.2390   -2.6070 ha        1 MPZ      0.203000
     62 H32        -5.0370    0.0420   -5.8030 ha        1 MPZ      0.145000
     63 H36        -7.2780    0.9340   -6.5050 ha        1 MPZ      0.171000
     64 H35        -9.3610   -0.3900   -5.9220 h4        1 MPZ      0.057100
     65 H33        -7.1450   -3.3720   -4.0680 h4        1 MPZ      0.032100
     66 H172        3.3790   -1.4600   -2.0970 hn        1 MPZ      0.469800
     67 H242       -1.4150   -2.1080   -6.4050 hn        1 MPZ      0.487300
@<TRIPOS>BOND
     1    1    2 2   
     2    2    3 1   
     3    2   17 1   
     4    3    4 ar  
     5    3    6 ar  
     6    4    5 ar  
     7    4   37 1   
     8    5    8 ar  
     9    5   38 1   
    10    6    7 ar  
    11    6   39 1   
    12    7    8 ar  
    13    7   40 1   
    14    8    9 1   
    15    9   10 1   
    16    9   41 1   
    17    9   42 1   
    18   10   11 1   
    19   10   13 1   
    20   11   12 1   
    21   11   43 1   
    22   11   44 1   
    23   12   15 1   
    24   12   45 1   
    25   12   46 1   
    26   13   14 1   
    27   13   47 1   
    28   13   48 1   
    29   14   15 1   
    30   14   49 1   
    31   14   50 1   
    32   15   16 1   
    33   16   51 1   
    34   16   52 1   
    35   16   53 1   
    36   17   18 1   
    37   17   54 1   
    38   17   66 1   
    39   18   19 ar  
    40   18   23 ar  
    41   19   20 ar  
    42   19   55 1   
    43   20   21 ar  
    44   20   56 1   
    45   21   22 ar  
    46   21   57 1   
    47   22   23 ar  
    48   22   24 1   
    49   23   58 1   
    50   24   25 1   
    51   24   59 1   
    52   24   67 1   
    53   25   26 ar  
    54   25   30 ar  
    55   26   27 ar  
    56   27   28 ar  
    57   27   60 1   
    58   28   29 ar  
    59   28   61 1   
    60   29   30 ar  
    61   29   31 1   
    62   31   32 ar  
    63   31   36 ar  
    64   32   33 ar  
    65   32   62 1   
    66   33   34 ar  
    67   33   63 1   
    68   34   35 ar  
    69   34   64 1   
    70   35   36 ar  
    71   36   65 1   
@<TRIPOS>SUBSTRUCTURE
     1 MPZ         1 TEMP              0 ****  ****    0 ROOT
