@<TRIPOS>MOLECULE
MPZ
   65    69     1     0     0
SMALL
bcc


@<TRIPOS>ATOM
      1 O16         0.7510   -1.7050   -0.5580 o         1 MPZ     -0.585100
      2 C15         1.5660   -0.7690   -0.4610 c         1 MPZ      0.682700
      3 C14         2.4490   -0.6350    0.7370 ca        1 MPZ     -0.149600
      4 C13         1.8910   -0.8760    1.9980 ca        1 MPZ     -0.095000
      5 C12         2.6830   -0.7750    3.1400 ca        1 MPZ     -0.126000
      6 C11         3.8040   -0.3150    0.6220 ca        1 MPZ     -0.095000
      7 C10         4.5950   -0.2250    1.7660 ca        1 MPZ     -0.126000
      8 C09         4.0390   -0.4490    3.0310 ca        1 MPZ     -0.061300
      9 C08         4.8940   -0.2850    4.2540 c3        1 MPZ      0.210100
     10 N07         4.7530   -1.3620    5.2260 n3        1 MPZ     -0.729600
     11 C06         5.3910   -1.0280    6.4930 c3        1 MPZ      0.165800
     12 C05         5.2860   -2.1620    7.5300 c3        1 MPZ      0.168300
     13 C04         5.2030   -2.6470    4.7080 c3        1 MPZ      0.165800
     14 C03         5.0970   -3.7800    5.7450 c3        1 MPZ      0.168300
     15 NP2         5.7310   -3.4480    7.0130 n3        1 MPZ     -0.733600
     16 C01         5.6070   -4.5080    7.9880 c3        1 MPZ      0.157100
     17 N17         1.7090    0.2200   -1.4260 ns        1 MPZ     -0.470100
     18 C18         1.0230    0.3420   -2.6460 ca        1 MPZ      0.085600
     19 C19         1.3720    1.4180   -3.5010 ca        1 MPZ     -0.194000
     20 C20         0.7250    1.5740   -4.7180 ca        1 MPZ     -0.095000
     21 C21        -0.2680    0.6910   -5.1330 ca        1 MPZ     -0.133000
     22 C23        -0.6370   -0.3750   -4.2930 ca        1 MPZ      0.152600
     23 C22         0.0100   -0.5450   -3.0490 ca        1 MPZ     -0.196000
     24 N24        -1.5840   -1.3440   -4.7080 nu        1 MPZ     -0.703300
     25 C25        -2.9160   -0.9940   -5.0190 ca        1 MPZ      0.871900
     26 N26        -3.2220    0.3220   -5.3450 nb        1 MPZ     -0.728000
     27 C27        -4.4870    0.5560   -5.7190 ca        1 MPZ      0.461200
     28 C28        -5.4780   -0.4380   -5.7830 ca        1 MPZ     -0.408600
     29 C30        -5.0910   -1.7480   -5.4180 cp        1 MPZ      0.535800
     30 N29        -3.8280   -2.0430   -5.0310 nb        1 MPZ     -0.745000
     31 C31        -6.0890   -2.8280   -5.4530 cp        1 MPZ     -0.274800
     32 C32        -5.7540   -4.1320   -5.8430 ca        1 MPZ     -0.050000
     33 C36        -6.7540   -5.1040   -5.8700 ca        1 MPZ     -0.254300
     34 C35        -8.0600   -4.7400   -5.4970 ca        1 MPZ      0.405200
     35 N34        -8.4000   -3.4950   -5.1090 nb        1 MPZ     -0.668000
     36 C33        -7.4290   -2.5640   -5.0880 ca        1 MPZ      0.416200
     37 H13         0.8280   -1.1540    2.0770 ha        1 MPZ      0.145500
     38 H12         2.2420   -0.9620    4.1320 ha        1 MPZ      0.146500
     39 H11         4.2620   -0.1530   -0.3650 ha        1 MPZ      0.145500
     40 H10         5.6640    0.0200    1.6690 ha        1 MPZ      0.146500
     41 H081        4.5770    0.6730    4.7630 h1        1 MPZ      0.042700
     42 H082        5.9720   -0.1550    3.9350 h1        1 MPZ      0.042700
     43 H061        6.4800   -0.7630    6.3550 h1        1 MPZ      0.039700
     44 H062        4.8660   -0.1270    6.9170 h1        1 MPZ      0.039700
     45 H051        4.2220   -2.2090    7.9070 h1        1 MPZ      0.038200
     46 H052        5.9490   -1.8930    8.4000 h1        1 MPZ      0.038200
     47 H041        6.2680   -2.5960    4.3370 h1        1 MPZ      0.039700
     48 H042        4.5420   -2.9110    3.8350 h1        1 MPZ      0.039700
     49 H031        5.6240   -4.6820    5.3240 h1        1 MPZ      0.038200
     50 H032        4.0080   -4.0470    5.8810 h1        1 MPZ      0.038200
     51 H011        6.1890   -4.2250    8.9040 h1        1 MPZ      0.032700
     52 H012        6.0450   -5.4460    7.5570 h1        1 MPZ      0.032700
     53 H013        4.5440   -4.7150    8.2900 h1        1 MPZ      0.032700
     54 H17         2.3700    0.9420   -1.2350 hn        1 MPZ      0.320500
     55 H19         2.1530    2.1350   -3.2090 ha        1 MPZ      0.130000
     56 H20         1.0070    2.4130   -5.3740 ha        1 MPZ      0.135000
     57 H21        -0.7520    0.8380   -6.1100 ha        1 MPZ      0.155000
     58 H22        -0.2820   -1.3830   -2.3930 ha        1 MPZ      0.175000
     59 H24        -1.4890   -2.2280   -4.2440 hn        1 MPZ      0.441800
     60 H27        -4.7170    1.6070   -5.9800 h4        1 MPZ      0.028100
     61 H28        -6.4980   -0.2090   -6.1070 ha        1 MPZ      0.157000
     62 H32        -4.7200   -4.3850   -6.1240 ha        1 MPZ      0.157000
     63 H36        -6.5290   -6.1360   -6.1730 ha        1 MPZ      0.147000
     64 H35        -8.8800   -5.4800   -5.5040 h4        1 MPZ      0.024100
     65 H33        -7.7370   -1.5560   -4.7540 h4        1 MPZ      0.026100
@<TRIPOS>BOND
     1    1    2 2   
     2    2    3 1   
     3    2   17 1   
     4    3    4 ar  
     5    3    6 ar  
     6    4    5 ar  
     7    4   37 1   
     8    5    8 ar  
     9    5   38 1   
    10    6    7 ar  
    11    6   39 1   
    12    7    8 ar  
    13    7   40 1   
    14    8    9 1   
    15    9   10 1   
    16    9   41 1   
    17    9   42 1   
    18   10   11 1   
    19   10   13 1   
    20   11   12 1   
    21   11   43 1   
    22   11   44 1   
    23   12   15 1   
    24   12   45 1   
    25   12   46 1   
    26   13   14 1   
    27   13   47 1   
    28   13   48 1   
    29   14   15 1   
    30   14   49 1   
    31   14   50 1   
    32   15   16 1   
    33   16   51 1   
    34   16   52 1   
    35   16   53 1   
    36   17   18 1   
    37   17   54 1   
    38   18   19 ar  
    39   18   23 ar  
    40   19   20 ar  
    41   19   55 1   
    42   20   21 ar  
    43   20   56 1   
    44   21   22 ar  
    45   21   57 1   
    46   22   23 ar  
    47   22   24 1   
    48   23   58 1   
    49   24   25 1   
    50   24   59 1   
    51   25   26 ar  
    52   25   30 ar  
    53   26   27 ar  
    54   27   28 ar  
    55   27   60 1   
    56   28   29 ar  
    57   28   61 1   
    58   29   30 ar  
    59   29   31 1   
    60   31   32 ar  
    61   31   36 ar  
    62   32   33 ar  
    63   32   62 1   
    64   33   34 ar  
    65   33   63 1   
    66   34   35 ar  
    67   34   64 1   
    68   35   36 ar  
    69   36   65 1   
@<TRIPOS>SUBSTRUCTURE
     1 MPZ         1 TEMP              0 ****  ****    0 ROOT
