@<TRIPOS>MOLECULE
MQ0
   49    52     1     0     0
SMALL
bcc


@<TRIPOS>ATOM
      1 C1         -0.2510   -0.8040    0.3400 ca        1 MQ0     -0.116000
      2 C2          1.0990   -1.0900    0.3570 ca        1 MQ0     -0.096000
      3 C3          1.8710   -0.8400    1.5100 ca        1 MQ0     -0.094000
      4 C4          1.2960   -0.2890    2.6350 ca        1 MQ0     -0.146300
      5 C5         -0.0910    0.0190    2.6400 ca        1 MQ0      0.345600
      6 N6         -0.6710    0.6140    3.7820 nb        1 MQ0     -0.263000
      7 N7         -1.8740    0.8950    3.8250 nb        1 MQ0     -0.267000
      8 C8         -2.7430    0.6230    2.7590 ca        1 MQ0      0.164600
      9 C9         -2.2950    0.0450    1.5570 ca        1 MQ0      0.177100
     10 C10        -0.8820   -0.2640    1.4830 ca        1 MQ0     -0.155300
     11 N11        -3.1920   -0.0730    0.4940 ne        1 MQ0     -0.712100
     12 C12        -3.2990   -1.1480   -0.2310 cf        1 MQ0      0.589500
     13 C13        -4.2070   -1.2270   -1.3610 cf        1 MQ0     -0.321600
     14 C16        -5.3350   -2.3810   -3.1990 ca        1 MQ0     -0.112800
     15 C15        -4.4610   -2.3840   -2.0260 ce        1 MQ0      0.137600
     16 C17        -5.3220   -1.3040   -4.0990 ca        1 MQ0     -0.103750
     17 C18        -6.1650   -1.3060   -5.2080 ca        1 MQ0     -0.129500
     18 C19        -7.0330   -2.3760   -5.4270 ca        1 MQ0     -0.099500
     19 C20        -4.1840    0.9630    2.9650 c3        1 MQ0      0.108500
     20 N19        -4.5430    2.1800    2.1650 n4        1 MQ0     -0.842600
     21 C21        -7.0520   -3.4500   -4.5370 ca        1 MQ0     -0.129500
     22 C22        -6.2040   -3.4590   -3.4320 ca        1 MQ0     -0.103750
     23 C23        -3.8980   -3.6760   -1.6230 ca        1 MQ0     -0.112800
     24 C24        -4.0990   -4.1730   -0.3270 ca        1 MQ0     -0.103750
     25 C25        -3.5660   -5.4060    0.0420 ca        1 MQ0     -0.129500
     26 C26        -2.8210   -6.1500   -0.8740 ca        1 MQ0     -0.099500
     27 C27        -2.6190   -5.6620   -2.1650 ca        1 MQ0     -0.129500
     28 C28        -3.1590   -4.4340   -2.5440 ca        1 MQ0     -0.103750
     29 HC1        -0.8310   -0.9890   -0.5780 ha        1 MQ0      0.146000
     30 HC2         1.5860   -1.5140   -0.5360 ha        1 MQ0      0.157000
     31 HC3         2.9470   -1.0830    1.5000 ha        1 MQ0      0.161000
     32 HC4         1.9000   -0.0800    3.5340 ha        1 MQ0      0.174000
     33 HC12       -2.7160   -2.0780   -0.0190 h4        1 MQ0      0.008800
     34 HC13       -4.6880   -0.2910   -1.6940 ha        1 MQ0      0.151000
     35 HC17       -4.6320   -0.4620   -3.9390 ha        1 MQ0      0.139500
     36 HC18       -6.1430   -0.4620   -5.9140 ha        1 MQ0      0.146750
     37 HC19       -7.7000   -2.3740   -6.3030 ha        1 MQ0      0.148000
     38 H201       -4.4110    1.1880    4.0490 hx        1 MQ0      0.115700
     39 H202       -4.8490    0.1190    2.6210 hx        1 MQ0      0.115700
     40 HN91       -4.4030    1.9960    1.1630 hn        1 MQ0      0.460133
     41 HN92       -5.5190    2.4340    2.3270 hn        1 MQ0      0.460133
     42 HC21       -7.7340   -4.2970   -4.7100 ha        1 MQ0      0.146750
     43 HC22       -6.2150   -4.3120   -2.7360 ha        1 MQ0      0.139500
     44 HC24       -4.6980   -3.5960    0.3930 ha        1 MQ0      0.139500
     45 HC25       -3.7370   -5.7960    1.0570 ha        1 MQ0      0.146750
     46 HC26       -2.4010   -7.1240   -0.5810 ha        1 MQ0      0.148000
     47 HC27       -2.0360   -6.2500   -2.8920 ha        1 MQ0      0.146750
     48 HC28       -3.0110   -4.0580   -3.5680 ha        1 MQ0      0.139500
     49 H193       -3.9390    2.9610    2.4390 hn        1 MQ0      0.460133
@<TRIPOS>BOND
     1    1    2 ar  
     2    1   10 ar  
     3    1   29 1   
     4    2    3 ar  
     5    2   30 1   
     6    3    4 ar  
     7    3   31 1   
     8    4    5 ar  
     9    4   32 1   
    10    5    6 ar  
    11    5   10 ar  
    12    6    7 ar  
    13    7    8 ar  
    14    8    9 ar  
    15    8   19 1   
    16    9   10 ar  
    17    9   11 1   
    18   11   12 2   
    19   12   13 1   
    20   12   33 1   
    21   13   15 2   
    22   13   34 1   
    23   14   15 1   
    24   14   16 ar  
    25   14   22 ar  
    26   15   23 1   
    27   16   17 ar  
    28   16   35 1   
    29   17   18 ar  
    30   17   36 1   
    31   18   21 ar  
    32   18   37 1   
    33   19   20 1   
    34   19   38 1   
    35   19   39 1   
    36   20   40 1   
    37   20   41 1   
    38   20   49 1   
    39   21   22 ar  
    40   21   42 1   
    41   22   43 1   
    42   23   24 ar  
    43   23   28 ar  
    44   24   25 ar  
    45   24   44 1   
    46   25   26 ar  
    47   25   45 1   
    48   26   27 ar  
    49   26   46 1   
    50   27   28 ar  
    51   27   47 1   
    52   28   48 1   
@<TRIPOS>SUBSTRUCTURE
     1 MQ0         1 TEMP              0 ****  ****    0 ROOT
