@<TRIPOS>MOLECULE
MQ0
   49    52     1     0     0
SMALL
bcc


@<TRIPOS>ATOM
      1 C1         -0.2540   -0.7890    0.3360 ca        1 MQ0     -0.116000
      2 C2          1.0970   -1.0660    0.3490 ca        1 MQ0     -0.096000
      3 C3          1.8710   -0.8150    1.5000 ca        1 MQ0     -0.094000
      4 C4          1.2950   -0.2730    2.6290 ca        1 MQ0     -0.146300
      5 C5         -0.0940    0.0270    2.6390 ca        1 MQ0      0.345600
      6 N6         -0.6750    0.6140    3.7840 nb        1 MQ0     -0.263000
      7 N7         -1.8800    0.8870    3.8310 nb        1 MQ0     -0.267000
      8 C8         -2.7490    0.6140    2.7660 ca        1 MQ0      0.164600
      9 C9         -2.3000    0.0430    1.5610 ca        1 MQ0      0.177100
     10 C10        -0.8850   -0.2570    1.4830 ca        1 MQ0     -0.155300
     11 N11        -3.2000   -0.0770    0.4990 ne        1 MQ0     -0.712100
     12 C12        -3.3010   -1.1490   -0.2290 cf        1 MQ0      0.589500
     13 C13        -4.2110   -1.2300   -1.3580 cf        1 MQ0     -0.321600
     14 C16        -5.3370   -2.3840   -3.1970 ca        1 MQ0     -0.112800
     15 C15        -4.4600   -2.3850   -2.0250 ce        1 MQ0      0.137600
     16 C17        -5.3320   -1.3040   -4.0930 ca        1 MQ0     -0.103750
     17 C18        -6.1770   -1.3060   -5.2000 ca        1 MQ0     -0.129500
     18 C19        -7.0400   -2.3800   -5.4210 ca        1 MQ0     -0.099500
     19 C20        -4.1920    0.9440    2.9770 c3        1 MQ0      0.108500
     20 N19        -4.5600    2.1620    2.1820 nz        1 MQ0     -0.842600
     21 C21        -7.0510   -3.4580   -4.5350 ca        1 MQ0     -0.129500
     22 C22        -6.2010   -3.4660   -3.4320 ca        1 MQ0     -0.103750
     23 C23        -3.8890   -3.6760   -1.6290 ca        1 MQ0     -0.112800
     24 C24        -4.0840   -4.1780   -0.3340 ca        1 MQ0     -0.103750
     25 C25        -3.5430   -5.4100    0.0300 ca        1 MQ0     -0.129500
     26 C26        -2.7970   -6.1470   -0.8910 ca        1 MQ0     -0.099500
     27 C27        -2.6000   -5.6530   -2.1810 ca        1 MQ0     -0.129500
     28 C28        -3.1490   -4.4270   -2.5540 ca        1 MQ0     -0.103750
     29 HC1        -0.8350   -0.9730   -0.5810 ha        1 MQ0      0.146000
     30 HC2         1.5860   -1.4840   -0.5470 ha        1 MQ0      0.157000
     31 HC3         2.9480   -1.0510    1.4880 ha        1 MQ0      0.161000
     32 HC4         1.9010   -0.0640    3.5280 ha        1 MQ0      0.174000
     33 HC12       -2.7120   -2.0770   -0.0220 h4        1 MQ0      0.008800
     34 HC13       -4.6980   -0.2950   -1.6860 ha        1 MQ0      0.151000
     35 HC17       -4.6460   -0.4590   -3.9320 ha        1 MQ0      0.139500
     36 HC18       -6.1610   -0.4600   -5.9030 ha        1 MQ0      0.146750
     37 HC19       -7.7090   -2.3790   -6.2960 ha        1 MQ0      0.148000
     38 H201       -4.4170    1.1630    4.0630 hx        1 MQ0      0.115700
     39 H202       -4.8530    0.0980    2.6310 hx        1 MQ0      0.115700
     40 HN91       -4.4210    1.9830    1.1800 hn        1 MQ0      0.460133
     41 HN92       -5.5380    2.4090    2.3480 hn        1 MQ0      0.460133
     42 HC21       -7.7290   -4.3070   -4.7090 ha        1 MQ0      0.146750
     43 HC22       -6.2050   -4.3210   -2.7380 ha        1 MQ0      0.139500
     44 HC24       -4.6840   -3.6070    0.3900 ha        1 MQ0      0.139500
     45 HC25       -3.7090   -5.8040    1.0440 ha        1 MQ0      0.146750
     46 HC26       -2.3700   -7.1190   -0.6020 ha        1 MQ0      0.148000
     47 HC27       -2.0170   -6.2350   -2.9110 ha        1 MQ0      0.146750
     48 HC28       -3.0050   -4.0460   -3.5770 ha        1 MQ0      0.139500
     49 H193       -3.9610    2.9460    2.4580 hn        1 MQ0      0.460133
@<TRIPOS>BOND
     1    1    2 ar  
     2    1   10 ar  
     3    1   29 1   
     4    2    3 ar  
     5    2   30 1   
     6    3    4 ar  
     7    3   31 1   
     8    4    5 ar  
     9    4   32 1   
    10    5    6 ar  
    11    5   10 ar  
    12    6    7 ar  
    13    7    8 ar  
    14    8    9 ar  
    15    8   19 1   
    16    9   10 ar  
    17    9   11 1   
    18   11   12 2   
    19   12   13 1   
    20   12   33 1   
    21   13   15 2   
    22   13   34 1   
    23   14   15 1   
    24   14   16 ar  
    25   14   22 ar  
    26   15   23 1   
    27   16   17 ar  
    28   16   35 1   
    29   17   18 ar  
    30   17   36 1   
    31   18   21 ar  
    32   18   37 1   
    33   19   20 1   
    34   19   38 1   
    35   19   39 1   
    36   20   40 1   
    37   20   41 1   
    38   20   49 1   
    39   21   22 ar  
    40   21   42 1   
    41   22   43 1   
    42   23   24 ar  
    43   23   28 ar  
    44   24   25 ar  
    45   24   44 1   
    46   25   26 ar  
    47   25   45 1   
    48   26   27 ar  
    49   26   46 1   
    50   27   28 ar  
    51   27   47 1   
    52   28   48 1   
@<TRIPOS>SUBSTRUCTURE
     1 MQ0         1 TEMP              0 ****  ****    0 ROOT
