@<TRIPOS>MOLECULE
MQ0
   48    51     1     0     0
SMALL
bcc


@<TRIPOS>ATOM
      1 C1         -0.3530    2.5740   -3.0620 ca        1 MQ0     -0.106000
      2 C2         -0.8890    3.3770   -4.0410 ca        1 MQ0     -0.118000
      3 C3         -1.0030    2.9140   -5.3710 ca        1 MQ0     -0.125000
      4 C4         -0.5760    1.6530   -5.7120 ca        1 MQ0     -0.150300
      5 C5         -0.0150    0.7980   -4.7190 ca        1 MQ0      0.317600
      6 N6          0.4230   -0.4920   -5.0660 nb        1 MQ0     -0.287000
      7 N7          0.9190   -1.2550   -4.2220 nb        1 MQ0     -0.294000
      8 C8          1.0690   -0.9040   -2.8770 ca        1 MQ0      0.242600
      9 C9          0.6650    0.3560   -2.4080 ca        1 MQ0      0.095100
     10 C10         0.0930    1.2660   -3.3750 ca        1 MQ0     -0.109300
     11 N11         0.9080    0.8020   -1.0970 ne        1 MQ0     -0.584100
     12 C12         0.2750    0.3210   -0.0790 cf        1 MQ0      0.510500
     13 C13         0.5470    0.7860    1.2820 cf        1 MQ0     -0.241600
     14 C16         0.3290    0.7200    3.7160 ca        1 MQ0     -0.076300
     15 C15         0.0450    0.1810    2.3810 ce        1 MQ0      0.046600
     16 C17         0.3530    2.1060    3.9330 ca        1 MQ0     -0.111250
     17 C18         0.6370    2.6130    5.1990 ca        1 MQ0     -0.132250
     18 C19         0.9050    1.7460    6.2580 ca        1 MQ0     -0.119000
     19 C20         1.7100   -1.9070   -1.9410 c3        1 MQ0      0.119500
     20 N19         2.0300   -3.2130   -2.4430 n3        1 MQ0     -0.894800
     21 C21         0.8830    0.3660    6.0490 ca        1 MQ0     -0.132250
     22 C22         0.5930   -0.1460    4.7860 ca        1 MQ0     -0.111250
     23 C23        -0.7880   -1.0260    2.3260 ca        1 MQ0     -0.076300
     24 C24        -0.3130   -2.1930    1.7130 ca        1 MQ0     -0.111250
     25 C25        -1.1090   -3.3370    1.6690 ca        1 MQ0     -0.132250
     26 C26        -2.3870   -3.3220    2.2270 ca        1 MQ0     -0.119000
     27 C27        -2.8660   -2.1630    2.8370 ca        1 MQ0     -0.132250
     28 C28        -2.0710   -1.0200    2.8920 ca        1 MQ0     -0.111250
     29 HC1        -0.2590    2.9490   -2.0310 ha        1 MQ0      0.149000
     30 HC2        -1.2340    4.3940   -3.7980 ha        1 MQ0      0.138000
     31 HC3        -1.4360    3.5790   -6.1340 ha        1 MQ0      0.139000
     32 HC4        -0.6590    1.2880   -6.7480 ha        1 MQ0      0.154000
     33 HC12       -0.5160   -0.4620   -0.1570 h4        1 MQ0     -0.007200
     34 HC13        1.1950    1.6750    1.3870 ha        1 MQ0      0.154000
     35 HC17        0.1400    2.7940    3.1020 ha        1 MQ0      0.140250
     36 HC18        0.6510    3.7010    5.3620 ha        1 MQ0      0.136750
     37 HC19        1.1320    2.1480    7.2560 ha        1 MQ0      0.135000
     38 H201        1.0120   -2.0440   -1.0630 h1        1 MQ0      0.061200
     39 H202        2.6640   -1.4400   -1.5560 h1        1 MQ0      0.061200
     40 HN91        1.2160   -3.6740   -2.8020 hn        1 MQ0      0.357800
     41 HN92        2.7160   -3.1630   -3.1720 hn        1 MQ0      0.357800
     42 HC21        1.0940   -0.3200    6.8820 ha        1 MQ0      0.136750
     43 HC22        0.5730   -1.2350    4.6230 ha        1 MQ0      0.140250
     44 HC24        0.6960   -2.2080    1.2730 ha        1 MQ0      0.140250
     45 HC25       -0.7260   -4.2500    1.1900 ha        1 MQ0      0.136750
     46 HC26       -3.0160   -4.2240    2.1880 ha        1 MQ0      0.135000
     47 HC27       -3.8740   -2.1490    3.2780 ha        1 MQ0      0.136750
     48 HC28       -2.4480   -0.1080    3.3800 ha        1 MQ0      0.140250
@<TRIPOS>BOND
     1    1    2 ar  
     2    1   10 ar  
     3    1   29 1   
     4    2    3 ar  
     5    2   30 1   
     6    3    4 ar  
     7    3   31 1   
     8    4    5 ar  
     9    4   32 1   
    10    5    6 ar  
    11    5   10 ar  
    12    6    7 ar  
    13    7    8 ar  
    14    8    9 ar  
    15    8   19 1   
    16    9   10 ar  
    17    9   11 1   
    18   11   12 2   
    19   12   13 1   
    20   12   33 1   
    21   13   15 2   
    22   13   34 1   
    23   14   15 1   
    24   14   16 ar  
    25   14   22 ar  
    26   15   23 1   
    27   16   17 ar  
    28   16   35 1   
    29   17   18 ar  
    30   17   36 1   
    31   18   21 ar  
    32   18   37 1   
    33   19   20 1   
    34   19   38 1   
    35   19   39 1   
    36   20   40 1   
    37   20   41 1   
    38   21   22 ar  
    39   21   42 1   
    40   22   43 1   
    41   23   24 ar  
    42   23   28 ar  
    43   24   25 ar  
    44   24   44 1   
    45   25   26 ar  
    46   25   45 1   
    47   26   27 ar  
    48   26   46 1   
    49   27   28 ar  
    50   27   47 1   
    51   28   48 1   
@<TRIPOS>SUBSTRUCTURE
     1 MQ0         1 TEMP              0 ****  ****    0 ROOT
