@<TRIPOS>MOLECULE
MQ1
   35    37     1     0     0
SMALL
bcc


@<TRIPOS>ATOM
      1 C1         -0.1540    0.0220    0.1720 ca        1 MQ1      0.503600
      2 C2          1.2560   -0.1040   -0.0660 ca        1 MQ1     -0.350600
      3 C3          2.1080    0.0170    1.1190 ca        1 MQ1      0.758200
      4 N4          1.5830    0.1250    2.3630 nb        1 MQ1     -0.845000
      5 C5          0.1910    0.1700    2.4730 ca        1 MQ1      0.916900
      6 N6         -0.6870    0.1720    1.4250 nb        1 MQ1     -0.804000
      7 N7          3.4780    0.1000    1.0160 nh        1 MQ1     -0.952500
      8 C8         -1.0570   -0.0060   -0.9440 ca        1 MQ1     -0.222300
      9 C9         -0.5860   -0.1830   -2.2180 ca        1 MQ1     -0.071000
     10 C12         0.7900   -0.3570   -2.4620 ca        1 MQ1     -0.223000
     11 C13         1.6820   -0.3270   -1.4040 ca        1 MQ1      0.168100
     12 N14        -0.3320    0.1660    3.7720 nh        1 MQ1     -0.926500
     13 O20         3.0280   -0.6200   -1.6160 os        1 MQ1     -0.277200
     14 C22         3.5780   -0.1690   -2.8170 ca        1 MQ1      0.056100
     15 C23         4.3620   -1.0920   -3.5280 ca        1 MQ1     -0.111500
     16 C24         5.0410   -0.6710   -4.6630 ca        1 MQ1     -0.164500
     17 C25         4.9210    0.6670   -5.0880 ca        1 MQ1      0.116100
     18 C26         4.1290    1.5790   -4.3810 ca        1 MQ1     -0.164500
     19 C27         3.4540    1.1580   -3.2370 ca        1 MQ1     -0.111500
     20 O32         5.6350    0.9720   -6.2310 os        1 MQ1     -0.324900
     21 C33         5.5450    2.3170   -6.6870 c3        1 MQ1      0.112700
     22 H71         3.9160   -0.1670    0.1680 hn        1 MQ1      0.442300
     23 H72         4.0260    0.0740    1.8430 hn        1 MQ1      0.442300
     24 H8         -2.1350    0.1130   -0.7530 ha        1 MQ1      0.154000
     25 H9         -1.2820   -0.2040   -3.0710 ha        1 MQ1      0.136000
     26 H12         1.1510   -0.5200   -3.4870 ha        1 MQ1      0.149000
     27 H141        0.2850    0.4380    4.5010 hn        1 MQ1      0.424800
     28 H142       -1.2790    0.4530    3.8660 hn        1 MQ1      0.424800
     29 H23         4.4390   -2.1310   -3.1750 ha        1 MQ1      0.152500
     30 H24         5.6690   -1.3670   -5.2380 ha        1 MQ1      0.149000
     31 H26         4.0320    2.6230   -4.7120 ha        1 MQ1      0.149000
     32 H27         2.8240    1.8590   -2.6700 ha        1 MQ1      0.152500
     33 H331        4.4910    2.5750   -6.9510 h1        1 MQ1      0.046033
     34 H332        6.1940    2.3250   -7.6000 h1        1 MQ1      0.046033
     35 H333        5.9410    3.0230   -5.9170 h1        1 MQ1      0.046033
@<TRIPOS>BOND
     1    1    2 ar  
     2    1    6 ar  
     3    1    8 ar  
     4    2    3 ar  
     5    2   11 ar  
     6    3    4 ar  
     7    3    7 1   
     8    4    5 ar  
     9    5    6 ar  
    10    5   12 1   
    11    7   22 1   
    12    7   23 1   
    13    8    9 ar  
    14    8   24 1   
    15    9   10 ar  
    16    9   25 1   
    17   10   11 ar  
    18   10   26 1   
    19   11   13 1   
    20   12   27 1   
    21   12   28 1   
    22   13   14 1   
    23   14   15 ar  
    24   14   19 ar  
    25   15   16 ar  
    26   15   29 1   
    27   16   17 ar  
    28   16   30 1   
    29   17   18 ar  
    30   17   20 1   
    31   18   19 ar  
    32   18   31 1   
    33   19   32 1   
    34   20   21 1   
    35   21   33 1   
    36   21   34 1   
    37   21   35 1   
@<TRIPOS>SUBSTRUCTURE
     1 MQ1         1 TEMP              0 ****  ****    0 ROOT
