@<TRIPOS>MOLECULE
MQ1
   35    37     1     0     0
SMALL
bcc


@<TRIPOS>ATOM
      1 C1         -0.1390    0.0180    0.1630 ca        1 MQ1      0.503600
      2 C2          1.2670   -0.1400   -0.0770 ca        1 MQ1     -0.351600
      3 C3          2.1250   -0.0320    1.1050 ca        1 MQ1      0.764200
      4 N4          1.6070    0.1500    2.3450 nb        1 MQ1     -0.850000
      5 C5          0.2230    0.3010    2.4490 ca        1 MQ1      0.918900
      6 N6         -0.6640    0.2270    1.4100 nb        1 MQ1     -0.805000
      7 N7          3.4940   -0.0700    1.0110 nv        1 MQ1     -0.958500
      8 C8         -1.0500   -0.0460   -0.9450 ca        1 MQ1     -0.221300
      9 C9         -0.5900   -0.2640   -2.2170 ca        1 MQ1     -0.071000
     10 C12         0.7840   -0.4430   -2.4650 ca        1 MQ1     -0.221000
     11 C13         1.6830   -0.3890   -1.4140 ca        1 MQ1      0.167100
     12 N14        -0.2770    0.6080    3.7200 nv        1 MQ1     -0.928500
     13 O20         3.0280   -0.6820   -1.6390 os        1 MQ1     -0.278200
     14 C22         3.5740   -0.1960   -2.8280 ca        1 MQ1      0.057100
     15 C23         4.3710   -1.0920   -3.5580 ca        1 MQ1     -0.112000
     16 C24         5.0450   -0.6370   -4.6830 ca        1 MQ1     -0.164000
     17 C25         4.9070    0.7090   -5.0790 ca        1 MQ1      0.116100
     18 C26         4.1020    1.5940   -4.3520 ca        1 MQ1     -0.164000
     19 C27         3.4330    1.1390   -3.2180 ca        1 MQ1     -0.112000
     20 O32         5.6170    1.0490   -6.2140 os        1 MQ1     -0.324900
     21 C33         5.5100    2.4030   -6.6390 c3        1 MQ1      0.112700
     22 H71         3.9230   -0.3550    0.1660 hn        1 MQ1      0.446300
     23 H72         4.0420   -0.0660    1.8370 hn        1 MQ1      0.446300
     24 H8         -2.1260    0.0860   -0.7500 ha        1 MQ1      0.154000
     25 H9         -1.2930   -0.3090   -3.0640 ha        1 MQ1      0.137000
     26 H12         1.1390   -0.6270   -3.4890 ha        1 MQ1      0.149000
     27 H141       -1.2500    0.4630    3.8590 hn        1 MQ1      0.424800
     28 H142        0.3140    0.4050    4.4920 hn        1 MQ1      0.424800
     29 H23         4.4630   -2.1370   -3.2280 ha        1 MQ1      0.153000
     30 H24         5.6830   -1.3110   -5.2730 ha        1 MQ1      0.149500
     31 H26         3.9910    2.6430   -4.6590 ha        1 MQ1      0.149500
     32 H27         2.7920    1.8180   -2.6360 ha        1 MQ1      0.153000
     33 H331        5.8960    3.0950   -5.8520 h1        1 MQ1      0.046033
     34 H332        6.1600    2.4400   -7.5500 h1        1 MQ1      0.046033
     35 H333        4.4530    2.6540   -6.8980 h1        1 MQ1      0.046033
@<TRIPOS>BOND
     1    1    2 ar  
     2    1    6 ar  
     3    1    8 ar  
     4    2    3 ar  
     5    2   11 ar  
     6    3    4 ar  
     7    3    7 1   
     8    4    5 ar  
     9    5    6 ar  
    10    5   12 1   
    11    7   22 1   
    12    7   23 1   
    13    8    9 ar  
    14    8   24 1   
    15    9   10 ar  
    16    9   25 1   
    17   10   11 ar  
    18   10   26 1   
    19   11   13 1   
    20   12   27 1   
    21   12   28 1   
    22   13   14 1   
    23   14   15 ar  
    24   14   19 ar  
    25   15   16 ar  
    26   15   29 1   
    27   16   17 ar  
    28   16   30 1   
    29   17   18 ar  
    30   17   20 1   
    31   18   19 ar  
    32   18   31 1   
    33   19   32 1   
    34   20   21 1   
    35   21   33 1   
    36   21   34 1   
    37   21   35 1   
@<TRIPOS>SUBSTRUCTURE
     1 MQ1         1 TEMP              0 ****  ****    0 ROOT
