@<TRIPOS>MOLECULE
MQ1
   35    37     1     0     0
SMALL
bcc


@<TRIPOS>ATOM
      1 C1          1.2340    0.0580   -2.7970 ca        1 MQ1      0.503600
      2 C2          0.1560   -0.1640   -1.8760 ca        1 MQ1     -0.350600
      3 C3         -1.1900    0.0050   -2.4280 ca        1 MQ1      0.758200
      4 N4         -1.3920    0.2430   -3.7470 nb        1 MQ1     -0.845000
      5 C5         -0.2620    0.3730   -4.5570 ca        1 MQ1      0.916900
      6 N6          1.0340    0.3370   -4.1230 nb        1 MQ1     -0.804000
      7 N7         -2.3050    0.0040   -1.6220 nh        1 MQ1     -0.952500
      8 C8          2.5860   -0.0110   -2.3200 ca        1 MQ1     -0.222300
      9 C9          2.8500   -0.3170   -1.0100 ca        1 MQ1     -0.071000
     10 C12         1.8040   -0.5840   -0.1070 ca        1 MQ1     -0.223000
     11 C13         0.4910   -0.5170   -0.5400 ca        1 MQ1      0.168100
     12 N14        -0.4920    0.5030   -5.9320 nh        1 MQ1     -0.926500
     13 O20        -0.5450   -0.9000    0.3100 os        1 MQ1     -0.277200
     14 C22        -0.3920   -0.5740    1.6590 ca        1 MQ1      0.056100
     15 C23        -0.6910   -1.5880    2.5820 ca        1 MQ1     -0.111500
     16 C24        -0.6820   -1.2940    3.9380 ca        1 MQ1     -0.164500
     17 C25        -0.3610    0.0100    4.3650 ca        1 MQ1      0.116100
     18 C26        -0.0540    1.0150    3.4390 ca        1 MQ1     -0.164500
     19 C27        -0.0710    0.7210    2.0770 ca        1 MQ1     -0.111500
     20 O32        -0.3770    0.1870    5.7340 os        1 MQ1     -0.324900
     21 C33        -0.0670    1.4950    6.2030 c3        1 MQ1      0.112700
     22 H71        -3.2040    0.0150   -2.0430 hn        1 MQ1      0.442300
     23 H72        -2.2360   -0.3550   -0.7010 hn        1 MQ1      0.442300
     24 H8          3.4060    0.1810   -3.0300 ha        1 MQ1      0.154000
     25 H9          3.8890   -0.3690   -0.6490 ha        1 MQ1      0.136000
     26 H12         2.0320   -0.8490    0.9350 ha        1 MQ1      0.149000
     27 H141       -1.4000    0.7990   -6.2050 hn        1 MQ1      0.424800
     28 H142        0.2650    0.8480   -6.4760 hn        1 MQ1      0.424800
     29 H23        -0.9380   -2.5980    2.2240 ha        1 MQ1      0.152500
     30 H24        -0.9180   -2.0640    4.6870 ha        1 MQ1      0.149000
     31 H26         0.1990    2.0320    3.7690 ha        1 MQ1      0.149000
     32 H27         0.1720    1.4950    1.3350 ha        1 MQ1      0.152500
     33 H331       -0.1470    1.3970    7.3150 h1        1 MQ1      0.046033
     34 H332        0.9700    1.7840    5.9070 h1        1 MQ1      0.046033
     35 H333       -0.8070    2.2380    5.8180 h1        1 MQ1      0.046033
@<TRIPOS>BOND
     1    1    2 ar  
     2    1    6 ar  
     3    1    8 ar  
     4    2    3 ar  
     5    2   11 ar  
     6    3    4 ar  
     7    3    7 1   
     8    4    5 ar  
     9    5    6 ar  
    10    5   12 1   
    11    7   22 1   
    12    7   23 1   
    13    8    9 ar  
    14    8   24 1   
    15    9   10 ar  
    16    9   25 1   
    17   10   11 ar  
    18   10   26 1   
    19   11   13 1   
    20   12   27 1   
    21   12   28 1   
    22   13   14 1   
    23   14   15 ar  
    24   14   19 ar  
    25   15   16 ar  
    26   15   29 1   
    27   16   17 ar  
    28   16   30 1   
    29   17   18 ar  
    30   17   20 1   
    31   18   19 ar  
    32   18   31 1   
    33   19   32 1   
    34   20   21 1   
    35   21   33 1   
    36   21   34 1   
    37   21   35 1   
@<TRIPOS>SUBSTRUCTURE
     1 MQ1         1 TEMP              0 ****  ****    0 ROOT
