@<TRIPOS>MOLECULE
MQ1
   37    39     1     0     0
SMALL
bcc


@<TRIPOS>ATOM
      1 C1         -0.2350   -0.0900    0.2160 ca        1 MQ1      0.435600
      2 C2          1.1980    0.0560    0.0210 ca        1 MQ1     -0.270600
      3 C3          1.9870    0.0440    1.2270 ca        1 MQ1      0.605200
      4 N4          1.4770   -0.0890    2.4560 nb        1 MQ1     -0.699000
      5 C5          0.0850   -0.2210    2.5110 ca        1 MQ1      0.708900
      6 N6         -0.7700   -0.2270    1.4810 nb        1 MQ1     -0.576000
      7 N7          3.4580    0.1850    1.1370 n4        1 MQ1     -0.830300
      8 C8         -1.1000   -0.0940   -0.9070 ca        1 MQ1     -0.154300
      9 C9         -0.5760    0.0410   -2.1840 ca        1 MQ1     -0.023000
     10 C12         0.8010    0.1830   -2.3920 ca        1 MQ1     -0.115000
     11 C13         1.6790    0.1930   -1.3090 ca        1 MQ1      0.160100
     12 N14        -0.4880   -0.3690    3.8810 n4        1 MQ1     -0.810300
     13 O20         3.0440    0.3360   -1.4440 os        1 MQ1     -0.312200
     14 C22         3.5630    0.4150   -2.7490 ca        1 MQ1     -0.046900
     15 C23         3.9520   -0.7700   -3.3930 ca        1 MQ1     -0.079500
     16 C24         4.6090   -0.6850   -4.6090 ca        1 MQ1     -0.171000
     17 C25         4.8670    0.5860   -5.1790 ca        1 MQ1      0.186100
     18 C26         4.4610    1.7620   -4.5240 ca        1 MQ1     -0.171000
     19 C27         3.8000    1.6770   -3.3030 ca        1 MQ1     -0.079500
     20 O32         5.5190    0.5480   -6.3770 os        1 MQ1     -0.296900
     21 C33         5.8190    1.8010   -7.0000 c3        1 MQ1      0.102700
     22 H71         3.6710    1.0840    0.6730 hn        1 MQ1      0.496800
     23 H72         3.8210   -0.5720    0.5320 hn        1 MQ1      0.496800
     24 H8         -2.1920   -0.2060   -0.7610 ha        1 MQ1      0.202000
     25 H9         -1.2570    0.0360   -3.0580 ha        1 MQ1      0.200000
     26 H12         1.2010    0.2880   -3.4190 ha        1 MQ1      0.206000
     27 H141       -0.0950   -1.2110    4.3250 hn        1 MQ1      0.495133
     28 H142       -0.2480    0.4600    4.4430 hn        1 MQ1      0.495133
     29 H23         3.7460   -1.7490   -2.9380 ha        1 MQ1      0.149000
     30 H24         4.9380   -1.5900   -5.1450 ha        1 MQ1      0.177500
     31 H26         4.6610    2.7500   -4.9680 ha        1 MQ1      0.177500
     32 H27         3.4790    2.5910   -2.7810 ha        1 MQ1      0.149000
     33 H331        6.3460    1.4900   -7.9400 h1        1 MQ1      0.066700
     34 H332        6.4910    2.4090   -6.3490 h1        1 MQ1      0.066700
     35 H333        4.8770    2.3530   -7.2360 h1        1 MQ1      0.066700
     36 H73         3.9150    0.1480    2.0590 hn        1 MQ1      0.496800
     37 H143       -1.5160   -0.4590    3.8250 hn        1 MQ1      0.495133
@<TRIPOS>BOND
     1    1    2 ar  
     2    1    6 ar  
     3    1    8 ar  
     4    2    3 ar  
     5    2   11 ar  
     6    3    4 ar  
     7    3    7 1   
     8    4    5 ar  
     9    5    6 ar  
    10    5   12 1   
    11    7   22 1   
    12    7   23 1   
    13    7   36 1   
    14    8    9 ar  
    15    8   24 1   
    16    9   10 ar  
    17    9   25 1   
    18   10   11 ar  
    19   10   26 1   
    20   11   13 1   
    21   12   27 1   
    22   12   28 1   
    23   12   37 1   
    24   13   14 1   
    25   14   15 ar  
    26   14   19 ar  
    27   15   16 ar  
    28   15   29 1   
    29   16   17 ar  
    30   16   30 1   
    31   17   18 ar  
    32   17   20 1   
    33   18   19 ar  
    34   18   31 1   
    35   19   32 1   
    36   20   21 1   
    37   21   33 1   
    38   21   34 1   
    39   21   35 1   
@<TRIPOS>SUBSTRUCTURE
     1 MQ1         1 TEMP              0 ****  ****    0 ROOT
