@<TRIPOS>MOLECULE
MQ7
  112   113     1     0     0
SMALL
bcc


@<TRIPOS>ATOM
      1 C1         -2.5010   -0.4850  -11.9300 c         1 MQ7      0.570900
      2 O1         -3.6950   -0.5820  -12.2400 o         1 MQ7     -0.515100
      3 C2         -1.9460    0.7620  -11.3460 cc        1 MQ7     -0.127400
      4 C2M        -2.9330    1.8090  -10.9890 c3        1 MQ7     -0.069900
      5 C3         -0.6180    0.9310  -11.1630 cd        1 MQ7     -0.126400
      6 C4          0.3630   -0.1090  -11.5580 c         1 MQ7      0.574900
      7 O4          1.5810    0.1160  -11.5820 o         1 MQ7     -0.519100
      8 C5         -0.1820   -1.4330  -11.9280 ca        1 MQ7     -0.132600
      9 C6          0.6880   -2.5130  -12.1050 ca        1 MQ7     -0.086000
     10 C7          0.1870   -3.7680  -12.4570 ca        1 MQ7     -0.117000
     11 C8         -1.1830   -3.9460  -12.6390 ca        1 MQ7     -0.117000
     12 C9         -2.0570   -2.8710  -12.4700 ca        1 MQ7     -0.085000
     13 C10        -1.5620   -1.6130  -12.1100 ca        1 MQ7     -0.133600
     14 C11        -0.0400    2.1760  -10.5730 c3        1 MQ7     -0.015000
     15 C12         0.0070    2.1090   -9.0910 c2        1 MQ7     -0.187200
     16 C13         1.1300    2.1030   -8.3550 c2        1 MQ7     -0.092400
     17 C14         2.4900    2.1380   -8.9440 c3        1 MQ7     -0.072900
     18 C15         1.0620    2.0810   -6.8640 c3        1 MQ7     -0.044200
     19 C16         1.3930    0.7060   -6.3110 c3        1 MQ7     -0.043200
     20 C17         1.3600    0.6820   -4.8300 c2        1 MQ7     -0.175200
     21 C18         1.4630   -0.4450   -4.1060 c2        1 MQ7     -0.122400
     22 C19         1.6120   -1.7770   -4.7400 c3        1 MQ7     -0.059900
     23 C20         1.4440   -0.4150   -2.6160 c3        1 MQ7     -0.039200
     24 C21         0.1840   -1.0540   -2.0600 c3        1 MQ7     -0.043200
     25 C22         0.1810   -1.0790   -0.5790 c2        1 MQ7     -0.174200
     26 C23        -0.8800   -1.4560    0.1520 c2        1 MQ7     -0.123400
     27 C24        -2.1580   -1.8760   -0.4720 c3        1 MQ7     -0.058900
     28 C25        -0.8270   -1.4810    1.6410 c3        1 MQ7     -0.038200
     29 C26        -1.7190   -0.4140    2.2510 c3        1 MQ7     -0.044200
     30 C27        -1.7150   -0.4680    3.7320 c2        1 MQ7     -0.174200
     31 C28        -2.3050    0.4570    4.5060 c2        1 MQ7     -0.124400
     32 C29        -3.0100    1.6300    3.9350 c3        1 MQ7     -0.058900
     33 C30        -2.2900    0.3490    5.9930 c3        1 MQ7     -0.038200
     34 C31        -1.4360    1.4340    6.6250 c3        1 MQ7     -0.044200
     35 C32        -1.4590    1.3680    8.1040 c2        1 MQ7     -0.174200
     36 C33        -0.6730    2.1210    8.8900 c2        1 MQ7     -0.124400
     37 C34         0.3040    3.0880    8.3340 c3        1 MQ7     -0.058900
     38 C35        -0.7470    2.0310   10.3760 c3        1 MQ7     -0.038200
     39 C36         0.5120    1.4180   10.9640 c3        1 MQ7     -0.043200
     40 C37         0.4700    1.3750   12.4440 c2        1 MQ7     -0.174200
     41 C38         1.3930    0.7480   13.1920 c2        1 MQ7     -0.123400
     42 C39         2.5410    0.0310   12.5880 c3        1 MQ7     -0.058900
     43 C40         1.3160    0.7490   14.6800 c3        1 MQ7     -0.038200
     44 C41         1.0080   -0.6340   15.2260 c3        1 MQ7     -0.043200
     45 C42         0.9860   -0.6550   16.7060 c2        1 MQ7     -0.177200
     46 C43         0.6170   -1.7280   17.4250 c2        1 MQ7     -0.124400
     47 C44         0.6120   -1.7120   18.9070 c3        1 MQ7     -0.057900
     48 C45         0.1890   -2.9960   16.7870 c3        1 MQ7     -0.057900
     49 H2M1       -3.9810    1.4310  -11.0970 hc        1 MQ7      0.060033
     50 H2M2       -2.7820    2.1470   -9.9330 hc        1 MQ7      0.060033
     51 H2M3       -2.8100    2.6960  -11.6620 hc        1 MQ7      0.060033
     52 H6          1.7710   -2.3600  -11.9680 ha        1 MQ7      0.159000
     53 H7          0.8770   -4.6140  -12.5920 ha        1 MQ7      0.142000
     54 H8         -1.5800   -4.9340  -12.9190 ha        1 MQ7      0.142000
     55 H9         -3.1420   -2.9990  -12.6190 ha        1 MQ7      0.160000
     56 H111       -0.6690    3.0620  -10.8730 hc        1 MQ7      0.068700
     57 H112        0.9890    2.3410  -11.0000 hc        1 MQ7      0.068700
     58 H12        -0.9800    2.0720   -8.5990 ha        1 MQ7      0.120000
     59 H141        3.2690    1.9120   -8.1740 hc        1 MQ7      0.050367
     60 H142        2.5850    1.3890   -9.7720 hc        1 MQ7      0.050367
     61 H143        2.7010    3.1530   -9.3660 hc        1 MQ7      0.050367
     62 H151        0.0390    2.3820   -6.5130 hc        1 MQ7      0.047700
     63 H152        1.7880    2.8340   -6.4530 hc        1 MQ7      0.047700
     64 H161        2.4130    0.3930   -6.6670 hc        1 MQ7      0.052200
     65 H162        0.6640   -0.0470   -6.7190 hc        1 MQ7      0.052200
     66 H17         1.2490    1.6590   -4.3320 ha        1 MQ7      0.123000
     67 H191        2.4130   -1.7520   -5.5210 hc        1 MQ7      0.041700
     68 H192        1.8750   -2.5600   -3.9880 hc        1 MQ7      0.041700
     69 H193        0.6540   -2.0750   -5.2380 hc        1 MQ7      0.041700
     70 H201        1.5160    0.6420   -2.2450 hc        1 MQ7      0.046200
     71 H202        2.3440   -0.9650   -2.2290 hc        1 MQ7      0.046200
     72 H211        0.0930   -2.1050   -2.4520 hc        1 MQ7      0.050200
     73 H212       -0.7170   -0.4920   -2.4320 hc        1 MQ7      0.050200
     74 H22         1.1180   -0.7690   -0.0880 ha        1 MQ7      0.123000
     75 H241       -1.9700   -2.6270   -1.2810 hc        1 MQ7      0.041367
     76 H242       -2.8490   -2.3300    0.2790 hc        1 MQ7      0.041367
     77 H243       -2.6690   -0.9940   -0.9340 hc        1 MQ7      0.041367
     78 H251        0.2260   -1.3290    1.9990 hc        1 MQ7      0.046200
     79 H252       -1.1570   -2.4940    2.0010 hc        1 MQ7      0.046200
     80 H261       -2.7710   -0.5460    1.8750 hc        1 MQ7      0.050200
     81 H262       -1.3780    0.6010    1.9080 hc        1 MQ7      0.050200
     82 H27        -1.1960   -1.3280    4.1840 ha        1 MQ7      0.123000
     83 H291       -3.7170    1.3080    3.1290 hc        1 MQ7      0.041367
     84 H292       -3.5910    2.1770    4.7170 hc        1 MQ7      0.041367
     85 H293       -2.2720    2.3400    3.4830 hc        1 MQ7      0.041367
     86 H301       -1.9010   -0.6560    6.3090 hc        1 MQ7      0.046200
     87 H302       -3.3430    0.4330    6.3760 hc        1 MQ7      0.046200
     88 H311       -1.8040    2.4430    6.2890 hc        1 MQ7      0.050200
     89 H312       -0.3770    1.3390    6.2580 hc        1 MQ7      0.050200
     90 H32        -2.1750    0.6560    8.5460 ha        1 MQ7      0.123000
     91 H341       -0.1820    3.7320    7.5580 hc        1 MQ7      0.041367
     92 H342        0.7230    3.7490    9.1310 hc        1 MQ7      0.041367
     93 H343        1.1510    2.5410    7.8460 hc        1 MQ7      0.041367
     94 H351       -1.6350    1.4190   10.6880 hc        1 MQ7      0.045700
     95 H352       -0.8910    3.0630   10.7980 hc        1 MQ7      0.045700
     96 H361        1.4080    2.0120   10.6320 hc        1 MQ7      0.050200
     97 H362        0.6460    0.3780   10.5580 hc        1 MQ7      0.050200
     98 H37        -0.3750    1.8980   12.9200 ha        1 MQ7      0.123000
     99 H391        3.0470    0.6740   11.8250 hc        1 MQ7      0.041367
    100 H392        3.2940   -0.2590   13.3620 hc        1 MQ7      0.041367
    101 H393        2.1870   -0.8990   12.0750 hc        1 MQ7      0.041367
    102 H401        0.5290    1.4680   15.0320 hc        1 MQ7      0.045700
    103 H402        2.2980    1.1040   15.0960 hc        1 MQ7      0.045700
    104 H411        1.7790   -1.3640   14.8520 hc        1 MQ7      0.049700
    105 H412        0.0160   -0.9820   14.8270 hc        1 MQ7      0.049700
    106 H42         1.2960    0.2750   17.2100 ha        1 MQ7      0.122000
    107 H441       -0.4120   -1.9530   19.2890 hc        1 MQ7      0.040533
    108 H442        1.3210   -2.4840   19.3010 hc        1 MQ7      0.040533
    109 H443        0.9150   -0.7160   19.3120 hc        1 MQ7      0.040533
    110 H451        0.9490   -3.3350   16.0390 hc        1 MQ7      0.040533
    111 H452        0.0500   -3.8060   17.5440 hc        1 MQ7      0.040533
    112 H453       -0.7810   -2.8470   16.2470 hc        1 MQ7      0.040533
@<TRIPOS>BOND
     1    1    2 2   
     2    1    3 1   
     3    1   13 1   
     4    3    4 1   
     5    3    5 2   
     6    4   49 1   
     7    4   50 1   
     8    4   51 1   
     9    5    6 1   
    10    5   14 1   
    11    6    7 2   
    12    6    8 1   
    13    8    9 ar  
    14    8   13 ar  
    15    9   10 ar  
    16    9   52 1   
    17   10   11 ar  
    18   10   53 1   
    19   11   12 ar  
    20   11   54 1   
    21   12   13 ar  
    22   12   55 1   
    23   14   15 1   
    24   14   56 1   
    25   14   57 1   
    26   15   16 2   
    27   15   58 1   
    28   16   17 1   
    29   16   18 1   
    30   17   59 1   
    31   17   60 1   
    32   17   61 1   
    33   18   19 1   
    34   18   62 1   
    35   18   63 1   
    36   19   20 1   
    37   19   64 1   
    38   19   65 1   
    39   20   21 2   
    40   20   66 1   
    41   21   22 1   
    42   21   23 1   
    43   22   67 1   
    44   22   68 1   
    45   22   69 1   
    46   23   24 1   
    47   23   70 1   
    48   23   71 1   
    49   24   25 1   
    50   24   72 1   
    51   24   73 1   
    52   25   26 2   
    53   25   74 1   
    54   26   27 1   
    55   26   28 1   
    56   27   75 1   
    57   27   76 1   
    58   27   77 1   
    59   28   29 1   
    60   28   78 1   
    61   28   79 1   
    62   29   30 1   
    63   29   80 1   
    64   29   81 1   
    65   30   31 2   
    66   30   82 1   
    67   31   32 1   
    68   31   33 1   
    69   32   83 1   
    70   32   84 1   
    71   32   85 1   
    72   33   34 1   
    73   33   86 1   
    74   33   87 1   
    75   34   35 1   
    76   34   88 1   
    77   34   89 1   
    78   35   36 2   
    79   35   90 1   
    80   36   37 1   
    81   36   38 1   
    82   37   91 1   
    83   37   92 1   
    84   37   93 1   
    85   38   39 1   
    86   38   94 1   
    87   38   95 1   
    88   39   40 1   
    89   39   96 1   
    90   39   97 1   
    91   40   41 2   
    92   40   98 1   
    93   41   42 1   
    94   41   43 1   
    95   42   99 1   
    96   42  100 1   
    97   42  101 1   
    98   43   44 1   
    99   43  102 1   
   100   43  103 1   
   101   44   45 1   
   102   44  104 1   
   103   44  105 1   
   104   45   46 2   
   105   45  106 1   
   106   46   47 1   
   107   46   48 1   
   108   47  107 1   
   109   47  108 1   
   110   47  109 1   
   111   48  110 1   
   112   48  111 1   
   113   48  112 1   
@<TRIPOS>SUBSTRUCTURE
     1 MQ7         1 TEMP              0 ****  ****    0 ROOT
