@<TRIPOS>MOLECULE
MQ7
  112   113     1     0     0
SMALL
bcc


@<TRIPOS>ATOM
      1 C1          3.5570   -2.0020    1.5400 c         1 MQ7      0.570900
      2 O1          4.5780   -2.7010    1.4780 o         1 MQ7     -0.515100
      3 C2          3.2370   -1.1940    2.7440 cc        1 MQ7     -0.127400
      4 C2M         4.2930   -1.1290    3.7840 c3        1 MQ7     -0.069900
      5 C3          2.0490   -0.5680    2.8830 cd        1 MQ7     -0.126400
      6 C4          0.9860   -0.6700    1.8520 c         1 MQ7      0.574900
      7 O4         -0.1680   -0.2720    2.0610 o         1 MQ7     -0.519100
      8 C5          1.3690   -1.2770    0.5590 ca        1 MQ7     -0.132600
      9 C6          0.4840   -1.2160   -0.5220 ca        1 MQ7     -0.086000
     10 C7          0.8320   -1.7870   -1.7470 ca        1 MQ7     -0.117000
     11 C8          2.0600   -2.4280   -1.8940 ca        1 MQ7     -0.117000
     12 C9          2.9460   -2.4990   -0.8170 ca        1 MQ7     -0.085000
     13 C10         2.6070   -1.9230    0.4110 ca        1 MQ7     -0.133600
     14 C11         1.7090    0.2530    4.0840 c3        1 MQ7     -0.015000
     15 C12         2.1630    1.6600    3.9320 c2        1 MQ7     -0.187200
     16 C13         1.3530    2.7280    3.8680 c2        1 MQ7     -0.092400
     17 C14        -0.1270    2.6330    3.9140 c3        1 MQ7     -0.072900
     18 C15         1.9180    4.1060    3.7620 c3        1 MQ7     -0.044200
     19 C16         1.7890    4.6550    2.3520 c3        1 MQ7     -0.043200
     20 C17         2.3170    6.0350    2.2450 c2        1 MQ7     -0.175200
     21 C18         2.4670    6.6800    1.0770 c2        1 MQ7     -0.122400
     22 C19         2.1190    6.0530   -0.2200 c3        1 MQ7     -0.059900
     23 C20         2.9860    8.0770    1.0230 c3        1 MQ7     -0.039200
     24 C21         4.3620    8.1370    0.3860 c3        1 MQ7     -0.044200
     25 C22         4.8620    9.5280    0.2750 c2        1 MQ7     -0.174200
     26 C23         6.1110    9.8360   -0.1080 c2        1 MQ7     -0.123400
     27 C24         7.1120    8.7960   -0.4470 c3        1 MQ7     -0.058900
     28 C25         6.5610   11.2530   -0.2230 c3        1 MQ7     -0.038200
     29 C26         7.5910   11.6010    0.8360 c3        1 MQ7     -0.044200
     30 C27         8.0850   12.9900    0.6940 c2        1 MQ7     -0.174200
     31 C28         8.8830   13.5870    1.5950 c2        1 MQ7     -0.124400
     32 C29         9.3330   12.8980    2.8280 c3        1 MQ7     -0.058900
     33 C30         9.3700   14.9820    1.3970 c3        1 MQ7     -0.038200
     34 C31         8.7570   15.9370    2.4050 c3        1 MQ7     -0.044200
     35 C32         9.2770   17.3150    2.2510 c2        1 MQ7     -0.174200
     36 C33         8.7820   18.3710    2.9170 c2        1 MQ7     -0.124400
     37 C34         7.6520   18.2440    3.8690 c3        1 MQ7     -0.058900
     38 C35         9.3530   19.7370    2.7410 c3        1 MQ7     -0.038200
     39 C36         8.3800   20.6640    2.0350 c3        1 MQ7     -0.043200
     40 C37         8.9180   22.0380    1.9040 c2        1 MQ7     -0.174200
     41 C38         8.3170   23.0020    1.1870 c2        1 MQ7     -0.123400
     42 C39         7.0530   22.7640    0.4500 c3        1 MQ7     -0.058900
     43 C40         8.8890   24.3750    1.1000 c3        1 MQ7     -0.038200
     44 C41         9.4010   24.6820   -0.2960 c3        1 MQ7     -0.043200
     45 C42         9.9210   26.0640   -0.4060 c2        1 MQ7     -0.177200
     46 C43        10.5400   26.5360   -1.5000 c2        1 MQ7     -0.124400
     47 C44        11.0430   27.9280   -1.5750 c3        1 MQ7     -0.057900
     48 C45        10.7660   25.6980   -2.7020 c3        1 MQ7     -0.057900
     49 H2M1        3.9550   -1.6690    4.7050 hc        1 MQ7      0.060033
     50 H2M2        5.2410   -1.6050    3.4270 hc        1 MQ7      0.060033
     51 H2M3        4.5070   -0.0660    4.0590 hc        1 MQ7      0.060033
     52 H6         -0.4890   -0.7140   -0.3920 ha        1 MQ7      0.159000
     53 H7          0.1320   -1.7320   -2.5940 ha        1 MQ7      0.142000
     54 H8          2.3350   -2.8820   -2.8580 ha        1 MQ7      0.142000
     55 H9          3.9170   -3.0110   -0.9210 ha        1 MQ7      0.160000
     56 H111        2.2050   -0.1880    4.9940 hc        1 MQ7      0.068700
     57 H112        0.5980    0.2070    4.2580 hc        1 MQ7      0.068700
     58 H12         3.2570    1.7880    3.8830 ha        1 MQ7      0.120000
     59 H141       -0.6020    3.6040    3.6310 hc        1 MQ7      0.050367
     60 H142       -0.4620    2.3680    4.9480 hc        1 MQ7      0.050367
     61 H143       -0.4970    1.8420    3.2120 hc        1 MQ7      0.050367
     62 H151        3.0000    4.1090    4.0600 hc        1 MQ7      0.047700
     63 H152        1.3740    4.7800    4.4780 hc        1 MQ7      0.047700
     64 H161        2.3360    3.9820    1.6370 hc        1 MQ7      0.052200
     65 H162        0.7070    4.6450    2.0420 hc        1 MQ7      0.052200
     66 H17         2.5860    6.5260    3.1950 ha        1 MQ7      0.122000
     67 H191        2.8550    5.2460   -0.4670 hc        1 MQ7      0.041700
     68 H192        2.1260    6.8010   -1.0500 hc        1 MQ7      0.041700
     69 H193        1.1020    5.5870   -0.1700 hc        1 MQ7      0.041700
     70 H201        2.2710    8.7090    0.4290 hc        1 MQ7      0.046200
     71 H202        3.0370    8.5160    2.0550 hc        1 MQ7      0.046200
     72 H211        4.3220    7.6720   -0.6380 hc        1 MQ7      0.050200
     73 H212        5.0830    7.5230    0.9920 hc        1 MQ7      0.050200
     74 H22         4.1390   10.3230    0.5230 ha        1 MQ7      0.123000
     75 H241        6.6730    8.0450   -1.1520 hc        1 MQ7      0.041367
     76 H242        7.4300    8.2530    0.4790 hc        1 MQ7      0.041367
     77 H243        8.0180    9.2410   -0.9230 hc        1 MQ7      0.041367
     78 H251        5.6860   11.9500   -0.1290 hc        1 MQ7      0.046200
     79 H252        7.0040   11.4130   -1.2430 hc        1 MQ7      0.046200
     80 H261        8.4570   10.8860    0.7650 hc        1 MQ7      0.050200
     81 H262        7.1410   11.4610    1.8570 hc        1 MQ7      0.050200
     82 H27         7.7640   13.5280   -0.2130 ha        1 MQ7      0.123000
     83 H291       10.1340   13.4760    3.3500 hc        1 MQ7      0.041367
     84 H292        8.4730   12.7700    3.5330 hc        1 MQ7      0.041367
     85 H293        9.7320   11.8800    2.5840 hc        1 MQ7      0.041367
     86 H301        9.1300   15.3370    0.3590 hc        1 MQ7      0.046200
     87 H302       10.4890   14.9960    1.5020 hc        1 MQ7      0.046200
     88 H311        7.6380   15.9380    2.2880 hc        1 MQ7      0.050200
     89 H312        8.9720   15.5700    3.4470 hc        1 MQ7      0.050200
     90 H32        10.1170   17.4410    1.5480 ha        1 MQ7      0.123000
     91 H341        6.7040   18.0300    3.3130 hc        1 MQ7      0.041367
     92 H342        7.5100   19.1800    4.4610 hc        1 MQ7      0.041367
     93 H343        7.8330   17.3980    4.5800 hc        1 MQ7      0.041367
     94 H351        9.6050   20.1600    3.7520 hc        1 MQ7      0.045700
     95 H352       10.3090   19.6890    2.1540 hc        1 MQ7      0.045700
     96 H361        8.1420   20.2510    1.0160 hc        1 MQ7      0.050200
     97 H362        7.4110   20.6940    2.6060 hc        1 MQ7      0.050200
     98 H37         9.8590   22.2430    2.4390 ha        1 MQ7      0.123000
     99 H391        6.3030   22.2600    1.1110 hc        1 MQ7      0.041367
    100 H392        7.2400   22.0960   -0.4290 hc        1 MQ7      0.041367
    101 H393        6.6110   23.7200    0.0780 hc        1 MQ7      0.041367
    102 H401        9.7290   24.4970    1.8350 hc        1 MQ7      0.045700
    103 H402        8.0950   25.1200    1.3790 hc        1 MQ7      0.045700
    104 H411       10.2100   23.9500   -0.5680 hc        1 MQ7      0.049700
    105 H412        8.5690   24.5340   -1.0400 hc        1 MQ7      0.049700
    106 H42         9.7710   26.7110    0.4740 ha        1 MQ7      0.122000
    107 H441       12.1420   27.9280   -1.7850 hc        1 MQ7      0.040533
    108 H442       10.8660   28.4840   -0.6230 hc        1 MQ7      0.040533
    109 H443       10.5310   28.4770   -2.4050 hc        1 MQ7      0.040533
    110 H451        9.8090   25.2220   -3.0340 hc        1 MQ7      0.040533
    111 H452       11.4940   24.8800   -2.4700 hc        1 MQ7      0.040533
    112 H453       11.1730   26.3030   -3.5490 hc        1 MQ7      0.040533
@<TRIPOS>BOND
     1    1    2 2   
     2    1    3 1   
     3    1   13 1   
     4    3    4 1   
     5    3    5 2   
     6    4   49 1   
     7    4   50 1   
     8    4   51 1   
     9    5    6 1   
    10    5   14 1   
    11    6    7 2   
    12    6    8 1   
    13    8    9 ar  
    14    8   13 ar  
    15    9   10 ar  
    16    9   52 1   
    17   10   11 ar  
    18   10   53 1   
    19   11   12 ar  
    20   11   54 1   
    21   12   13 ar  
    22   12   55 1   
    23   14   15 1   
    24   14   56 1   
    25   14   57 1   
    26   15   16 2   
    27   15   58 1   
    28   16   17 1   
    29   16   18 1   
    30   17   59 1   
    31   17   60 1   
    32   17   61 1   
    33   18   19 1   
    34   18   62 1   
    35   18   63 1   
    36   19   20 1   
    37   19   64 1   
    38   19   65 1   
    39   20   21 2   
    40   20   66 1   
    41   21   22 1   
    42   21   23 1   
    43   22   67 1   
    44   22   68 1   
    45   22   69 1   
    46   23   24 1   
    47   23   70 1   
    48   23   71 1   
    49   24   25 1   
    50   24   72 1   
    51   24   73 1   
    52   25   26 2   
    53   25   74 1   
    54   26   27 1   
    55   26   28 1   
    56   27   75 1   
    57   27   76 1   
    58   27   77 1   
    59   28   29 1   
    60   28   78 1   
    61   28   79 1   
    62   29   30 1   
    63   29   80 1   
    64   29   81 1   
    65   30   31 2   
    66   30   82 1   
    67   31   32 1   
    68   31   33 1   
    69   32   83 1   
    70   32   84 1   
    71   32   85 1   
    72   33   34 1   
    73   33   86 1   
    74   33   87 1   
    75   34   35 1   
    76   34   88 1   
    77   34   89 1   
    78   35   36 2   
    79   35   90 1   
    80   36   37 1   
    81   36   38 1   
    82   37   91 1   
    83   37   92 1   
    84   37   93 1   
    85   38   39 1   
    86   38   94 1   
    87   38   95 1   
    88   39   40 1   
    89   39   96 1   
    90   39   97 1   
    91   40   41 2   
    92   40   98 1   
    93   41   42 1   
    94   41   43 1   
    95   42   99 1   
    96   42  100 1   
    97   42  101 1   
    98   43   44 1   
    99   43  102 1   
   100   43  103 1   
   101   44   45 1   
   102   44  104 1   
   103   44  105 1   
   104   45   46 2   
   105   45  106 1   
   106   46   47 1   
   107   46   48 1   
   108   47  107 1   
   109   47  108 1   
   110   47  109 1   
   111   48  110 1   
   112   48  111 1   
   113   48  112 1   
@<TRIPOS>SUBSTRUCTURE
     1 MQ7         1 TEMP              0 ****  ****    0 ROOT
