@<TRIPOS>MOLECULE
MQ7
  112   113     1     0     0
SMALL
bcc


@<TRIPOS>ATOM
      1 C1          3.5660   -1.9930    1.7960 c         1 MQ7      0.570900
      2 O1          4.5890   -2.6890    1.8490 o         1 MQ7     -0.515100
      3 C2          3.1390   -1.1440    2.9370 cc        1 MQ7     -0.127400
      4 C2M         4.0990   -1.0380    4.0630 c3        1 MQ7     -0.069900
      5 C3          1.9430   -0.5190    2.9470 cd        1 MQ7     -0.126400
      6 C4          0.9760   -0.6630    1.8300 c         1 MQ7      0.574900
      7 O4         -0.1930   -0.2620    1.9210 o         1 MQ7     -0.519100
      8 C5          1.4720   -1.3140    0.5990 ca        1 MQ7     -0.132600
      9 C6          0.6870   -1.2950   -0.5570 ca        1 MQ7     -0.086000
     10 C7          1.1430   -1.9080   -1.7250 ca        1 MQ7     -0.117000
     11 C8          2.3800   -2.5490   -1.7400 ca        1 MQ7     -0.117000
     12 C9          3.1670   -2.5770   -0.5880 ca        1 MQ7     -0.085000
     13 C10         2.7200   -1.9580    0.5840 ca        1 MQ7     -0.133600
     14 C11         1.4960    0.3430    4.0830 c3        1 MQ7     -0.015000
     15 C12         1.9590    1.7450    3.9210 c2        1 MQ7     -0.187200
     16 C13         1.1560    2.8070    3.7480 c2        1 MQ7     -0.092400
     17 C14        -0.3210    2.7060    3.6690 c3        1 MQ7     -0.072900
     18 C15         1.7260    4.1830    3.6440 c3        1 MQ7     -0.044200
     19 C16         1.7170    4.6820    2.2100 c3        1 MQ7     -0.043200
     20 C17         2.2510    6.0600    2.1010 c2        1 MQ7     -0.175200
     21 C18         2.4920    6.6680    0.9280 c2        1 MQ7     -0.122400
     22 C19         2.2490    5.9980   -0.3720 c3        1 MQ7     -0.059900
     23 C20         3.0120    8.0640    0.8700 c3        1 MQ7     -0.039200
     24 C21         4.4340    8.1100    0.3400 c3        1 MQ7     -0.043200
     25 C22         4.9390    9.4980    0.2280 c2        1 MQ7     -0.174200
     26 C23         6.2130    9.7990   -0.0750 c2        1 MQ7     -0.123400
     27 C24         7.2340    8.7510   -0.3170 c3        1 MQ7     -0.058900
     28 C25         6.6690   11.2130   -0.1950 c3        1 MQ7     -0.038200
     29 C26         7.6230   11.5890    0.9240 c3        1 MQ7     -0.044200
     30 C27         8.1250   12.9760    0.7830 c2        1 MQ7     -0.174200
     31 C28         8.8640   13.5940    1.7180 c2        1 MQ7     -0.124400
     32 C29         9.2370   12.9320    2.9910 c3        1 MQ7     -0.058900
     33 C30         9.3610   14.9850    1.5220 c3        1 MQ7     -0.038200
     34 C31         8.6850   15.9600    2.4690 c3        1 MQ7     -0.044200
     35 C32         9.2110   17.3370    2.3180 c2        1 MQ7     -0.174200
     36 C33         8.6790   18.4040    2.9350 c2        1 MQ7     -0.124400
     37 C34         7.4970   18.2910    3.8240 c3        1 MQ7     -0.058900
     38 C35         9.2560   19.7670    2.7660 c3        1 MQ7     -0.038200
     39 C36         8.3230   20.6780    1.9880 c3        1 MQ7     -0.043200
     40 C37         8.8650   22.0510    1.8610 c2        1 MQ7     -0.174200
     41 C38         8.3020   23.0010    1.0980 c2        1 MQ7     -0.123400
     42 C39         7.0770   22.7470    0.3010 c3        1 MQ7     -0.058900
     43 C40         8.8750   24.3740    1.0170 c3        1 MQ7     -0.038200
     44 C41         9.4580   24.6570   -0.3560 c3        1 MQ7     -0.043200
     45 C42         9.9810   26.0390   -0.4630 c2        1 MQ7     -0.177200
     46 C43        10.6540   26.4940   -1.5320 c2        1 MQ7     -0.124400
     47 C44        11.1580   27.8860   -1.6050 c3        1 MQ7     -0.057900
     48 C45        10.9410   25.6370   -2.7070 c3        1 MQ7     -0.057900
     49 H2M1        3.6810   -1.5460    4.9700 hc        1 MQ7      0.060033
     50 H2M2        5.0750   -1.5210    3.8090 hc        1 MQ7      0.060033
     51 H2M3        4.2860    0.0360    4.3170 hc        1 MQ7      0.060033
     52 H6         -0.2940   -0.7930   -0.5320 ha        1 MQ7      0.159000
     53 H7          0.5200   -1.8860   -2.6330 ha        1 MQ7      0.142000
     54 H8          2.7400   -3.0350   -2.6590 ha        1 MQ7      0.142000
     55 H9          4.1440   -3.0880   -0.5870 ha        1 MQ7      0.160000
     56 H111        1.9100   -0.0630    5.0490 hc        1 MQ7      0.068700
     57 H112        0.3740    0.2980    4.1590 hc        1 MQ7      0.068700
     58 H12         3.0530    1.8770    3.9640 ha        1 MQ7      0.120000
     59 H141       -0.7720    3.6650    3.3130 hc        1 MQ7      0.050367
     60 H142       -0.7460    2.4740    4.6780 hc        1 MQ7      0.050367
     61 H143       -0.6270    1.8900    2.9650 hc        1 MQ7      0.050367
     62 H151        2.7790    4.2010    4.0340 hc        1 MQ7      0.047700
     63 H152        1.1210    4.8780    4.2860 hc        1 MQ7      0.047700
     64 H161        2.3250    3.9880    1.5680 hc        1 MQ7      0.052200
     65 H162        0.6660    4.6560    1.8090 hc        1 MQ7      0.052200
     66 H17         2.4430    6.5820    3.0520 ha        1 MQ7      0.123000
     67 H191        3.0030    5.1860   -0.5330 hc        1 MQ7      0.041700
     68 H192        2.3210    6.7190   -1.2230 hc        1 MQ7      0.041700
     69 H193        1.2320    5.5310   -0.3880 hc        1 MQ7      0.041700
     70 H201        2.3440    8.6750    0.2030 hc        1 MQ7      0.046200
     71 H202        2.9820    8.5360    1.8880 hc        1 MQ7      0.046200
     72 H211        4.4730    7.6150   -0.6700 hc        1 MQ7      0.050200
     73 H212        5.1060    7.5160    1.0180 hc        1 MQ7      0.050200
     74 H22         4.2020   10.2980    0.4040 ha        1 MQ7      0.123000
     75 H241        6.8460    7.9840   -1.0340 hc        1 MQ7      0.041367
     76 H242        7.4840    8.2300    0.6420 hc        1 MQ7      0.041367
     77 H243        8.1730    9.1860   -0.7370 hc        1 MQ7      0.041367
     78 H251        5.7900   11.9110   -0.1800 hc        1 MQ7      0.046200
     79 H252        7.1820   11.3480   -1.1850 hc        1 MQ7      0.046200
     80 H261        8.4940   10.8760    0.9290 hc        1 MQ7      0.050200
     81 H262        7.1050   11.4730    1.9150 hc        1 MQ7      0.050200
     82 H27         7.8600   13.4940   -0.1540 ha        1 MQ7      0.123000
     83 H291       10.0020   13.5240    3.5510 hc        1 MQ7      0.041367
     84 H292        8.3350   12.8150    3.6440 hc        1 MQ7      0.041367
     85 H293        9.6540   11.9120    2.7950 hc        1 MQ7      0.041367
     86 H301        9.1850   15.3180    0.4640 hc        1 MQ7      0.046200
     87 H302       10.4710   15.0050    1.6950 hc        1 MQ7      0.046200
     88 H311        7.5760   15.9560    2.2840 hc        1 MQ7      0.050200
     89 H312        8.8360   15.6160    3.5300 hc        1 MQ7      0.050200
     90 H32        10.0890   17.4500    1.6610 ha        1 MQ7      0.123000
     91 H341        6.5820   18.0620    3.2210 hc        1 MQ7      0.041367
     92 H342        7.3190   19.2400    4.3880 hc        1 MQ7      0.041367
     93 H343        7.6390   17.4620    4.5620 hc        1 MQ7      0.041367
     94 H351        9.4510   20.2100    3.7800 hc        1 MQ7      0.045700
     95 H352       10.2440   19.7110    2.2340 hc        1 MQ7      0.045700
     96 H361        8.1430   20.2460    0.9660 hc        1 MQ7      0.050200
     97 H362        7.3230   20.7170    2.5030 hc        1 MQ7      0.050200
     98 H37         9.7770   22.2670    2.4420 ha        1 MQ7      0.123000
     99 H391        6.2940   22.2570    0.9320 hc        1 MQ7      0.041367
    100 H392        7.3090   22.0620   -0.5540 hc        1 MQ7      0.041367
    101 H393        6.6560   23.6960   -0.1130 hc        1 MQ7      0.041367
    102 H401        9.6760   24.5100    1.7930 hc        1 MQ7      0.045700
    103 H402        8.0660   25.1210    1.2410 hc        1 MQ7      0.045700
    104 H411       10.2820   23.9230   -0.5720 hc        1 MQ7      0.049700
    105 H412        8.6670   24.4940   -1.1390 hc        1 MQ7      0.049700
    106 H42         9.7860   26.7000    0.3980 ha        1 MQ7      0.122000
    107 H441       12.2660   27.8850   -1.7580 hc        1 MQ7      0.040533
    108 H442       10.9310   28.4580   -0.6720 hc        1 MQ7      0.040533
    109 H443       10.6870   28.4190   -2.4690 hc        1 MQ7      0.040533
    110 H451       10.0020   25.1550   -3.0790 hc        1 MQ7      0.040533
    111 H452       11.6560   24.8230   -2.4250 hc        1 MQ7      0.040533
    112 H453       11.3910   26.2280   -3.5420 hc        1 MQ7      0.040533
@<TRIPOS>BOND
     1    1    2 2   
     2    1    3 1   
     3    1   13 1   
     4    3    4 1   
     5    3    5 2   
     6    4   49 1   
     7    4   50 1   
     8    4   51 1   
     9    5    6 1   
    10    5   14 1   
    11    6    7 2   
    12    6    8 1   
    13    8    9 ar  
    14    8   13 ar  
    15    9   10 ar  
    16    9   52 1   
    17   10   11 ar  
    18   10   53 1   
    19   11   12 ar  
    20   11   54 1   
    21   12   13 ar  
    22   12   55 1   
    23   14   15 1   
    24   14   56 1   
    25   14   57 1   
    26   15   16 2   
    27   15   58 1   
    28   16   17 1   
    29   16   18 1   
    30   17   59 1   
    31   17   60 1   
    32   17   61 1   
    33   18   19 1   
    34   18   62 1   
    35   18   63 1   
    36   19   20 1   
    37   19   64 1   
    38   19   65 1   
    39   20   21 2   
    40   20   66 1   
    41   21   22 1   
    42   21   23 1   
    43   22   67 1   
    44   22   68 1   
    45   22   69 1   
    46   23   24 1   
    47   23   70 1   
    48   23   71 1   
    49   24   25 1   
    50   24   72 1   
    51   24   73 1   
    52   25   26 2   
    53   25   74 1   
    54   26   27 1   
    55   26   28 1   
    56   27   75 1   
    57   27   76 1   
    58   27   77 1   
    59   28   29 1   
    60   28   78 1   
    61   28   79 1   
    62   29   30 1   
    63   29   80 1   
    64   29   81 1   
    65   30   31 2   
    66   30   82 1   
    67   31   32 1   
    68   31   33 1   
    69   32   83 1   
    70   32   84 1   
    71   32   85 1   
    72   33   34 1   
    73   33   86 1   
    74   33   87 1   
    75   34   35 1   
    76   34   88 1   
    77   34   89 1   
    78   35   36 2   
    79   35   90 1   
    80   36   37 1   
    81   36   38 1   
    82   37   91 1   
    83   37   92 1   
    84   37   93 1   
    85   38   39 1   
    86   38   94 1   
    87   38   95 1   
    88   39   40 1   
    89   39   96 1   
    90   39   97 1   
    91   40   41 2   
    92   40   98 1   
    93   41   42 1   
    94   41   43 1   
    95   42   99 1   
    96   42  100 1   
    97   42  101 1   
    98   43   44 1   
    99   43  102 1   
   100   43  103 1   
   101   44   45 1   
   102   44  104 1   
   103   44  105 1   
   104   45   46 2   
   105   45  106 1   
   106   46   47 1   
   107   46   48 1   
   108   47  107 1   
   109   47  108 1   
   110   47  109 1   
   111   48  110 1   
   112   48  111 1   
   113   48  112 1   
@<TRIPOS>SUBSTRUCTURE
     1 MQ7         1 TEMP              0 ****  ****    0 ROOT
