@<TRIPOS>MOLECULE
MQA
   45    48     1     0     0
SMALL
bcc


@<TRIPOS>ATOM
      1 C1          0.2890   -0.2290    0.0860 cx        1 MQA      0.035500
      2 C2          1.7720   -0.1100    0.3530 cx        1 MQA      0.063500
      3 C3          1.9760    0.0710    1.8640 c3        1 MQA      0.204800
      4 C5          1.0910    2.1540    4.0810 c         1 MQA      0.565500
      5 C6          0.3680    3.2260    4.8100 cc        1 MQA     -0.115400
      6 C7         -0.8920    3.5890    4.4640 cd        1 MQA      0.017900
      7 C8         -1.6540    2.9590    3.3540 c         1 MQA      0.641500
      8 C9         -1.5530    0.9710    1.6290 c3        1 MQA     -0.044500
      9 C10        -1.8470    1.6900    0.3290 c3        1 MQA      0.169400
     10 C11        -3.3280    3.5590    0.5030 c         1 MQA      0.649100
     11 O5          2.2770    1.8880    4.2790 o         1 MQA     -0.445100
     12 CM6         1.1220    3.8830    5.9000 c3        1 MQA     -0.068900
     13 O7         -1.4790    4.6890    5.0660 os        1 MQA     -0.322900
     14 C24        -2.5680    4.3660    5.9360 c3        1 MQA      0.112700
     15 O8         -2.7770    3.3780    3.0070 o         1 MQA     -0.663100
     16 C4A         0.2710    1.4210    3.0710 cc        1 MQA      0.137800
     17 C8A        -0.9890    1.8510    2.7070 cd        1 MQA     -0.328400
     18 N4          0.6480    0.2210    2.4660 nh        1 MQA     -0.593400
     19 C9A        -0.4330   -0.1280    1.4540 c3        1 MQA      0.421000
     20 O24        -1.0080   -1.4150    1.6290 os        1 MQA     -0.403600
     21 C25        -1.2780   -1.8280    2.9620 c3        1 MQA      0.119700
     22 N2          1.0350    0.9600   -0.3180 n3        1 MQA     -0.757200
     23 O10        -3.2100    2.2230    0.4100 os        1 MQA     -0.403900
     24 O11        -2.5320    4.4100    0.1400 o         1 MQA     -0.411000
     25 N12        -4.6710    3.9330    1.0500 n4        1 MQA     -0.718400
     26 H1         -0.1810   -0.9280   -0.6300 h1        1 MQA      0.130700
     27 H2          2.5630   -0.6860   -0.1600 h1        1 MQA      0.124700
     28 H3          2.6400    0.9450    2.1040 h1        1 MQA      0.097200
     29 H3A         2.4330   -0.8680    2.2830 h1        1 MQA      0.097200
     30 H9         -2.4900    0.4610    1.9870 hc        1 MQA      0.101700
     31 H10        -1.9270    0.9670   -0.5290 h1        1 MQA      0.107200
     32 H10A       -1.1190    2.5110    0.1050 h1        1 MQA      0.107200
     33 HM6         1.9240    4.5330    5.4630 hc        1 MQA      0.075033
     34 HM6A        1.6170    3.1150    6.5470 hc        1 MQA      0.075033
     35 HM6B        0.4500    4.5200    6.5270 hc        1 MQA      0.075033
     36 H24        -3.3750    3.8410    5.3700 h1        1 MQA      0.051700
     37 H24A       -2.2090    3.7380    6.7870 h1        1 MQA      0.051700
     38 H24B       -2.9150    5.3670    6.2970 h1        1 MQA      0.051700
     39 H25        -0.3280   -2.0920    3.4880 h1        1 MQA      0.050033
     40 H25A       -1.9150   -2.7400    2.8260 h1        1 MQA      0.050033
     41 H25B       -1.8300   -1.0400    3.5270 h1        1 MQA      0.050033
     42 HN2         1.2060    1.0320   -1.3040 hn        1 MQA      0.379800
     43 HN12       -4.9010    4.8900    0.7600 hn        1 MQA      0.486133
     44 HN1A       -4.6080    3.8900    2.0820 hn        1 MQA      0.486133
     45 H123       -5.3850    3.2750    0.7270 hn        1 MQA      0.486133
@<TRIPOS>BOND
     1    1    2 1   
     2    1   19 1   
     3    1   22 1   
     4    1   26 1   
     5    2    3 1   
     6    2   22 1   
     7    2   27 1   
     8    3   18 1   
     9    3   28 1   
    10    3   29 1   
    11    4    5 1   
    12    4   11 2   
    13    4   16 1   
    14    5    6 2   
    15    5   12 1   
    16    6    7 1   
    17    6   13 1   
    18    7   15 2   
    19    7   17 1   
    20    8    9 1   
    21    8   17 1   
    22    8   19 1   
    23    8   30 1   
    24    9   23 1   
    25    9   31 1   
    26    9   32 1   
    27   10   23 1   
    28   10   24 2   
    29   10   25 1   
    30   12   33 1   
    31   12   34 1   
    32   12   35 1   
    33   13   14 1   
    34   14   36 1   
    35   14   37 1   
    36   14   38 1   
    37   16   17 2   
    38   16   18 1   
    39   18   19 1   
    40   19   20 1   
    41   20   21 1   
    42   21   39 1   
    43   21   40 1   
    44   21   41 1   
    45   22   42 1   
    46   25   43 1   
    47   25   44 1   
    48   25   45 1   
@<TRIPOS>SUBSTRUCTURE
     1 MQA         1 TEMP              0 ****  ****    0 ROOT
