@<TRIPOS>MOLECULE
MQA
   44    47     1     0     0
SMALL
bcc


@<TRIPOS>ATOM
      1 C1          2.6310    1.6730   -0.2680 cx        1 MQA      0.054500
      2 C2          2.1760    2.7930   -1.1720 cx        1 MQA      0.039500
      3 C3          0.7670    3.2150   -0.7300 c3        1 MQA      0.201800
      4 C5         -2.0380    1.8110   -0.5620 c         1 MQA      0.590500
      5 C6         -3.0770    0.7660   -0.5690 cc        1 MQA     -0.200400
      6 C7         -2.8160   -0.5120   -0.1740 cd        1 MQA      0.055900
      7 C8         -1.4730   -0.9680    0.2970 c         1 MQA      0.582500
      8 C9          0.9380   -0.0600    0.8580 c3        1 MQA     -0.023500
      9 C10         1.7710   -1.0680    0.0850 c3        1 MQA      0.171400
     10 C11         2.1870   -3.4090    0.2070 c         1 MQA      0.734100
     11 O5         -2.2240    2.9460   -1.0130 o         1 MQA     -0.500100
     12 CM6        -4.4290    1.1780   -1.0130 c3        1 MQA     -0.047900
     13 O7         -3.8960   -1.3650   -0.1640 os        1 MQA     -0.318900
     14 C24        -3.6450   -2.7670   -0.2610 c3        1 MQA      0.117700
     15 O8         -1.2520   -2.1420    0.6140 o         1 MQA     -0.513100
     16 C4A        -0.7300    1.3890    0.0090 cc        1 MQA      0.073800
     17 C8A        -0.4730    0.0880    0.3600 cd        1 MQA     -0.247400
     18 N4          0.3240    2.2780    0.3070 nh        1 MQA     -0.594400
     19 C9A         1.4930    1.4080    0.7510 c3        1 MQA      0.408000
     20 O24         2.0590    1.8090    1.9970 os        1 MQA     -0.409600
     21 C25         1.1470    2.1240    3.0370 c3        1 MQA      0.124700
     22 N2          2.2870    1.4210   -1.6660 n3        1 MQA     -0.740200
     23 O10         1.7120   -2.2860    0.8540 os        1 MQA     -0.441900
     24 O11         2.6640   -3.2960   -0.9350 o         1 MQA     -0.595000
     25 N12         2.1170   -4.5450    0.9780 n         1 MQA     -0.628000
     26 H1          3.6500    1.5420    0.1360 h1        1 MQA      0.121700
     27 H2          2.8160    3.6070   -1.5540 h1        1 MQA      0.105700
     28 H3          0.8290    4.2320   -0.2550 h1        1 MQA      0.083200
     29 H3A         0.0480    3.2540   -1.5910 h1        1 MQA      0.083200
     30 H9          0.9310   -0.3590    1.9440 hc        1 MQA      0.102700
     31 H10         1.3720   -1.2500   -0.9460 h1        1 MQA      0.068200
     32 H10A        2.8480   -0.7610    0.0280 h1        1 MQA      0.068200
     33 HM6        -4.9370    0.3390   -1.5520 hc        1 MQA      0.057700
     34 HM6A       -5.0540    1.4460   -0.1230 hc        1 MQA      0.057700
     35 HM6B       -4.3720    2.0680   -1.6880 hc        1 MQA      0.057700
     36 H24        -2.8750   -2.9910   -1.0360 h1        1 MQA      0.054367
     37 H24A       -3.3270   -3.1620    0.7350 h1        1 MQA      0.054367
     38 H24B       -4.6440   -3.1810   -0.5550 h1        1 MQA      0.054367
     39 H25         1.7860    2.1300    3.9560 h1        1 MQA      0.042367
     40 H25A        0.7000    3.1340    2.8670 h1        1 MQA      0.042367
     41 H25B        0.3410    1.3560    3.1260 h1        1 MQA      0.042367
     42 HN2         3.0760    1.2490   -2.2600 hn        1 MQA      0.369800
     43 HN12        1.5510   -4.5260    1.7900 hn        1 MQA      0.319500
     44 HN1A        2.2380   -5.4080    0.5060 hn        1 MQA      0.319500
@<TRIPOS>BOND
     1    1    2 1   
     2    1   19 1   
     3    1   22 1   
     4    1   26 1   
     5    2    3 1   
     6    2   22 1   
     7    2   27 1   
     8    3   18 1   
     9    3   28 1   
    10    3   29 1   
    11    4    5 1   
    12    4   11 2   
    13    4   16 1   
    14    5    6 2   
    15    5   12 1   
    16    6    7 1   
    17    6   13 1   
    18    7   15 2   
    19    7   17 1   
    20    8    9 1   
    21    8   17 1   
    22    8   19 1   
    23    8   30 1   
    24    9   23 1   
    25    9   31 1   
    26    9   32 1   
    27   10   23 1   
    28   10   24 2   
    29   10   25 1   
    30   12   33 1   
    31   12   34 1   
    32   12   35 1   
    33   13   14 1   
    34   14   36 1   
    35   14   37 1   
    36   14   38 1   
    37   16   17 2   
    38   16   18 1   
    39   18   19 1   
    40   19   20 1   
    41   20   21 1   
    42   21   39 1   
    43   21   40 1   
    44   21   41 1   
    45   22   42 1   
    46   25   43 1   
    47   25   44 1   
@<TRIPOS>SUBSTRUCTURE
     1 MQA         1 TEMP              0 ****  ****    0 ROOT
