@<TRIPOS>MOLECULE
MQA
   45    48     1     0     0
SMALL
bcc


@<TRIPOS>ATOM
      1 C1          0.2910   -0.2370    0.0930 cx        1 MQA      0.035500
      2 C2          1.7740   -0.1280    0.3720 cx        1 MQA      0.063500
      3 C3          1.9670    0.0520    1.8840 c3        1 MQA      0.204800
      4 C5          1.0790    2.1420    4.0930 c         1 MQA      0.565500
      5 C6          0.3580    3.2200    4.8160 cc        1 MQA     -0.115400
      6 C7         -0.8960    3.5920    4.4590 cd        1 MQA      0.017900
      7 C8         -1.6540    2.9670    3.3440 c         1 MQA      0.641500
      8 C9         -1.5540    0.9780    1.6210 c3        1 MQA     -0.044500
      9 C10        -1.8320    1.6980    0.3180 c3        1 MQA      0.169400
     10 C11        -3.3010    3.5780    0.4790 c         1 MQA      0.649100
     11 O5          2.2610    1.8680    4.3010 o         1 MQA     -0.445100
     12 CM6         1.1090    3.8730    5.9110 c3        1 MQA     -0.068900
     13 O7         -1.4800    4.6970    5.0560 os        1 MQA     -0.322900
     14 C24        -2.5790    4.3830    5.9170 c3        1 MQA      0.112700
     15 O8         -2.7720    3.3940    2.9880 o         1 MQA     -0.663100
     16 C4A         0.2620    1.4150    3.0760 cc        1 MQA      0.137800
     17 C8A        -0.9920    1.8540    2.7030 cd        1 MQA     -0.328400
     18 N4          0.6350    0.2120    2.4750 nh        1 MQA     -0.593400
     19 C9A        -0.4410   -0.1300    1.4550 c3        1 MQA      0.421000
     20 O24        -1.0270   -1.4120    1.6260 os        1 MQA     -0.403600
     21 C25        -1.3100   -1.8230    2.9570 c3        1 MQA      0.119700
     22 N2          1.0500    0.9460   -0.3060 n3        1 MQA     -0.757200
     23 O10        -3.1910    2.2410    0.3870 os        1 MQA     -0.403900
     24 O11        -2.4950    4.4230    0.1230 o         1 MQA     -0.411000
     25 N12        -4.6460    3.9620    1.0150 n4        1 MQA     -0.718400
     26 H1         -0.1770   -0.9330   -0.6260 h1        1 MQA      0.130700
     27 H2          2.5640   -0.7100   -0.1350 h1        1 MQA      0.124700
     28 H3          2.6350    0.9210    2.1290 h1        1 MQA      0.097200
     29 H3A         2.4130   -0.8900    2.3070 h1        1 MQA      0.097200
     30 H9         -2.4980    0.4750    1.9710 hc        1 MQA      0.101700
     31 H10        -1.0970    2.5140    0.1000 h1        1 MQA      0.107200
     32 H10A       -1.9100    0.9750   -0.5400 h1        1 MQA      0.107200
     33 HM6         1.9170    4.5180    5.4790 hc        1 MQA      0.075033
     34 HM6A        1.5940    3.1020    6.5610 hc        1 MQA      0.075033
     35 HM6B        0.4350    4.5130    6.5330 hc        1 MQA      0.075033
     36 H24        -2.2310    3.7530    6.7710 h1        1 MQA      0.051700
     37 H24A       -2.9210    5.3860    6.2750 h1        1 MQA      0.051700
     38 H24B       -3.3850    3.8640    5.3450 h1        1 MQA      0.051700
     39 H25        -0.3660   -2.0930    3.4900 h1        1 MQA      0.050033
     40 H25A       -1.8610   -1.0300    3.5170 h1        1 MQA      0.050033
     41 H25B       -1.9530   -2.7290    2.8160 h1        1 MQA      0.050033
     42 HN2         1.2290    1.0170   -1.2900 hn        1 MQA      0.379800
     43 HN12       -4.5920    3.9180    2.0470 hn        1 MQA      0.486133
     44 HN1A       -4.8650    4.9200    0.7230 hn        1 MQA      0.486133
     45 H123       -5.3620    3.3090    0.6850 hn        1 MQA      0.486133
@<TRIPOS>BOND
     1    1    2 1   
     2    1   19 1   
     3    1   22 1   
     4    1   26 1   
     5    2    3 1   
     6    2   22 1   
     7    2   27 1   
     8    3   18 1   
     9    3   28 1   
    10    3   29 1   
    11    4    5 1   
    12    4   11 2   
    13    4   16 1   
    14    5    6 2   
    15    5   12 1   
    16    6    7 1   
    17    6   13 1   
    18    7   15 2   
    19    7   17 1   
    20    8    9 1   
    21    8   17 1   
    22    8   19 1   
    23    8   30 1   
    24    9   23 1   
    25    9   31 1   
    26    9   32 1   
    27   10   23 1   
    28   10   24 2   
    29   10   25 1   
    30   12   33 1   
    31   12   34 1   
    32   12   35 1   
    33   13   14 1   
    34   14   36 1   
    35   14   37 1   
    36   14   38 1   
    37   16   17 2   
    38   16   18 1   
    39   18   19 1   
    40   19   20 1   
    41   20   21 1   
    42   21   39 1   
    43   21   40 1   
    44   21   41 1   
    45   22   42 1   
    46   25   43 1   
    47   25   44 1   
    48   25   45 1   
@<TRIPOS>SUBSTRUCTURE
     1 MQA         1 TEMP              0 ****  ****    0 ROOT
