@<TRIPOS>MOLECULE
MQA
   45    48     1     0     0
SMALL
bcc


@<TRIPOS>ATOM
      1 C1          0.2990   -0.1930    0.1100 cx        1 MQA      0.045500
      2 C2          1.7870   -0.1370    0.4020 cx        1 MQA      0.070500
      3 C3          1.9660   -0.0040    1.9200 c3        1 MQA      0.167800
      4 C5          1.1020    2.1460    4.1010 c         1 MQA      0.563500
      5 C6          0.3900    3.2360    4.8130 cc        1 MQA     -0.114400
      6 C7         -0.8590    3.6210    4.4490 cd        1 MQA      0.018900
      7 C8         -1.6220    2.9920    3.3400 c         1 MQA      0.641500
      8 C9         -1.5480    0.9790    1.6470 c3        1 MQA     -0.058500
      9 C10        -1.8790    1.6600    0.3350 c3        1 MQA      0.163400
     10 C11        -3.3450    3.5390    0.5120 c         1 MQA      0.649100
     11 O5          2.2810    1.8610    4.3100 o         1 MQA     -0.441100
     12 CM6         1.1440    3.8880    5.9070 c3        1 MQA     -0.069900
     13 O7         -1.4310    4.7390    5.0310 os        1 MQA     -0.321900
     14 C24        -2.5250    4.4460    5.9070 c3        1 MQA      0.112700
     15 O8         -2.7400    3.4180    2.9850 o         1 MQA     -0.658100
     16 C4A         0.2800    1.4190    3.0870 cc        1 MQA      0.122800
     17 C8A        -0.9670    1.8720    2.7030 cd        1 MQA     -0.337400
     18 N4          0.6370    0.2080    2.4980 nh        1 MQA     -0.603400
     19 C9A        -0.4340   -0.1270    1.4710 c3        1 MQA      0.390000
     20 O24        -1.0140   -1.4110    1.6220 os        1 MQA     -0.392600
     21 C25        -1.3030   -1.8420    2.9460 c3        1 MQA      0.117700
     22 N2          1.1170    0.9200   -0.3410 n7        1 MQA     -0.721200
     23 O10        -3.2350    2.1990    0.4350 os        1 MQA     -0.398900
     24 O11        -2.5400    4.3760    0.1390 o         1 MQA     -0.411000
     25 N12        -4.6830    3.9280    1.0580 nz        1 MQA     -0.716400
     26 H1         -0.1910   -0.8250   -0.6530 h1        1 MQA      0.150700
     27 H2          2.5760   -0.7040   -0.1260 h1        1 MQA      0.148700
     28 H3          2.3640   -0.9740    2.3310 h1        1 MQA      0.102200
     29 H3A         2.6730    0.8250    2.1970 h1        1 MQA      0.102200
     30 H9         -2.4780    0.4740    2.0340 hc        1 MQA      0.107700
     31 H10        -1.1610    2.4740    0.0620 h1        1 MQA      0.106700
     32 H10A       -1.9800    0.9100   -0.4990 h1        1 MQA      0.106700
     33 HM6         1.6110    3.1160    6.5690 hc        1 MQA      0.076700
     34 HM6A        1.9670    4.5150    5.4740 hc        1 MQA      0.076700
     35 HM6B        0.4770    4.5470    6.5170 hc        1 MQA      0.076700
     36 H24        -2.8560    5.4590    6.2510 h1        1 MQA      0.052033
     37 H24A       -2.1740    3.8280    6.7680 h1        1 MQA      0.052033
     38 H24B       -3.3390    3.9240    5.3500 h1        1 MQA      0.052033
     39 H25        -0.3610   -2.1100    3.4830 h1        1 MQA      0.051700
     40 H25A       -1.9340   -2.7550    2.7870 h1        1 MQA      0.051700
     41 H25B       -1.8680   -1.0640    3.5140 h1        1 MQA      0.051700
     42 HN2         1.0000    1.7960    0.1320 hn        1 MQA      0.352800
     43 HN12       -5.4000    3.2600    0.7580 hn        1 MQA      0.487467
     44 HN1A       -4.6120    3.9130    2.0900 hn        1 MQA      0.487467
     45 H123       -4.9150    4.8760    0.7420 hn        1 MQA      0.487467
@<TRIPOS>BOND
     1    1    2 1   
     2    1   19 1   
     3    1   22 1   
     4    1   26 1   
     5    2    3 1   
     6    2   22 1   
     7    2   27 1   
     8    3   18 1   
     9    3   28 1   
    10    3   29 1   
    11    4    5 1   
    12    4   11 2   
    13    4   16 1   
    14    5    6 2   
    15    5   12 1   
    16    6    7 1   
    17    6   13 1   
    18    7   15 2   
    19    7   17 1   
    20    8    9 1   
    21    8   17 1   
    22    8   19 1   
    23    8   30 1   
    24    9   23 1   
    25    9   31 1   
    26    9   32 1   
    27   10   23 1   
    28   10   24 2   
    29   10   25 1   
    30   12   33 1   
    31   12   34 1   
    32   12   35 1   
    33   13   14 1   
    34   14   36 1   
    35   14   37 1   
    36   14   38 1   
    37   16   17 2   
    38   16   18 1   
    39   18   19 1   
    40   19   20 1   
    41   20   21 1   
    42   21   39 1   
    43   21   40 1   
    44   21   41 1   
    45   22   42 1   
    46   25   43 1   
    47   25   44 1   
    48   25   45 1   
@<TRIPOS>SUBSTRUCTURE
     1 MQA         1 TEMP              0 ****  ****    0 ROOT
