@<TRIPOS>MOLECULE
MQD
   23    22     1     0     0
SMALL
bcc


@<TRIPOS>ATOM
      1 C1          0.0340   -1.4630   -0.7920 c3        1 MQD     -0.127100
      2 C2         -0.0820    0.0460   -0.6430 c3        1 MQD      0.161800
      3 O2          1.2100    0.6440   -0.5560 oh        1 MQD     -0.609800
      4 CM         -0.8240    0.6400   -1.8580 c3        1 MQD      0.098400
      5 C3         -0.8210    0.4550    0.6330 c3        1 MQD     -0.110400
      6 C4         -0.3840   -0.3150    1.8750 c3        1 MQD      0.148100
      7 O4          1.0210   -0.4820    1.9680 oh        1 MQD     -0.603800
      8 C5         -0.9070    0.3770    3.1240 c3        1 MQD     -0.124100
      9 O6          0.0190    0.4500   -2.9830 oh        1 MQD     -0.609800
     10 H1C1       -0.9690   -1.9380   -0.6820 hc        1 MQD      0.053700
     11 H1C2        0.4460   -1.7120   -1.8000 hc        1 MQD      0.053700
     12 H1C3        0.7210   -1.8640   -0.0070 hc        1 MQD      0.053700
     13 H2          1.6830    0.4010   -1.3620 ho        1 MQD      0.423000
     14 HMC1       -1.7980    0.1070   -2.0160 h1        1 MQD      0.033200
     15 HMC2       -1.0120    1.7340   -1.6930 h1        1 MQD      0.033200
     16 H3C1       -1.9190    0.2930    0.4800 hc        1 MQD      0.056700
     17 H3C2       -0.6470    1.5510    0.7990 hc        1 MQD      0.056700
     18 H4         -0.7800   -1.3710    1.8300 h1        1 MQD      0.062700
     19 HA          1.4390    0.3170    1.6210 ho        1 MQD      0.419000
     20 H5C1       -0.6060   -0.2040    4.0290 hc        1 MQD      0.041367
     21 H5C2       -0.4800    1.4040    3.2100 hc        1 MQD      0.041367
     22 H5C3       -2.0190    0.4470    3.0870 hc        1 MQD      0.041367
     23 H6         -0.3660    0.9550   -3.7080 ho        1 MQD      0.407000
@<TRIPOS>BOND
     1    1    2 1   
     2    1   10 1   
     3    1   11 1   
     4    1   12 1   
     5    2    3 1   
     6    2    4 1   
     7    2    5 1   
     8    3   13 1   
     9    4    9 1   
    10    4   14 1   
    11    4   15 1   
    12    5    6 1   
    13    5   16 1   
    14    5   17 1   
    15    6    7 1   
    16    6    8 1   
    17    6   18 1   
    18    7   19 1   
    19    8   20 1   
    20    8   21 1   
    21    8   22 1   
    22    9   23 1   
@<TRIPOS>SUBSTRUCTURE
     1 MQD         1 TEMP              0 ****  ****    0 ROOT
