@<TRIPOS>MOLECULE
MQD
   23    22     1     0     0
SMALL
bcc


@<TRIPOS>ATOM
      1 C1          1.4280   -0.2310   -0.6410 c3        1 MQD     -0.123100
      2 C2          0.0600   -0.0110   -0.0090 c3        1 MQD      0.156800
      3 O2          0.1910    0.1380    1.4010 oh        1 MQD     -0.597800
      4 CM         -0.5860    1.2600   -0.5990 c3        1 MQD      0.097400
      5 C3         -0.8900   -1.1870   -0.2490 c3        1 MQD     -0.071400
      6 C4         -0.4080   -2.4890    0.3860 c3        1 MQD      0.144100
      7 O4         -1.5790   -3.1240    0.8990 oh        1 MQD     -0.603800
      8 C5          0.2810   -3.4010   -0.6140 c3        1 MQD     -0.132100
      9 O6          0.2250    2.3550   -0.1990 oh        1 MQD     -0.612800
     10 H1C1        1.3170   -0.5130   -1.7140 hc        1 MQD      0.047700
     11 H1C2        2.0300    0.7080   -0.5720 hc        1 MQD      0.047700
     12 H1C3        1.9680   -1.0440   -0.1000 hc        1 MQD      0.047700
     13 H2          0.7040    0.9450    1.5460 ho        1 MQD      0.417000
     14 HMC1       -0.6150    1.1960   -1.7170 h1        1 MQD      0.036200
     15 HMC2       -1.6260    1.3810   -0.1970 h1        1 MQD      0.036200
     16 H3C1       -1.0170   -1.3210   -1.3530 hc        1 MQD      0.062700
     17 H3C2       -1.8920   -0.9340    0.1920 hc        1 MQD      0.062700
     18 H4          0.2890   -2.2570    1.2420 h1        1 MQD      0.055700
     19 HA         -1.2850   -3.9280    1.3410 ho        1 MQD      0.398000
     20 H5C1       -0.4410   -3.7310   -1.3990 hc        1 MQD      0.041700
     21 H5C2        1.1280   -2.8640   -1.1030 hc        1 MQD      0.041700
     22 H5C3        0.6800   -4.3070   -0.0980 hc        1 MQD      0.041700
     23 H6         -0.2710    3.1560   -0.4010 ho        1 MQD      0.408000
@<TRIPOS>BOND
     1    1    2 1   
     2    1   10 1   
     3    1   11 1   
     4    1   12 1   
     5    2    3 1   
     6    2    4 1   
     7    2    5 1   
     8    3   13 1   
     9    4    9 1   
    10    4   14 1   
    11    4   15 1   
    12    5    6 1   
    13    5   16 1   
    14    5   17 1   
    15    6    7 1   
    16    6    8 1   
    17    6   18 1   
    18    7   19 1   
    19    8   20 1   
    20    8   21 1   
    21    8   22 1   
    22    9   23 1   
@<TRIPOS>SUBSTRUCTURE
     1 MQD         1 TEMP              0 ****  ****    0 ROOT
