@<TRIPOS>MOLECULE
MQD
   23    22     1     0     0
SMALL
bcc


@<TRIPOS>ATOM
      1 C1          1.4300   -0.2280   -0.6320 c3        1 MQD     -0.123100
      2 C2          0.0530   -0.0090   -0.0180 c3        1 MQD      0.156800
      3 O2          0.1680    0.1570    1.3920 oh        1 MQD     -0.597800
      4 CM         -0.5930    1.2520   -0.6290 c3        1 MQD      0.097400
      5 C3         -0.8870   -1.1930   -0.2560 c3        1 MQD     -0.071400
      6 C4         -0.4060   -2.4850    0.4000 c3        1 MQD      0.144100
      7 O4         -1.5790   -3.1200    0.9060 oh        1 MQD     -0.603800
      8 C5          0.3000   -3.4040   -0.5810 c3        1 MQD     -0.132100
      9 O6          0.2080    2.3560   -0.2330 oh        1 MQD     -0.612800
     10 H1C1        1.3330   -0.5220   -1.7030 hc        1 MQD      0.047700
     11 H1C2        2.0260    0.7150   -0.5670 hc        1 MQD      0.047700
     12 H1C3        1.9680   -1.0330   -0.0760 hc        1 MQD      0.047700
     13 H2          0.6750    0.9680    1.5330 ho        1 MQD      0.417000
     14 HMC1       -0.6090    1.1760   -1.7480 h1        1 MQD      0.036200
     15 HMC2       -1.6380    1.3710   -0.2400 h1        1 MQD      0.036200
     16 H3C1       -1.0010   -1.3400   -1.3590 hc        1 MQD      0.062700
     17 H3C2       -1.8950   -0.9410    0.1710 hc        1 MQD      0.062700
     18 H4          0.2800   -2.2390    1.2610 h1        1 MQD      0.055700
     19 HA         -1.2860   -3.9180    1.3610 ho        1 MQD      0.398000
     20 H5C1       -0.4110   -3.7470   -1.3710 hc        1 MQD      0.041700
     21 H5C2        1.1490   -2.8680   -1.0680 hc        1 MQD      0.041700
     22 H5C3        0.6970   -4.3020   -0.0510 hc        1 MQD      0.041700
     23 H6         -0.2900    3.1520   -0.4500 ho        1 MQD      0.408000
@<TRIPOS>BOND
     1    1    2 1   
     2    1   10 1   
     3    1   11 1   
     4    1   12 1   
     5    2    3 1   
     6    2    4 1   
     7    2    5 1   
     8    3   13 1   
     9    4    9 1   
    10    4   14 1   
    11    4   15 1   
    12    5    6 1   
    13    5   16 1   
    14    5   17 1   
    15    6    7 1   
    16    6    8 1   
    17    6   18 1   
    18    7   19 1   
    19    8   20 1   
    20    8   21 1   
    21    8   22 1   
    22    9   23 1   
@<TRIPOS>SUBSTRUCTURE
     1 MQD         1 TEMP              0 ****  ****    0 ROOT
