@<TRIPOS>MOLECULE
MQI
   23    22     1     0     0
SMALL
bcc


@<TRIPOS>ATOM
      1 S           1.5480   -0.6460    0.0020 s4        1 MQI      1.998800
      2 O1          2.8350   -0.9200   -0.4040 o         1 MQI     -0.471400
      3 O2          1.3590    0.2840    1.0000 o         1 MQI     -0.471400
      4 C1         -4.4360   -1.3220   -0.7710 c1        1 MQI      0.261000
      5 C2         -5.7550   -1.2100   -1.0460 c2        1 MQI     -0.318000
      6 C3         -2.8400   -3.4830   -2.3480 c2        1 MQI     -0.197000
      7 C4         -1.8440   -2.7510   -1.8210 ca        1 MQI     -0.061000
      8 C5         -0.4630   -2.9520   -2.2390 ca        1 MQI     -0.111000
      9 C6          0.5700   -2.2970   -1.6900 ca        1 MQI     -0.076000
     10 C7          0.4030   -1.3170   -0.6250 ca        1 MQI     -1.148000
     11 C8         -0.9690   -1.0630   -0.2320 ca        1 MQI     -0.025000
     12 C9         -2.0300   -1.7130   -0.7880 ca        1 MQI      0.051000
     13 N          -3.3160   -1.4160   -0.3200 n2        1 MQI     -0.151000
     14 H1         -6.1280   -0.1910   -1.2550 ha        1 MQI      0.121000
     15 H3         -3.8980   -3.3890   -2.0620 ha        1 MQI      0.135000
     16 H5         -2.6410   -4.2470   -3.1110 ha        1 MQI      0.135000
     17 H6         -0.2990   -3.6880   -3.0440 ha        1 MQI      0.140000
     18 H7          1.6050   -2.4810   -2.0310 ha        1 MQI      0.140000
     19 H101       -7.5820   -2.2820   -1.2830 ha        1 MQI      0.056000
     20 H102       -6.0210   -3.5440   -3.0390 ha        1 MQI      0.004500
     21 H103       -6.4120   -3.1120   -3.3860 ha        1 MQI      0.004500
     22 HS1        -1.1160   -0.2970    0.5530 ha        1 MQI      0.152000
     23 C10        -6.5140   -2.3760   -1.0460 c1        1 MQI     -0.170000
@<TRIPOS>BOND
     1    1    2 1   
     2    1    3 1   
     3    1   10 1   
     4    4    5 1   
     5    4   13 1   
     6    5   14 1   
     7    5   23 1   
     8    6    7 1   
     9    6   15 1   
    10    6   16 1   
    11    7    8 1   
    12    7   12 1   
    13    8    9 1   
    14    8   17 1   
    15    9   10 1   
    16    9   18 1   
    17   10   11 1   
    18   11   12 1   
    19   11   22 1   
    20   12   13 1   
    21   19   23 1   
    22   20   21 1   
@<TRIPOS>SUBSTRUCTURE
     1 MQI         1 TEMP              0 ****  ****    0 ROOT
