@<TRIPOS>MOLECULE
MQI
   23    22     1     0     0
SMALL
bcc


@<TRIPOS>ATOM
      1 S          -1.5770    0.3550    1.0800 ss        1 MQI      1.507000
      2 O1         -0.4350    0.7690    0.3160 o         1 MQI     -0.765500
      3 O2         -1.1570   -0.6960    1.9550 o         1 MQI     -0.765500
      4 C1         -3.6520   -1.0140   -1.2620 c1        1 MQI     -0.020000
      5 C2         -4.8960   -0.7010   -1.5330 c2        1 MQI     -0.157000
      6 C3         -3.2870   -3.9260   -1.8440 c1        1 MQI     -0.070000
      7 C4         -1.9780   -3.3980   -1.9390 ca        1 MQI     -0.197000
      8 C5         -1.0050   -4.2530   -2.4990 ca        1 MQI     -0.003000
      9 C6          0.3230   -3.8580   -2.6210 ca        1 MQI     -0.176000
     10 C7          0.7040   -2.5810   -2.2100 ca        1 MQI     -0.053000
     11 C8         -0.2280   -1.6940   -1.6750 ca        1 MQI     -0.145000
     12 C9         -1.5710   -2.0910   -1.5230 ca        1 MQI      0.052000
     13 N          -2.4620   -1.1720   -0.9140 n2        1 MQI     -0.160000
     14 H1         -5.1040    0.1260   -2.2350 ha        1 MQI      0.165000
     15 H3         -4.0110   -3.4280   -1.1810 ha        1 MQI      0.044000
     16 H5         -1.3250   -5.2560   -2.8310 ha        1 MQI      0.160000
     17 H6          1.0680   -4.5460   -3.0460 ha        1 MQI      0.144000
     18 H7          1.7540   -2.2610   -2.3090 ha        1 MQI      0.146000
     19 H101       -5.7640   -2.2080   -0.2480 hc        1 MQI      0.094667
     20 H102       -6.6800   -1.8400   -1.7700 hc        1 MQI      0.094667
     21 H103       -6.6990   -0.6580   -0.3930 hc        1 MQI      0.094667
     22 HS1         0.1020   -0.6880   -1.3540 ha        1 MQI      0.185000
     23 C10        -6.0630   -1.3910   -0.9500 c3        1 MQI     -0.173000
@<TRIPOS>BOND
     1    1    2 1   
     2    1    3 1   
     3    4    5 1   
     4    4   13 1   
     5    5   14 1   
     6    5   23 1   
     7    6    7 1   
     8    6   15 1   
     9    7    8 1   
    10    7   12 1   
    11    8    9 1   
    12    8   16 1   
    13    9   10 1   
    14    9   17 1   
    15   10   11 1   
    16   10   18 1   
    17   11   12 1   
    18   11   22 1   
    19   12   13 1   
    20   19   23 1   
    21   20   23 1   
    22   21   23 1   
@<TRIPOS>SUBSTRUCTURE
     1 MQI         1 TEMP              0 ****  ****    0 ROOT
