@<TRIPOS>MOLECULE
MQI
   23    24     1     0     0
SMALL
bcc


@<TRIPOS>ATOM
      1 S          -2.7160   -0.6980   -0.3090 sy        1 MQI      1.389300
      2 O1         -1.8340   -1.6210    0.2810 o         1 MQI     -0.651800
      3 O2         -3.3270   -1.0950   -1.5000 o         1 MQI     -0.651800
      4 C1         -4.6890    2.9880   -1.2740 ca        1 MQI      0.452200
      5 C2         -4.0720    4.2720   -1.4760 ca        1 MQI     -0.197600
      6 C3         -2.7100    4.3630   -1.3050 ca        1 MQI     -0.072000
      7 C4         -1.9640    3.2030   -0.9480 ca        1 MQI     -0.165300
      8 C5         -0.5610    3.2400   -0.7510 ca        1 MQI     -0.040000
      9 C6          0.1210    2.0970   -0.4050 ca        1 MQI     -0.164000
     10 C7         -0.5710    0.8770   -0.2540 ca        1 MQI      0.021000
     11 C8         -1.9360    0.7860   -0.4440 ca        1 MQI     -0.420800
     12 C9         -2.6640    1.9720   -0.7840 ca        1 MQI      0.472600
     13 N          -4.0360    1.8910   -0.9430 nb        1 MQI     -0.687000
     14 H1         -5.7840    2.8890   -1.3980 h4        1 MQI      0.032100
     15 H3         -2.1790    5.3180   -1.4400 ha        1 MQI      0.143000
     16 H5         -0.0310    4.1970   -0.8800 ha        1 MQI      0.141000
     17 H6          1.2100    2.1180   -0.2460 ha        1 MQI      0.148000
     18 H7         -0.0000   -0.0300    0.0250 ha        1 MQI      0.169000
     19 H101       -5.7010    5.6000   -1.0780 hc        1 MQI      0.051700
     20 H102       -4.3050    6.3560   -1.9560 hc        1 MQI      0.051700
     21 H103       -5.4240    5.2260   -2.8300 hc        1 MQI      0.051700
     22 HS1        -3.5590   -0.3890    0.5220 hs        1 MQI     -0.019200
     23 C10        -4.9140    5.4240   -1.8540 c3        1 MQI     -0.052800
@<TRIPOS>BOND
     1    1    2 2   
     2    1    3 2   
     3    1   11 1   
     4    1   22 1   
     5    4    5 ar  
     6    4   13 ar  
     7    4   14 1   
     8    5    6 ar  
     9    5   23 1   
    10    6    7 ar  
    11    6   15 1   
    12    7    8 ar  
    13    7   12 ar  
    14    8    9 ar  
    15    8   16 1   
    16    9   10 ar  
    17    9   17 1   
    18   10   11 ar  
    19   10   18 1   
    20   11   12 ar  
    21   12   13 ar  
    22   19   23 1   
    23   20   23 1   
    24   21   23 1   
@<TRIPOS>SUBSTRUCTURE
     1 MQI         1 TEMP              0 ****  ****    0 ROOT
