@<TRIPOS>MOLECULE
MQN
   23    24     1     0     0
SMALL
bcc


@<TRIPOS>ATOM
      1 CAA        -0.0310    0.0110   -0.0260 c3        1 MQN     -0.171400
      2 CAI         1.4620    0.0000    0.0320 ca        1 MQN      0.486600
      3 NAH         2.0910    0.0330    1.2060 nb        1 MQN     -0.660000
      4 CAL         3.4670    0.0220    1.2110 ca        1 MQN      0.444600
      5 CAF         4.1650    0.0570    2.4650 ca        1 MQN     -0.116300
      6 CAD         5.5340    0.0470    2.5080 ca        1 MQN     -0.133000
      7 CAJ         6.2800    0.0020    1.2940 ca        1 MQN     -0.091400
      8 NAB         7.7400   -0.0070    1.3800 n4        1 MQN     -0.697000
      9 CAG         5.6470   -0.0330    0.0610 ca        1 MQN     -0.043000
     10 CAK         4.2370   -0.0230    0.0060 ca        1 MQN     -0.165300
     11 CAE         3.5320   -0.0580   -1.2350 ca        1 MQN     -0.073000
     12 CAC         2.1640   -0.0460   -1.2280 ca        1 MQN     -0.221300
     13 H1         -0.3830   -0.9140   -0.5500 hc        1 MQN      0.077367
     14 H2         -0.3680    0.9040   -0.6090 hc        1 MQN      0.077367
     15 H3         -0.5000    0.0480    0.9880 hc        1 MQN      0.077367
     16 H4          3.5790    0.0920    3.4020 ha        1 MQN      0.188000
     17 H5          6.0520    0.0740    3.4810 ha        1 MQN      0.156000
     18 H6          8.0580    0.8420    1.8600 hn        1 MQN      0.461800
     19 H7          8.1540   -0.0420    0.4430 hn        1 MQN      0.461800
     20 H8          6.2080   -0.0680   -0.8890 ha        1 MQN      0.154000
     21 H9          4.1010   -0.0930   -2.1780 ha        1 MQN      0.155000
     22 H10         1.5780   -0.0720   -2.1590 ha        1 MQN      0.171000
     23 HAB3        8.0450   -0.8290    1.9160 hn        1 MQN      0.461800
@<TRIPOS>BOND
     1    1    2 1   
     2    1   13 1   
     3    1   14 1   
     4    1   15 1   
     5    2    3 ar  
     6    2   12 ar  
     7    3    4 ar  
     8    4    5 ar  
     9    4   10 ar  
    10    5    6 ar  
    11    5   16 1   
    12    6    7 ar  
    13    6   17 1   
    14    7    8 1   
    15    7    9 ar  
    16    8   18 1   
    17    8   19 1   
    18    8   23 1   
    19    9   10 ar  
    20    9   20 1   
    21   10   11 ar  
    22   11   12 ar  
    23   11   21 1   
    24   12   22 1   
@<TRIPOS>SUBSTRUCTURE
     1 MQN         1 TEMP              0 ****  ****    0 ROOT
