@<TRIPOS>MOLECULE
MQN
   22    23     1     0     0
SMALL
bcc


@<TRIPOS>ATOM
      1 CAA         3.9170    0.5280   -0.0100 c3        1 MQN     -0.150400
      2 CAI         2.4710    0.1450   -0.0060 ca        1 MQN      0.412600
      3 NAH         1.5270    1.0800    0.0360 nb        1 MQN     -0.652000
      4 CAL         0.2080    0.6740    0.0400 ca        1 MQN      0.366600
      5 CAF        -0.8350    1.6550    0.0860 ca        1 MQN     -0.134300
      6 CAD        -2.1510    1.2830    0.0890 ca        1 MQN     -0.165000
      7 CAJ        -2.5350   -0.1000    0.0510 ca        1 MQN      0.141600
      8 NAB        -3.8850   -0.4480    0.1470 nh        1 MQN     -0.818200
      9 CAG        -1.5350   -1.0680   -0.0020 ca        1 MQN     -0.194000
     10 CAK        -0.1720   -0.7010   -0.0020 ca        1 MQN     -0.109300
     11 CAE         0.8700   -1.6740   -0.0460 ca        1 MQN     -0.093000
     12 CAC         2.1760   -1.2630   -0.0480 ca        1 MQN     -0.239300
     13 H1          4.4000    0.1270   -0.9350 hc        1 MQN      0.053033
     14 H2          4.0650    1.6350    0.0190 hc        1 MQN      0.053033
     15 H3          4.4180    0.0770    0.8820 hc        1 MQN      0.053033
     16 H4         -0.5600    2.7220    0.1190 ha        1 MQN      0.150000
     17 H5         -2.9360    2.0550    0.1310 ha        1 MQN      0.135000
     18 H6         -4.5150    0.2510   -0.1770 hn        1 MQN      0.390800
     19 H7         -4.1010   -1.3610   -0.1870 hn        1 MQN      0.390800
     20 H8         -1.7850   -2.1390   -0.0350 ha        1 MQN      0.133000
     21 H9          0.6020   -2.7410   -0.0770 ha        1 MQN      0.136000
     22 H10         3.0090   -1.9780   -0.0800 ha        1 MQN      0.140000
@<TRIPOS>BOND
     1    1    2 1   
     2    1   13 1   
     3    1   14 1   
     4    1   15 1   
     5    2    3 ar  
     6    2   12 ar  
     7    3    4 ar  
     8    4    5 ar  
     9    4   10 ar  
    10    5    6 ar  
    11    5   16 1   
    12    6    7 ar  
    13    6   17 1   
    14    7    8 1   
    15    7    9 ar  
    16    8   18 1   
    17    8   19 1   
    18    9   10 ar  
    19    9   20 1   
    20   10   11 ar  
    21   11   12 ar  
    22   11   21 1   
    23   12   22 1   
@<TRIPOS>SUBSTRUCTURE
     1 MQN         1 TEMP              0 ****  ****    0 ROOT
