@<TRIPOS>MOLECULE
MQN
   22    23     1     0     0
SMALL
bcc


@<TRIPOS>ATOM
      1 CAA        -0.0210   -0.0350   -0.0310 c3        1 MQN     -0.150400
      2 CAI         1.4730   -0.0070    0.0330 ca        1 MQN      0.412600
      3 NAH         2.0980   -0.0650    1.2050 nb        1 MQN     -0.652000
      4 CAL         3.4780   -0.0340    1.2100 ca        1 MQN      0.366600
      5 CAF         4.1840   -0.0930    2.4550 ca        1 MQN     -0.134300
      6 CAD         5.5510   -0.0660    2.4900 ca        1 MQN     -0.165000
      7 CAJ         6.3260    0.0280    1.2860 ca        1 MQN      0.141600
      8 NAB         7.7170    0.1450    1.3630 nh        1 MQN     -0.818200
      9 CAG         5.6570    0.0780    0.0640 ca        1 MQN     -0.194000
     10 CAK         4.2470    0.0550    0.0110 ca        1 MQN     -0.109300
     11 CAE         3.5400    0.1150   -1.2260 ca        1 MQN     -0.093000
     12 CAC         2.1710    0.0860   -1.2220 ca        1 MQN     -0.239300
     13 H1         -0.3850    0.8970   -0.5290 hc        1 MQN      0.053033
     14 H2         -0.4900   -0.1050    0.9810 hc        1 MQN      0.053033
     15 H3         -0.3460   -0.9170   -0.6370 hc        1 MQN      0.053033
     16 H4          3.6060   -0.1620    3.3900 ha        1 MQN      0.150000
     17 H5          6.0720   -0.1070    3.4600 ha        1 MQN      0.135000
     18 H6          8.1190   -0.2520    2.1830 hn        1 MQN      0.390800
     19 H7          8.1990   -0.1010    0.5280 hn        1 MQN      0.390800
     20 H8          6.2140    0.1470   -0.8830 ha        1 MQN      0.133000
     21 H9          4.1110    0.1860   -2.1640 ha        1 MQN      0.136000
     22 H10         1.5880    0.1310   -2.1510 ha        1 MQN      0.140000
@<TRIPOS>BOND
     1    1    2 1   
     2    1   13 1   
     3    1   14 1   
     4    1   15 1   
     5    2    3 ar  
     6    2   12 ar  
     7    3    4 ar  
     8    4    5 ar  
     9    4   10 ar  
    10    5    6 ar  
    11    5   16 1   
    12    6    7 ar  
    13    6   17 1   
    14    7    8 1   
    15    7    9 ar  
    16    8   18 1   
    17    8   19 1   
    18    9   10 ar  
    19    9   20 1   
    20   10   11 ar  
    21   11   12 ar  
    22   11   21 1   
    23   12   22 1   
@<TRIPOS>SUBSTRUCTURE
     1 MQN         1 TEMP              0 ****  ****    0 ROOT
