@<TRIPOS>MOLECULE
MQN
   22    23     1     0     0
SMALL
bcc


@<TRIPOS>ATOM
      1 CAA        -0.0220   -0.0400   -0.0250 c3        1 MQN     -0.150400
      2 CAI         1.4730   -0.0090    0.0360 ca        1 MQN      0.412600
      3 NAH         2.0990   -0.0680    1.2070 nb        1 MQN     -0.652000
      4 CAL         3.4790   -0.0350    1.2100 ca        1 MQN      0.366600
      5 CAF         4.1870   -0.0960    2.4540 ca        1 MQN     -0.134300
      6 CAD         5.5540   -0.0670    2.4880 ca        1 MQN     -0.165000
      7 CAJ         6.3270    0.0300    1.2820 ca        1 MQN      0.141600
      8 NAB         7.7180    0.1490    1.3580 nv        1 MQN     -0.818200
      9 CAG         5.6570    0.0810    0.0620 ca        1 MQN     -0.194000
     10 CAK         4.2460    0.0560    0.0100 ca        1 MQN     -0.109300
     11 CAE         3.5370    0.1170   -1.2260 ca        1 MQN     -0.093000
     12 CAC         2.1690    0.0860   -1.2200 ca        1 MQN     -0.239300
     13 H1         -0.3460   -0.9190   -0.6350 hc        1 MQN      0.053033
     14 H2         -0.3880    0.8950   -0.5180 hc        1 MQN      0.053033
     15 H3         -0.4890   -0.1150    0.9870 hc        1 MQN      0.053033
     16 H4          3.6100   -0.1670    3.3900 ha        1 MQN      0.150000
     17 H5          6.0760   -0.1080    3.4570 ha        1 MQN      0.135000
     18 H6          8.1990   -0.0950    0.5210 hn        1 MQN      0.390800
     19 H7          8.1220   -0.2480    2.1760 hn        1 MQN      0.390800
     20 H8          6.2110    0.1530   -0.8860 ha        1 MQN      0.133000
     21 H9          4.1070    0.1910   -2.1640 ha        1 MQN      0.136000
     22 H10         1.5840    0.1320   -2.1480 ha        1 MQN      0.140000
@<TRIPOS>BOND
     1    1    2 1   
     2    1   13 1   
     3    1   14 1   
     4    1   15 1   
     5    2    3 ar  
     6    2   12 ar  
     7    3    4 ar  
     8    4    5 ar  
     9    4   10 ar  
    10    5    6 ar  
    11    5   16 1   
    12    6    7 ar  
    13    6   17 1   
    14    7    8 1   
    15    7    9 ar  
    16    8   18 1   
    17    8   19 1   
    18    9   10 ar  
    19    9   20 1   
    20   10   11 ar  
    21   11   12 ar  
    22   11   21 1   
    23   12   22 1   
@<TRIPOS>SUBSTRUCTURE
     1 MQN         1 TEMP              0 ****  ****    0 ROOT
