@<TRIPOS>MOLECULE
MQQ
   85    88     1     0     0
SMALL
bcc


@<TRIPOS>ATOM
      1 N3         -2.2130   -0.7200   -0.8100 n         1 MQQ     -0.376800
      2 O6         -2.7760   -3.4700   -1.1830 os        1 MQQ     -0.367600
      3 C2         -1.1280   -1.6820   -0.9270 c3        1 MQQ      0.031000
      4 C3         -1.5590   -3.1180   -0.5540 c3        1 MQQ      0.116900
      5 C4         -3.5570   -1.1690   -1.2080 c3        1 MQQ      0.031000
      6 C5         -3.8390   -2.6170   -0.7850 c3        1 MQQ      0.116900
      7 C11        -2.0290    0.6180   -0.6850 c         1 MQQ      0.642100
      8 O1         -2.8920    1.5050   -0.5660 o         1 MQQ     -0.553100
      9 N1         -0.5920    1.1930   -0.5830 ny        1 MQQ     -0.673800
     10 CA         -0.4830    2.5400   -1.2450 c3        1 MQQ      0.080500
     11 CB         -0.6620    2.4590   -2.7580 c3        1 MQQ     -0.097400
     12 CG          0.3760    1.6160   -3.4440 c3        1 MQQ     -0.292600
     13 SD          0.0440    1.6480   -5.2050 sy        1 MQQ      1.410300
     14 CE          1.4840    1.1870   -5.8020 ca        1 MQQ     -0.472500
     15 C          -1.4230    3.5340   -0.5300 c         1 MQQ      0.548100
     16 O          -1.3380    3.7040    0.6820 o         1 MQQ     -0.419100
     17 O2         -0.9590    0.6880   -5.3500 o         1 MQQ     -0.643800
     18 O3         -0.2710    2.9890   -5.4490 o         1 MQQ     -0.643800
     19 CD1         2.4910    2.1310   -6.0800 ca        1 MQQ     -0.007000
     20 CD2         1.7300   -0.1580   -6.1380 ca        1 MQQ     -0.007000
     21 CX1         3.6960    1.7490   -6.6560 ca        1 MQQ     -0.145500
     22 CX2         2.9330   -0.5460   -6.7140 ca        1 MQQ     -0.145500
     23 CZ          3.9210    0.4070   -6.9750 ca        1 MQQ     -0.020000
     24 CM         -5.1390    5.7800   -0.9910 c3        1 MQQ     -0.327600
     25 N2         -2.4500    4.2730   -1.2940 ny        1 MQQ     -0.664800
     26 CA1        -2.5600    5.7420   -0.9180 c3        1 MQQ      0.137500
     27 CB3        -1.3700    6.5550   -1.4360 c3        1 MQQ     -0.123400
     28 CG1         1.0430    7.0800   -1.2220 ca        1 MQQ     -0.131300
     29 CDB         1.6660    7.8200   -0.2120 ca        1 MQQ     -0.122500
     30 CDC         1.4430    7.2520   -2.5530 ca        1 MQQ     -0.122500
     31 CE1         2.6780    8.7260   -0.5310 ca        1 MQQ     -0.115000
     32 CE2         2.4530    8.1580   -2.8690 ca        1 MQQ     -0.115000
     33 CZ1         3.0720    8.8960   -1.8580 ca        1 MQQ     -0.099000
     34 CB2        -0.0320    6.1090   -0.8840 c3        1 MQQ     -0.023100
     35 CT         -3.8420    6.3700   -1.4850 c3        1 MQQ     -0.079400
     36 C1         -9.9360    4.0510   -0.4820 ca        1 MQQ     -0.020000
     37 C21        -8.8480    3.3620    0.0640 ca        1 MQQ     -0.144000
     38 C31        -7.5730    3.5680   -0.4440 ca        1 MQQ     -0.005000
     39 C41        -7.3470    4.4650   -1.5040 ca        1 MQQ     -0.457500
     40 C51        -8.4570    5.1430   -2.0440 ca        1 MQQ     -0.005000
     41 C6         -9.7360    4.9400   -1.5390 ca        1 MQQ     -0.144000
     42 S1         -5.8670    4.6950   -2.1390 sy        1 MQQ      1.403300
     43 O11        -5.8670    5.3100   -3.3910 o         1 MQQ     -0.676300
     44 O21        -5.0190    3.5480   -2.0350 o         1 MQQ     -0.676300
     45 H21A       -0.7560   -1.6820   -1.9930 h1        1 MQQ      0.082950
     46 H22        -0.2850   -1.4090   -0.2320 h1        1 MQQ      0.082950
     47 H31A       -0.8030   -3.8460   -0.9560 h1        1 MQQ      0.093450
     48 H32        -1.6470   -3.2180    0.5600 h1        1 MQQ      0.093450
     49 H41        -3.6270   -1.0890   -2.3330 h1        1 MQQ      0.082950
     50 H42        -4.3240   -0.4870   -0.7420 h1        1 MQQ      0.082950
     51 H51A       -4.0090   -2.6900    0.3210 h1        1 MQQ      0.093450
     52 H52        -4.7370   -2.9980   -1.3450 h1        1 MQQ      0.093450
     53 HN1         0.0930    0.5720   -1.0300 hn        1 MQQ      0.476300
     54 HA          0.5740    2.9150   -1.0290 hx        1 MQQ      0.154700
     55 HB1        -1.6900    2.0720   -3.0100 hc        1 MQQ      0.110200
     56 HB2        -0.5630    3.5080   -3.1710 hc        1 MQQ      0.110200
     57 HG1         1.4030    2.0030   -3.2360 h1        1 MQQ      0.096700
     58 HG2         0.3460    0.5500   -3.1160 h1        1 MQQ      0.096700
     59 HD1         2.3050    3.1970   -5.8570 ha        1 MQQ      0.155500
     60 HD2         0.9390   -0.9090   -5.9620 ha        1 MQQ      0.155500
     61 HX1         4.4680    2.5040   -6.8740 ha        1 MQQ      0.167000
     62 HX2         3.1020   -1.6030   -6.9800 ha        1 MQQ      0.167000
     63 HZ          4.8740    0.1020   -7.4420 ha        1 MQQ      0.167000
     64 HM1        -4.9960    5.2840    0.0030 h1        1 MQQ      0.126700
     65 HM2        -5.8410    6.6350   -0.7750 h1        1 MQQ      0.126700
     66 HN2        -2.2920    4.2020   -2.3060 hn        1 MQQ      0.499800
     67 HA1        -2.5870    5.7690    0.2130 hx        1 MQQ      0.121700
     68 HB31       -1.5470    7.6240   -1.1240 hc        1 MQQ      0.100700
     69 HB32       -1.3460    6.5470   -2.5590 hc        1 MQQ      0.100700
     70 HCD1        1.3590    7.6950    0.8380 ha        1 MQQ      0.128000
     71 HCD2        0.9560    6.6770   -3.3540 ha        1 MQQ      0.128000
     72 HE1         3.1640    9.3080    0.2670 ha        1 MQQ      0.152500
     73 HE2         2.7600    8.2960   -3.9170 ha        1 MQQ      0.152500
     74 HZ1         3.8690    9.6140   -2.1100 ha        1 MQQ      0.157000
     75 HB21       -0.1040    5.9820    0.2310 hc        1 MQQ      0.024200
     76 HB22        0.2400    5.1060   -1.3210 hc        1 MQQ      0.024200
     77 HT1        -3.8150    6.3550   -2.6120 hc        1 MQQ      0.105200
     78 HT2        -3.7960    7.4560   -1.1830 hc        1 MQQ      0.105200
     79 H31        -6.7180    3.0110   -0.0220 ha        1 MQQ      0.153000
     80 H51        -8.3060    5.8370   -2.8930 ha        1 MQQ      0.153000
     81 H6        -10.5920    5.4790   -1.9780 ha        1 MQQ      0.165500
     82 H1        -10.9510    3.8880   -0.0800 ha        1 MQQ      0.167000
     83 H12        -0.3660    1.2910    0.4170 hn        1 MQQ      0.476300
     84 H221       -3.3700    3.7990   -1.0940 hn        1 MQQ      0.499800
     85 H21        -9.0060    2.6550    0.8940 ha        1 MQQ      0.165500
@<TRIPOS>BOND
     1    1    3 1   
     2    1    5 1   
     3    1    7 1   
     4    2    4 1   
     5    2    6 1   
     6    3    4 1   
     7    3   45 1   
     8    3   46 1   
     9    4   47 1   
    10    4   48 1   
    11    5    6 1   
    12    5   49 1   
    13    5   50 1   
    14    6   51 1   
    15    6   52 1   
    16    7    8 2   
    17    7    9 1   
    18    9   10 1   
    19    9   53 1   
    20    9   83 1   
    21   10   11 1   
    22   10   15 1   
    23   10   54 1   
    24   11   12 1   
    25   11   55 1   
    26   11   56 1   
    27   12   13 1   
    28   12   57 1   
    29   12   58 1   
    30   13   14 1   
    31   13   17 2   
    32   13   18 2   
    33   14   19 ar  
    34   14   20 ar  
    35   15   16 2   
    36   15   25 1   
    37   19   21 ar  
    38   19   59 1   
    39   20   22 ar  
    40   20   60 1   
    41   21   23 ar  
    42   21   61 1   
    43   22   23 ar  
    44   22   62 1   
    45   23   63 1   
    46   24   35 1   
    47   24   42 1   
    48   24   64 1   
    49   24   65 1   
    50   25   26 1   
    51   25   66 1   
    52   25   84 1   
    53   26   27 1   
    54   26   35 1   
    55   26   67 1   
    56   27   34 1   
    57   27   68 1   
    58   27   69 1   
    59   28   29 ar  
    60   28   30 ar  
    61   28   34 1   
    62   29   31 ar  
    63   29   70 1   
    64   30   32 ar  
    65   30   71 1   
    66   31   33 ar  
    67   31   72 1   
    68   32   33 ar  
    69   32   73 1   
    70   33   74 1   
    71   34   75 1   
    72   34   76 1   
    73   35   77 1   
    74   35   78 1   
    75   36   37 ar  
    76   36   41 ar  
    77   36   82 1   
    78   37   38 ar  
    79   37   85 1   
    80   38   39 ar  
    81   38   79 1   
    82   39   40 ar  
    83   39   42 1   
    84   40   41 ar  
    85   40   80 1   
    86   41   81 1   
    87   42   43 2   
    88   42   44 2   
@<TRIPOS>SUBSTRUCTURE
     1 MQQ         1 TEMP              0 ****  ****    0 ROOT
