@<TRIPOS>MOLECULE
MQQ
   83    86     1     0     0
SMALL
bcc


@<TRIPOS>ATOM
      1 N3         -1.3320   -4.7390   -1.5410 n         1 MQQ     -0.444800
      2 O6         -2.9010   -6.7290   -2.8520 os        1 MQQ     -0.409600
      3 C2         -1.7560   -4.5530   -2.9120 c3        1 MQQ      0.048000
      4 C3         -2.0710   -5.8760   -3.6270 c3        1 MQQ      0.120400
      5 C4         -2.0680   -5.7360   -0.7810 c3        1 MQQ      0.048000
      6 C5         -2.3250   -7.0160   -1.5820 c3        1 MQQ      0.120400
      7 C11        -0.8200   -3.6570   -0.7890 c         1 MQQ      0.748100
      8 O1         -0.6800   -3.7820    0.4530 o         1 MQQ     -0.641100
      9 N1         -0.3360   -2.5030   -1.4480 n         1 MQQ     -0.521900
     10 CA         -0.0050   -1.3470   -0.6440 c3        1 MQQ      0.030700
     11 CB          1.2660   -0.6380   -1.1350 c3        1 MQQ     -0.052400
     12 CG          2.4810   -1.5300   -1.0560 c3        1 MQQ     -0.314600
     13 SD          3.9560   -0.6870   -1.2900 sy        1 MQQ      1.385300
     14 CE          4.5780   -0.7070    0.2580 ca        1 MQQ     -0.399500
     15 C          -1.1480   -0.2930   -0.6600 c         1 MQQ      0.631100
     16 O          -1.9890   -0.2700   -1.5840 o         1 MQQ     -0.633100
     17 O2          4.7680   -1.4450   -2.1510 o         1 MQQ     -0.667800
     18 O3          3.6840    0.6330   -1.6990 o         1 MQQ     -0.667800
     19 CD1         4.0560    0.1250    1.2590 ca        1 MQQ     -0.017500
     20 CD2         5.6600   -1.5410    0.5760 ca        1 MQQ     -0.017500
     21 CX1         4.5980    0.1210    2.5420 ca        1 MQQ     -0.157000
     22 CX2         6.2040   -1.5480    1.8570 ca        1 MQQ     -0.157000
     23 CZ          5.6720   -0.7160    2.8430 ca        1 MQQ     -0.062000
     24 CM         -0.5830    3.5250    0.1280 c3        1 MQQ     -0.307600
     25 N2         -1.1800    0.6050    0.3780 n         1 MQQ     -0.561900
     26 CA1        -2.2230    1.5970    0.5160 c3        1 MQQ      0.099700
     27 CB3        -3.3340    1.1710    1.4950 c3        1 MQQ     -0.090400
     28 CG1        -5.2710   -0.3350    1.8670 ca        1 MQQ     -0.078300
     29 CDB        -6.4280    0.4530    1.9000 ca        1 MQQ     -0.127500
     30 CDC        -5.1840   -1.4590    2.6970 ca        1 MQQ     -0.127500
     31 CE1        -7.4810    0.1230    2.7510 ca        1 MQQ     -0.128500
     32 CE2        -6.2390   -1.7870    3.5470 ca        1 MQQ     -0.128500
     33 CZ1        -7.3880   -0.9970    3.5770 ca        1 MQQ     -0.133000
     34 CB2        -4.1510    0.0160    0.9510 c3        1 MQQ     -0.038100
     35 CT         -1.6870    2.9590    0.9930 c3        1 MQQ     -0.063400
     36 C1          3.4340    5.7190   -2.0430 ca        1 MQQ     -0.061000
     37 C21         3.3980    4.3280   -2.1080 ca        1 MQQ     -0.153500
     38 C31         2.6210    3.6070   -1.2030 ca        1 MQQ     -0.014000
     39 C41         1.8660    4.2650   -0.2220 ca        1 MQQ     -0.415500
     40 C51         1.9230    5.6670   -0.1640 ca        1 MQQ     -0.014000
     41 C6          2.6950    6.3900   -1.0640 ca        1 MQQ     -0.153500
     42 S1          0.9550    3.4200    0.8790 sy        1 MQQ      1.389300
     43 O11         0.9120    4.0880    2.1130 o         1 MQQ     -0.673800
     44 O21         1.3470    2.0630    0.9330 o         1 MQQ     -0.673800
     45 H21A       -2.6700   -3.8910   -2.9560 h1        1 MQQ      0.057950
     46 H22        -0.9280   -4.0590   -3.4960 h1        1 MQQ      0.057950
     47 H31A       -2.6670   -5.6700   -4.5550 h1        1 MQQ      0.058700
     48 H32        -1.1210   -6.4130   -3.8890 h1        1 MQQ      0.058700
     49 H41        -1.4700   -5.9920    0.1390 h1        1 MQQ      0.057950
     50 H42        -3.0580   -5.3100   -0.4490 h1        1 MQQ      0.057950
     51 H51A       -3.0950   -7.6420   -1.0600 h1        1 MQQ      0.058700
     52 H52        -1.3780   -7.6000   -1.7200 h1        1 MQQ      0.058700
     53 HN1        -0.7560   -2.2700   -2.3250 hn        1 MQQ      0.309500
     54 HA          0.1640   -1.6920    0.4230 h1        1 MQQ      0.112700
     55 HB1         1.1250   -0.2810   -2.1890 hc        1 MQQ      0.075200
     56 HB2         1.4270    0.2700   -0.4860 hc        1 MQQ      0.075200
     57 HG1         2.4570   -2.0800   -0.0770 h1        1 MQQ      0.127200
     58 HG2         2.3870   -2.3410   -1.8320 h1        1 MQQ      0.127200
     59 HD1         3.2030    0.7930    1.0260 ha        1 MQQ      0.168000
     60 HD2         6.0850   -2.1930   -0.2090 ha        1 MQQ      0.168000
     61 HX1         4.1740    0.7800    3.3160 ha        1 MQQ      0.144500
     62 HX2         7.0530   -2.2080    2.0900 ha        1 MQQ      0.144500
     63 HZ          6.1000   -0.7210    3.8570 ha        1 MQQ      0.138000
     64 HM1        -0.5880    3.0110   -0.8700 h1        1 MQQ      0.117200
     65 HM2        -0.8290    4.5970   -0.1010 h1        1 MQQ      0.117200
     66 HN2        -0.4560    0.5910    1.0610 hn        1 MQQ      0.333500
     67 HA1        -2.6930    1.7380   -0.5060 h1        1 MQQ      0.085700
     68 HB31       -2.8910    0.8930    2.4860 hc        1 MQQ      0.051200
     69 HB32       -4.0090    2.0520    1.6620 hc        1 MQQ      0.051200
     70 HCD1       -6.5030    1.3350    1.2470 ha        1 MQQ      0.132500
     71 HCD2       -4.2810   -2.0860    2.6750 ha        1 MQQ      0.132500
     72 HE1        -8.3860    0.7470    2.7700 ha        1 MQQ      0.130000
     73 HE2        -6.1630   -2.6720    4.1960 ha        1 MQQ      0.130000
     74 HZ1        -8.2190   -1.2580    4.2470 ha        1 MQQ      0.130000
     75 HB21       -4.5620    0.2930   -0.0580 hc        1 MQQ      0.058200
     76 HB22       -3.4880   -0.8770    0.7950 hc        1 MQQ      0.058200
     77 HT1        -2.5570    3.6680    0.9950 hc        1 MQQ      0.062700
     78 HT2        -1.3330    2.8750    2.0580 hc        1 MQQ      0.062700
     79 H21         3.9860    3.7860   -2.8670 ha        1 MQQ      0.149500
     80 H31         2.6200    2.4980   -1.2530 ha        1 MQQ      0.169500
     81 H51         1.3550    6.1950    0.6220 ha        1 MQQ      0.169500
     82 H6          2.7290    7.4880   -1.0040 ha        1 MQQ      0.149500
     83 H1          4.0470    6.2910   -2.7570 ha        1 MQQ      0.139000
@<TRIPOS>BOND
     1    1    3 1   
     2    1    5 1   
     3    1    7 1   
     4    2    4 1   
     5    2    6 1   
     6    3    4 1   
     7    3   45 1   
     8    3   46 1   
     9    4   47 1   
    10    4   48 1   
    11    5    6 1   
    12    5   49 1   
    13    5   50 1   
    14    6   51 1   
    15    6   52 1   
    16    7    8 2   
    17    7    9 1   
    18    9   10 1   
    19    9   53 1   
    20   10   11 1   
    21   10   15 1   
    22   10   54 1   
    23   11   12 1   
    24   11   55 1   
    25   11   56 1   
    26   12   13 1   
    27   12   57 1   
    28   12   58 1   
    29   13   14 1   
    30   13   17 2   
    31   13   18 2   
    32   14   19 ar  
    33   14   20 ar  
    34   15   16 2   
    35   15   25 1   
    36   19   21 ar  
    37   19   59 1   
    38   20   22 ar  
    39   20   60 1   
    40   21   23 ar  
    41   21   61 1   
    42   22   23 ar  
    43   22   62 1   
    44   23   63 1   
    45   24   35 1   
    46   24   42 1   
    47   24   64 1   
    48   24   65 1   
    49   25   26 1   
    50   25   66 1   
    51   26   27 1   
    52   26   35 1   
    53   26   67 1   
    54   27   34 1   
    55   27   68 1   
    56   27   69 1   
    57   28   29 ar  
    58   28   30 ar  
    59   28   34 1   
    60   29   31 ar  
    61   29   70 1   
    62   30   32 ar  
    63   30   71 1   
    64   31   33 ar  
    65   31   72 1   
    66   32   33 ar  
    67   32   73 1   
    68   33   74 1   
    69   34   75 1   
    70   34   76 1   
    71   35   77 1   
    72   35   78 1   
    73   36   37 ar  
    74   36   41 ar  
    75   36   83 1   
    76   37   38 ar  
    77   37   79 1   
    78   38   39 ar  
    79   38   80 1   
    80   39   40 ar  
    81   39   42 1   
    82   40   41 ar  
    83   40   81 1   
    84   41   82 1   
    85   42   43 2   
    86   42   44 2   
@<TRIPOS>SUBSTRUCTURE
     1 MQQ         1 TEMP              0 ****  ****    0 ROOT
