@<TRIPOS>MOLECULE
MQQ
   85    88     1     0     0
SMALL
bcc


@<TRIPOS>ATOM
      1 N3         -2.3240   -0.6610   -0.6910 n         1 MQQ     -0.376800
      2 O6         -2.9590   -3.4060   -0.9790 os        1 MQQ     -0.367600
      3 C2         -1.2640   -1.6550   -0.7710 c3        1 MQQ      0.031000
      4 C3         -1.7360   -3.0660   -0.3540 c3        1 MQQ      0.116900
      5 C4         -3.6770   -1.0860   -1.0830 c3        1 MQQ      0.031000
      6 C5         -4.0000   -2.5110   -0.6150 c3        1 MQQ      0.116900
      7 C11        -2.1040    0.6750   -0.6080 c         1 MQQ      0.642100
      8 O1         -2.9430    1.5890   -0.5230 o         1 MQQ     -0.553100
      9 N1         -0.6520    1.2140   -0.5150 n4        1 MQQ     -0.673800
     10 CA         -0.5030    2.5350   -1.2200 c3        1 MQQ      0.080500
     11 CB         -0.6760    2.4100   -2.7310 c3        1 MQQ     -0.097400
     12 CG          0.3420    1.5180   -3.3830 c3        1 MQQ     -0.292600
     13 SD          0.0200    1.5010   -5.1460 sy        1 MQQ      1.410300
     14 CE          1.4500    0.9820   -5.7190 ca        1 MQQ     -0.472500
     15 C          -1.4200    3.5780   -0.5440 c         1 MQQ      0.548100
     16 O          -1.3360    3.7840    0.6630 o         1 MQQ     -0.419100
     17 O2         -1.0080    0.5640   -5.2650 o         1 MQQ     -0.643800
     18 O3         -0.2570    2.8410   -5.4350 o         1 MQQ     -0.643800
     19 CD1         2.4840    1.8890   -6.0210 ca        1 MQQ     -0.007000
     20 CD2         1.6610   -0.3790   -6.0090 ca        1 MQQ     -0.007000
     21 CX1         3.6810    1.4550   -6.5770 ca        1 MQQ     -0.145500
     22 CX2         2.8560   -0.8190   -6.5660 ca        1 MQQ     -0.145500
     23 CZ          3.8710    0.0980   -6.8520 ca        1 MQQ     -0.020000
     24 CM         -5.0710    5.9060   -1.1020 c3        1 MQQ     -0.327600
     25 N2         -2.4220    4.3180   -1.3380 n4        1 MQQ     -0.664800
     26 CA1        -2.4940    5.8010   -1.0100 c3        1 MQQ      0.137500
     27 CB3        -1.2800    6.5650   -1.5450 c3        1 MQQ     -0.123400
     28 CG1         1.1450    7.0320   -1.3310 ca        1 MQQ     -0.131300
     29 CDB         1.7820    7.7870   -0.3410 ca        1 MQQ     -0.122500
     30 CDC         1.5570    7.1510   -2.6640 ca        1 MQQ     -0.122500
     31 CE1         2.8200    8.6540   -0.6820 ca        1 MQQ     -0.115000
     32 CE2         2.5930    8.0190   -3.0020 ca        1 MQQ     -0.115000
     33 CZ1         3.2260    8.7720   -2.0110 ca        1 MQQ     -0.099000
     34 CB2         0.0420    6.1010   -0.9700 c3        1 MQQ     -0.023100
     35 CT         -3.7550    6.4440   -1.6050 c3        1 MQQ     -0.079400
     36 C1         -9.9160    4.3210   -0.5730 ca        1 MQQ     -0.020000
     37 C21        -8.8500    3.6210    0.0030 ca        1 MQQ     -0.144000
     38 C31        -7.5660    3.7770   -0.5020 ca        1 MQQ     -0.005000
     39 C41        -7.3100    4.6340   -1.5890 ca        1 MQQ     -0.457500
     40 C51        -8.3980    5.3230   -2.1580 ca        1 MQQ     -0.005000
     41 C6         -9.6860    5.1700   -1.6570 ca        1 MQQ     -0.144000
     42 S1         -5.8200    4.8040   -2.2200 sy        1 MQQ      1.403300
     43 O11        -5.7960    5.3780   -3.4910 o         1 MQQ     -0.676300
     44 O21        -5.0040    3.6390   -2.0740 o         1 MQQ     -0.676300
     45 H21A       -0.4180   -1.3830   -0.0800 h1        1 MQQ      0.082950
     46 H22        -0.8870   -1.7000   -1.8340 h1        1 MQQ      0.082950
     47 H31A       -0.9990   -3.8270   -0.7280 h1        1 MQQ      0.093450
     48 H32        -1.8330   -3.1280    0.7620 h1        1 MQQ      0.093450
     49 H41        -3.7390   -1.0410   -2.2100 h1        1 MQQ      0.082950
     50 H42        -4.4280   -0.3690   -0.6430 h1        1 MQQ      0.082950
     51 H51A       -4.1780   -2.5440    0.4920 h1        1 MQQ      0.093450
     52 H52        -4.9050   -2.8860   -1.1680 h1        1 MQQ      0.093450
     53 HN1        -0.4290    1.3380    0.4820 hn        1 MQQ      0.476300
     54 HA          0.5620    2.8880   -1.0100 hx        1 MQQ      0.154700
     55 HB1        -0.5460    3.4420   -3.1770 hc        1 MQQ      0.110200
     56 HB2        -1.7130    2.0430   -2.9770 hc        1 MQQ      0.110200
     57 HG1         0.2810    0.4640   -3.0210 h1        1 MQQ      0.096700
     58 HG2         1.3790    1.8830   -3.1820 h1        1 MQQ      0.096700
     59 HD1         2.3260    2.9670   -5.8350 ha        1 MQQ      0.155500
     60 HD2         0.8490   -1.1030   -5.8130 ha        1 MQQ      0.155500
     61 HX1         4.4740    2.1820   -6.8160 ha        1 MQQ      0.167000
     62 HX2         2.9970   -1.8870   -6.7950 ha        1 MQQ      0.167000
     63 HZ          4.8170   -0.2470   -7.3020 ha        1 MQQ      0.167000
     64 HM1        -4.9470    5.4370   -0.0920 h1        1 MQQ      0.126700
     65 HM2        -5.7510    6.7850   -0.9180 h1        1 MQQ      0.126700
     66 HN2        -3.3560    3.8760   -1.1290 hn        1 MQQ      0.500300
     67 HA1        -2.5270    5.8650    0.1200 hx        1 MQQ      0.121700
     68 HB31       -1.2490    6.5200   -2.6670 hc        1 MQQ      0.100700
     69 HB32       -1.4290    7.6470   -1.2680 hc        1 MQQ      0.100700
     70 HCD1        1.4660    7.7030    0.7100 ha        1 MQQ      0.128000
     71 HCD2        1.0600    6.5640   -3.4500 ha        1 MQQ      0.128000
     72 HE1         3.3160    9.2490    0.1020 ha        1 MQQ      0.152500
     73 HE2         2.9100    8.1150   -4.0520 ha        1 MQQ      0.152500
     74 HZ1         4.0430    9.4610   -2.2790 ha        1 MQQ      0.157000
     75 HB21        0.2900    5.0780   -1.3730 hc        1 MQQ      0.024200
     76 HB22       -0.0390    6.0120    0.1480 hc        1 MQQ      0.024200
     77 HT1        -3.7210    6.3940   -2.7310 hc        1 MQQ      0.105200
     78 HT2        -3.6830    7.5380   -1.3370 hc        1 MQQ      0.105200
     79 H31        -6.7300    3.2120   -0.0570 ha        1 MQQ      0.153000
     80 H51        -8.2230    5.9850   -3.0270 ha        1 MQQ      0.153000
     81 H6        -10.5240    5.7170   -2.1190 ha        1 MQQ      0.165500
     82 H1        -10.9370    4.1980   -0.1730 ha        1 MQQ      0.167000
     83 H12         0.0180    0.5610   -0.9380 hn        1 MQQ      0.476300
     84 H221       -2.2600    4.2110   -2.3460 hn        1 MQQ      0.500300
     85 H21        -9.0320    2.9460    0.8540 ha        1 MQQ      0.165500
@<TRIPOS>BOND
     1    1    3 1   
     2    1    5 1   
     3    1    7 1   
     4    2    4 1   
     5    2    6 1   
     6    3    4 1   
     7    3   45 1   
     8    3   46 1   
     9    4   47 1   
    10    4   48 1   
    11    5    6 1   
    12    5   49 1   
    13    5   50 1   
    14    6   51 1   
    15    6   52 1   
    16    7    8 2   
    17    7    9 1   
    18    9   10 1   
    19    9   53 1   
    20    9   83 1   
    21   10   11 1   
    22   10   15 1   
    23   10   54 1   
    24   11   12 1   
    25   11   55 1   
    26   11   56 1   
    27   12   13 1   
    28   12   57 1   
    29   12   58 1   
    30   13   14 1   
    31   13   17 2   
    32   13   18 2   
    33   14   19 ar  
    34   14   20 ar  
    35   15   16 2   
    36   15   25 1   
    37   19   21 ar  
    38   19   59 1   
    39   20   22 ar  
    40   20   60 1   
    41   21   23 ar  
    42   21   61 1   
    43   22   23 ar  
    44   22   62 1   
    45   23   63 1   
    46   24   35 1   
    47   24   42 1   
    48   24   64 1   
    49   24   65 1   
    50   25   26 1   
    51   25   66 1   
    52   25   84 1   
    53   26   27 1   
    54   26   35 1   
    55   26   67 1   
    56   27   34 1   
    57   27   68 1   
    58   27   69 1   
    59   28   29 ar  
    60   28   30 ar  
    61   28   34 1   
    62   29   31 ar  
    63   29   70 1   
    64   30   32 ar  
    65   30   71 1   
    66   31   33 ar  
    67   31   72 1   
    68   32   33 ar  
    69   32   73 1   
    70   33   74 1   
    71   34   75 1   
    72   34   76 1   
    73   35   77 1   
    74   35   78 1   
    75   36   37 ar  
    76   36   41 ar  
    77   36   82 1   
    78   37   38 ar  
    79   37   85 1   
    80   38   39 ar  
    81   38   79 1   
    82   39   40 ar  
    83   39   42 1   
    84   40   41 ar  
    85   40   80 1   
    86   41   81 1   
    87   42   43 2   
    88   42   44 2   
@<TRIPOS>SUBSTRUCTURE
     1 MQQ         1 TEMP              0 ****  ****    0 ROOT
