@<TRIPOS>MOLECULE
MQQ
   85    88     1     0     0
SMALL
bcc


@<TRIPOS>ATOM
      1 N3         -2.2820   -0.7150   -0.8200 n         1 MQQ     -0.376800
      2 O6         -2.8840   -3.4550   -1.2010 os        1 MQQ     -0.367600
      3 C2         -1.2110   -1.6930   -0.9300 c3        1 MQQ      0.031000
      4 C3         -1.6660   -3.1220   -0.5620 c3        1 MQQ      0.116900
      5 C4         -3.6300   -1.1420   -1.2290 c3        1 MQQ      0.031000
      6 C5         -3.9370   -2.5860   -0.8100 c3        1 MQQ      0.116900
      7 C11        -2.0790    0.6210   -0.6910 c         1 MQQ      0.642100
      8 O1         -2.9280    1.5200   -0.5780 o         1 MQQ     -0.553100
      9 N1         -0.6340    1.1730   -0.5770 n4        1 MQQ     -0.673800
     10 CA         -0.4990    2.5190   -1.2360 c3        1 MQQ      0.080500
     11 CB         -0.6670    2.4430   -2.7500 c3        1 MQQ     -0.097400
     12 CG          0.3640    1.5860   -3.4290 c3        1 MQQ     -0.292600
     13 SD          0.0470    1.6260   -5.1930 sy        1 MQQ      1.410300
     14 CE          1.4860    1.1440   -5.7780 ca        1 MQQ     -0.472500
     15 C          -1.4290    3.5270   -0.5270 c         1 MQQ      0.548100
     16 O          -1.3500    3.6940    0.6860 o         1 MQQ     -0.419100
     17 O2         -0.9690    0.6810   -5.3480 o         1 MQQ     -0.643800
     18 O3         -0.2440    2.9710   -5.4370 o         1 MQQ     -0.643800
     19 CD1         2.5090    2.0730   -6.0460 ca        1 MQQ     -0.007000
     20 CD2         1.7140   -0.2040   -6.1140 ca        1 MQQ     -0.007000
     21 CX1         3.7130    1.6730   -6.6120 ca        1 MQQ     -0.145500
     22 CX2         2.9160   -0.6090   -6.6810 ca        1 MQQ     -0.145500
     23 CZ          3.9210    0.3290   -6.9320 ca        1 MQQ     -0.020000
     24 CM         -5.1060    5.8310   -1.0120 c3        1 MQQ     -0.327600
     25 N2         -2.4390    4.2820   -1.2980 n4        1 MQQ     -0.664800
     26 CA1        -2.5280    5.7520   -0.9220 c3        1 MQQ      0.137500
     27 CB3        -1.3220    6.5470   -1.4310 c3        1 MQQ     -0.123400
     28 CG1         1.0970    7.0350   -1.2010 ca        1 MQQ     -0.131300
     29 CDB         1.7240    7.7650   -0.1860 ca        1 MQQ     -0.122500
     30 CDC         1.5080    7.2010   -2.5290 ca        1 MQQ     -0.122500
     31 CE1         2.7520    8.6540   -0.4980 ca        1 MQQ     -0.115000
     32 CE2         2.5340    8.0910   -2.8370 ca        1 MQQ     -0.115000
     33 CZ1         3.1580    8.8190   -1.8220 ca        1 MQQ     -0.099000
     34 CB2         0.0040    6.0800   -0.8700 c3        1 MQQ     -0.023100
     35 CT         -3.7960    6.4000   -1.4980 c3        1 MQQ     -0.079400
     36 C1         -9.9320    4.1750   -0.5340 ca        1 MQQ     -0.020000
     37 C21        -8.8580    3.4690    0.0180 ca        1 MQQ     -0.144000
     38 C31        -7.5770    3.6560   -0.4820 ca        1 MQQ     -0.005000
     39 C41        -7.3310    4.5500   -1.5400 ca        1 MQQ     -0.457500
     40 C51        -8.4260    5.2460   -2.0860 ca        1 MQQ     -0.005000
     41 C6         -9.7130    5.0620   -1.5900 ca        1 MQQ     -0.144000
     42 S1         -5.8430    4.7580   -2.1650 sy        1 MQQ      1.403300
     43 O11        -5.8270    5.3730   -3.4170 o         1 MQQ     -0.676300
     44 O21        -5.0140    3.5980   -2.0570 o         1 MQQ     -0.676300
     45 H21A       -0.8310   -1.6970   -1.9930 h1        1 MQQ      0.082950
     46 H22        -0.3690   -1.4340   -0.2280 h1        1 MQQ      0.082950
     47 H31A       -0.9190   -3.8610   -0.9600 h1        1 MQQ      0.093450
     48 H32        -1.7650   -3.2230    0.5510 h1        1 MQQ      0.093450
     49 H41        -3.6890   -1.0590   -2.3540 h1        1 MQQ      0.082950
     50 H42        -4.3900   -0.4490   -0.7670 h1        1 MQQ      0.082950
     51 H51A       -4.1160   -2.6580    0.2950 h1        1 MQQ      0.093450
     52 H52        -4.8360   -2.9520   -1.3780 h1        1 MQQ      0.093450
     53 HN1         0.0460    0.5430   -1.0190 hn        1 MQQ      0.476300
     54 HA          0.5620    2.8780   -1.0110 hx        1 MQQ      0.154700
     55 HB1        -1.6980    2.0720   -3.0120 hc        1 MQQ      0.110200
     56 HB2        -0.5480    3.4910   -3.1610 hc        1 MQQ      0.110200
     57 HG1         0.3160    0.5200   -3.1040 h1        1 MQQ      0.096700
     58 HG2         1.3960    1.9570   -3.2120 h1        1 MQQ      0.096700
     59 HD1         2.3370    3.1420   -5.8230 ha        1 MQQ      0.155500
     60 HD2         0.9100   -0.9440   -5.9470 ha        1 MQQ      0.155500
     61 HX1         4.4980    2.4180   -6.8230 ha        1 MQQ      0.167000
     62 HX2         3.0710   -1.6680   -6.9470 ha        1 MQQ      0.167000
     63 HZ          4.8720    0.0110   -7.3910 ha        1 MQQ      0.167000
     64 HM1        -4.9770    5.3320   -0.0180 h1        1 MQQ      0.126700
     65 HM2        -5.7960    6.6970   -0.8010 h1        1 MQQ      0.126700
     66 HN2        -2.2740    4.2090   -2.3090 hn        1 MQQ      0.499800
     67 HA1        -2.5620    5.7790    0.2090 hx        1 MQQ      0.121700
     68 HB31       -1.4850    7.6180   -1.1200 hc        1 MQQ      0.100700
     69 HB32       -1.2910    6.5390   -2.5540 hc        1 MQQ      0.100700
     70 HCD1        1.4080    7.6430    0.8620 ha        1 MQQ      0.128000
     71 HCD2        1.0180    6.6340   -3.3330 ha        1 MQQ      0.128000
     72 HE1         3.2410    9.2290    0.3050 ha        1 MQQ      0.152500
     73 HE2         2.8510    8.2250   -3.8840 ha        1 MQQ      0.152500
     74 HZ1         3.9670    9.5260   -2.0670 ha        1 MQQ      0.157000
     75 HB21        0.2640    5.0740   -1.3060 hc        1 MQQ      0.024200
     76 HB22       -0.0770    5.9540    0.2440 hc        1 MQQ      0.024200
     77 HT1        -3.7620    6.3850   -2.6240 hc        1 MQQ      0.105200
     78 HT2        -3.7360    7.4850   -1.1950 hc        1 MQQ      0.105200
     79 H31        -6.7340    3.0860   -0.0550 ha        1 MQQ      0.153000
     80 H51        -8.2600    5.9380   -2.9330 ha        1 MQQ      0.153000
     81 H6        -10.5570    5.6150   -2.0340 ha        1 MQQ      0.165500
     82 H1        -10.9520    4.0280   -0.1380 ha        1 MQQ      0.167000
     83 H12        -0.4140    1.2670    0.4250 hn        1 MQQ      0.476300
     84 H221       -3.3680    3.8230   -1.1050 hn        1 MQQ      0.499800
     85 H21        -9.0330    2.7640    0.8470 ha        1 MQQ      0.165500
@<TRIPOS>BOND
     1    1    3 1   
     2    1    5 1   
     3    1    7 1   
     4    2    4 1   
     5    2    6 1   
     6    3    4 1   
     7    3   45 1   
     8    3   46 1   
     9    4   47 1   
    10    4   48 1   
    11    5    6 1   
    12    5   49 1   
    13    5   50 1   
    14    6   51 1   
    15    6   52 1   
    16    7    8 2   
    17    7    9 1   
    18    9   10 1   
    19    9   53 1   
    20    9   83 1   
    21   10   11 1   
    22   10   15 1   
    23   10   54 1   
    24   11   12 1   
    25   11   55 1   
    26   11   56 1   
    27   12   13 1   
    28   12   57 1   
    29   12   58 1   
    30   13   14 1   
    31   13   17 2   
    32   13   18 2   
    33   14   19 ar  
    34   14   20 ar  
    35   15   16 2   
    36   15   25 1   
    37   19   21 ar  
    38   19   59 1   
    39   20   22 ar  
    40   20   60 1   
    41   21   23 ar  
    42   21   61 1   
    43   22   23 ar  
    44   22   62 1   
    45   23   63 1   
    46   24   35 1   
    47   24   42 1   
    48   24   64 1   
    49   24   65 1   
    50   25   26 1   
    51   25   66 1   
    52   25   84 1   
    53   26   27 1   
    54   26   35 1   
    55   26   67 1   
    56   27   34 1   
    57   27   68 1   
    58   27   69 1   
    59   28   29 ar  
    60   28   30 ar  
    61   28   34 1   
    62   29   31 ar  
    63   29   70 1   
    64   30   32 ar  
    65   30   71 1   
    66   31   33 ar  
    67   31   72 1   
    68   32   33 ar  
    69   32   73 1   
    70   33   74 1   
    71   34   75 1   
    72   34   76 1   
    73   35   77 1   
    74   35   78 1   
    75   36   37 ar  
    76   36   41 ar  
    77   36   82 1   
    78   37   38 ar  
    79   37   85 1   
    80   38   39 ar  
    81   38   79 1   
    82   39   40 ar  
    83   39   42 1   
    84   40   41 ar  
    85   40   80 1   
    86   41   81 1   
    87   42   43 2   
    88   42   44 2   
@<TRIPOS>SUBSTRUCTURE
     1 MQQ         1 TEMP              0 ****  ****    0 ROOT
