@<TRIPOS>MOLECULE
MQR
   36    38     1     0     0
SMALL
bcc


@<TRIPOS>ATOM
      1 O1          0.1460   -0.1980    0.0020 o         1 MQR     -0.589100
      2 C1          2.9300    1.1610   -1.5270 ca        1 MQR     -0.126300
      3 C2          2.1420    0.0650   -1.2600 ca        1 MQR     -0.121600
      4 C3          1.9590   -0.9550   -2.2270 ca        1 MQR     -0.090000
      5 C4          2.5800   -0.8830   -3.4480 ca        1 MQR     -0.162300
      6 C5          3.5890    1.2730   -2.7880 ca        1 MQR      0.272300
      7 C6          3.4150    0.2310   -3.7650 ca        1 MQR      0.294300
      8 N1          4.0430    0.3040   -5.0020 nb        1 MQR     -0.621000
      9 C7          4.7910    1.3660   -5.2270 ca        1 MQR      0.300900
     10 C8          4.9650    2.4160   -4.2430 ca        1 MQR      0.293900
     11 N2          4.3870    2.3770   -3.0590 nb        1 MQR     -0.617000
     12 C9          1.3850   -0.0550    0.0240 c         1 MQR      0.660700
     13 C10         3.8250   -1.5050    2.0440 c3        1 MQR     -0.103400
     14 C11         3.4890   -0.1880    1.3390 c3        1 MQR      0.080000
     15 N3          2.0700    0.0770    1.2320 n         1 MQR     -0.447800
     16 C12         1.3400   -0.0760    2.4760 c3        1 MQR      0.077000
     17 C13         1.6140   -1.4010    3.2070 c3        1 MQR     -0.090700
     18 C14         3.1110   -1.6110    3.3730 c3        1 MQR     -0.076400
     19 C15         0.9160   -1.3920    4.5480 c3        1 MQR     -0.089100
     20 H2          1.2930   -1.7990   -1.9830 ha        1 MQR      0.156000
     21 H3          2.4380   -1.6760   -4.1990 ha        1 MQR      0.158000
     22 H4          5.2940    1.4380   -6.2070 h4        1 MQR      0.036100
     23 H5          5.6010    3.2890   -4.4720 h4        1 MQR      0.036100
     24 H6          3.5410   -2.3710    1.3910 hc        1 MQR      0.049700
     25 H7          4.9340   -1.5460    2.2000 hc        1 MQR      0.049700
     26 H8          3.9640   -0.1880    0.3190 h1        1 MQR      0.055700
     27 H9          3.9380    0.6610    1.9310 h1        1 MQR      0.055700
     28 H10         0.2350    0.0120    2.2770 h1        1 MQR      0.067200
     29 H11         1.6510    0.7760    3.1460 h1        1 MQR      0.067200
     30 H12         1.1990   -2.2460    2.5880 hc        1 MQR      0.058700
     31 H13         3.5180   -0.8410    4.0810 hc        1 MQR      0.044200
     32 H14         3.3010   -2.6180    3.8260 hc        1 MQR      0.044200
     33 H15        -0.1840   -1.2570    4.4120 hc        1 MQR      0.037700
     34 H16         1.2990   -0.5610    5.1890 hc        1 MQR      0.037700
     35 H17         1.0930   -2.3580    5.0800 hc        1 MQR      0.037700
     36 H1          3.0580    1.9630   -0.7810 ha        1 MQR      0.164000
@<TRIPOS>BOND
     1    1   12 2   
     2    2    3 ar  
     3    2    6 ar  
     4    2   36 1   
     5    3    4 ar  
     6    3   12 1   
     7    4    5 ar  
     8    4   20 1   
     9    5    7 ar  
    10    5   21 1   
    11    6    7 ar  
    12    6   11 ar  
    13    7    8 ar  
    14    8    9 ar  
    15    9   10 ar  
    16    9   22 1   
    17   10   11 ar  
    18   10   23 1   
    19   12   15 1   
    20   13   14 1   
    21   13   18 1   
    22   13   24 1   
    23   13   25 1   
    24   14   15 1   
    25   14   26 1   
    26   14   27 1   
    27   15   16 1   
    28   16   17 1   
    29   16   28 1   
    30   16   29 1   
    31   17   18 1   
    32   17   19 1   
    33   17   30 1   
    34   18   31 1   
    35   18   32 1   
    36   19   33 1   
    37   19   34 1   
    38   19   35 1   
@<TRIPOS>SUBSTRUCTURE
     1 MQR         1 TEMP              0 ****  ****    0 ROOT
