@<TRIPOS>MOLECULE
MQR
   36    38     1     0     0
SMALL
bcc


@<TRIPOS>ATOM
      1 O1          1.4130   -2.1750    0.6120 o         1 MQR     -0.589100
      2 C1         -1.1880    0.0860    0.8620 ca        1 MQR     -0.126300
      3 C2         -0.4150   -0.7490    0.0880 ca        1 MQR     -0.121600
      4 C3         -0.9760   -1.4580   -1.0040 ca        1 MQR     -0.090000
      5 C4         -2.3010   -1.3110   -1.3290 ca        1 MQR     -0.162300
      6 C5         -2.5710    0.2600    0.5570 ca        1 MQR      0.272300
      7 C6         -3.1380   -0.4470   -0.5600 ca        1 MQR      0.294300
      8 N1         -4.4800   -0.3000   -0.8880 nb        1 MQR     -0.621000
      9 C7         -5.1920    0.5070   -0.1280 ca        1 MQR      0.300900
     10 C8         -4.6220    1.2190    0.9990 ca        1 MQR      0.293900
     11 N2         -3.3520    1.1050    1.3360 nb        1 MQR     -0.617000
     12 C9          1.0210   -1.0070    0.4150 c         1 MQR      0.660700
     13 C10         2.5170    1.6660   -1.2450 c3        1 MQR     -0.103400
     14 C11         1.6250    1.3600   -0.0390 c3        1 MQR      0.080000
     15 N3          1.8850    0.0760    0.5760 n         1 MQR     -0.447800
     16 C12         3.2860   -0.1770    0.8570 c3        1 MQR      0.077000
     17 C13         4.2230    0.0790   -0.3360 c3        1 MQR     -0.090700
     18 C14         3.9790    1.4660   -0.9080 c3        1 MQR     -0.076400
     19 C15         5.6600   -0.0780    0.1080 c3        1 MQR     -0.089100
     20 H2         -0.3290   -2.1420   -1.5770 ha        1 MQR      0.156000
     21 H3         -2.7360   -1.8620   -2.1780 ha        1 MQR      0.158000
     22 H4         -6.2610    0.6310   -0.3760 h4        1 MQR      0.036100
     23 H5         -5.2540    1.8850    1.6100 h4        1 MQR      0.036100
     24 H6          2.2330    1.0070   -2.1060 hc        1 MQR      0.049700
     25 H7          2.3370    2.7270   -1.5560 hc        1 MQR      0.049700
     26 H8          1.8080    2.1460    0.7500 h1        1 MQR      0.055700
     27 H9          0.5480    1.4310   -0.3550 h1        1 MQR      0.055700
     28 H10         3.5810    0.5100    1.7010 h1        1 MQR      0.067200
     29 H11         3.4140   -1.2410    1.2030 h1        1 MQR      0.067200
     30 H12         4.0050   -0.6840   -1.1350 hc        1 MQR      0.058700
     31 H13         4.6030    1.6080   -1.8290 hc        1 MQR      0.044200
     32 H14         4.3010    2.2390   -0.1610 hc        1 MQR      0.044200
     33 H15         5.8310   -1.1070    0.5080 hc        1 MQR      0.037700
     34 H16         6.3480    0.0870   -0.7550 hc        1 MQR      0.037700
     35 H17         5.9120    0.6600    0.9070 hc        1 MQR      0.037700
     36 H1         -0.7550    0.6230    1.7220 ha        1 MQR      0.164000
@<TRIPOS>BOND
     1    1   12 2   
     2    2    3 ar  
     3    2    6 ar  
     4    2   36 1   
     5    3    4 ar  
     6    3   12 1   
     7    4    5 ar  
     8    4   20 1   
     9    5    7 ar  
    10    5   21 1   
    11    6    7 ar  
    12    6   11 ar  
    13    7    8 ar  
    14    8    9 ar  
    15    9   10 ar  
    16    9   22 1   
    17   10   11 ar  
    18   10   23 1   
    19   12   15 1   
    20   13   14 1   
    21   13   18 1   
    22   13   24 1   
    23   13   25 1   
    24   14   15 1   
    25   14   26 1   
    26   14   27 1   
    27   15   16 1   
    28   16   17 1   
    29   16   28 1   
    30   16   29 1   
    31   17   18 1   
    32   17   19 1   
    33   17   30 1   
    34   18   31 1   
    35   18   32 1   
    36   19   33 1   
    37   19   34 1   
    38   19   35 1   
@<TRIPOS>SUBSTRUCTURE
     1 MQR         1 TEMP              0 ****  ****    0 ROOT
