@<TRIPOS>MOLECULE
MQR
   36    38     1     0     0
SMALL
bcc


@<TRIPOS>ATOM
      1 O1          0.1460   -0.1640    0.0210 o         1 MQR     -0.589100
      2 C1          2.9370    1.1730   -1.5160 ca        1 MQR     -0.126300
      3 C2          2.1370    0.0850   -1.2530 ca        1 MQR     -0.121600
      4 C3          1.9330   -0.9240   -2.2280 ca        1 MQR     -0.090000
      5 C4          2.5470   -0.8480   -3.4530 ca        1 MQR     -0.162300
      6 C5          3.5880    1.2880   -2.7800 ca        1 MQR      0.272300
      7 C6          3.3940    0.2570   -3.7650 ca        1 MQR      0.294300
      8 N1          4.0140    0.3340   -5.0060 nb        1 MQR     -0.621000
      9 C7          4.7740    1.3880   -5.2260 ca        1 MQR      0.300900
     10 C8          4.9690    2.4270   -4.2340 ca        1 MQR      0.293900
     11 N2          4.3990    2.3850   -3.0470 nb        1 MQR     -0.617000
     12 C9          1.3870   -0.0370    0.0350 c         1 MQR      0.660700
     13 C10         3.8220   -1.5360    2.0250 c3        1 MQR     -0.103400
     14 C11         3.4980   -0.2090    1.3340 c3        1 MQR      0.080000
     15 N3          2.0820    0.0750    1.2390 n         1 MQR     -0.447800
     16 C12         1.3590   -0.0800    2.4870 c3        1 MQR      0.077000
     17 C13         1.6200   -1.4150    3.2040 c3        1 MQR     -0.090700
     18 C14         3.1150   -1.6450    3.3580 c3        1 MQR     -0.076400
     19 C15         0.9320   -1.4090    4.5500 c3        1 MQR     -0.089100
     20 H2          1.2580   -1.7610   -1.9870 ha        1 MQR      0.156000
     21 H3          2.3890   -1.6330   -4.2100 ha        1 MQR      0.158000
     22 H4          5.2720    1.4620   -6.2090 h4        1 MQR      0.036100
     23 H5          5.6140    3.2940   -4.4600 h4        1 MQR      0.036100
     24 H6          4.9310   -1.5920    2.1730 hc        1 MQR      0.049700
     25 H7          3.5230   -2.3920    1.3660 hc        1 MQR      0.049700
     26 H8          3.9620    0.6290    1.9310 h1        1 MQR      0.055700
     27 H9          3.9660   -0.2060    0.3110 h1        1 MQR      0.055700
     28 H10         1.6850    0.7630    3.1620 h1        1 MQR      0.067200
     29 H11         0.2530    0.0240    2.2960 h1        1 MQR      0.067200
     30 H12         1.1900   -2.2480    2.5810 hc        1 MQR      0.058700
     31 H13         3.2960   -2.6580    3.8010 hc        1 MQR      0.044200
     32 H14         3.5370   -0.8860    4.0700 hc        1 MQR      0.044200
     33 H15         1.3290   -0.5880    5.1960 hc        1 MQR      0.037700
     34 H16         1.1010   -2.3810    5.0720 hc        1 MQR      0.037700
     35 H17        -0.1670   -1.2580    4.4230 hc        1 MQR      0.037700
     36 H1          3.0800    1.9670   -0.7630 ha        1 MQR      0.164000
@<TRIPOS>BOND
     1    1   12 2   
     2    2    3 ar  
     3    2    6 ar  
     4    2   36 1   
     5    3    4 ar  
     6    3   12 1   
     7    4    5 ar  
     8    4   20 1   
     9    5    7 ar  
    10    5   21 1   
    11    6    7 ar  
    12    6   11 ar  
    13    7    8 ar  
    14    8    9 ar  
    15    9   10 ar  
    16    9   22 1   
    17   10   11 ar  
    18   10   23 1   
    19   12   15 1   
    20   13   14 1   
    21   13   18 1   
    22   13   24 1   
    23   13   25 1   
    24   14   15 1   
    25   14   26 1   
    26   14   27 1   
    27   15   16 1   
    28   16   17 1   
    29   16   28 1   
    30   16   29 1   
    31   17   18 1   
    32   17   19 1   
    33   17   30 1   
    34   18   31 1   
    35   18   32 1   
    36   19   33 1   
    37   19   34 1   
    38   19   35 1   
@<TRIPOS>SUBSTRUCTURE
     1 MQR         1 TEMP              0 ****  ****    0 ROOT
