@<TRIPOS>MOLECULE
MQR
   36    38     1     0     0
SMALL
bcc


@<TRIPOS>ATOM
      1 O1          0.1460   -0.1830    0.0080 o         1 MQR     -0.589100
      2 C1          2.9340    1.1680   -1.5210 ca        1 MQR     -0.126300
      3 C2          2.1410    0.0750   -1.2570 ca        1 MQR     -0.121600
      4 C3          1.9510   -0.9400   -2.2280 ca        1 MQR     -0.090000
      5 C4          2.5700   -0.8660   -3.4500 ca        1 MQR     -0.162300
      6 C5          3.5910    1.2820   -2.7830 ca        1 MQR      0.272300
      7 C6          3.4100    0.2450   -3.7640 ca        1 MQR      0.294300
      8 N1          4.0360    0.3210   -5.0020 nb        1 MQR     -0.621000
      9 C7          4.7880    1.3800   -5.2240 ca        1 MQR      0.300900
     10 C8          4.9690    2.4250   -4.2350 ca        1 MQR      0.293900
     11 N2          4.3930    2.3840   -3.0510 nb        1 MQR     -0.617000
     12 C9          1.3860   -0.0470    0.0280 c         1 MQR      0.660700
     13 C10         3.8230   -1.5190    2.0350 c3        1 MQR     -0.103400
     14 C11         3.4920   -0.1980    1.3380 c3        1 MQR      0.080000
     15 N3          2.0740    0.0760    1.2350 n         1 MQR     -0.447800
     16 C12         1.3460   -0.0800    2.4800 c3        1 MQR      0.077000
     17 C13         1.6140   -1.4100    3.2040 c3        1 MQR     -0.090700
     18 C14         3.1110   -1.6280    3.3660 c3        1 MQR     -0.076400
     19 C15         0.9200   -1.4030    4.5460 c3        1 MQR     -0.089100
     20 H2          1.2810   -1.7820   -1.9860 ha        1 MQR      0.156000
     21 H3          2.4220   -1.6550   -4.2040 ha        1 MQR      0.158000
     22 H4          5.2900    1.4530   -6.2040 h4        1 MQR      0.036100
     23 H5          5.6080    3.2960   -4.4630 h4        1 MQR      0.036100
     24 H6          4.9320   -1.5670    2.1890 hc        1 MQR      0.049700
     25 H7          3.5330   -2.3800    1.3790 hc        1 MQR      0.049700
     26 H8          3.9650   -0.1950    0.3170 h1        1 MQR      0.055700
     27 H9          3.9470    0.6460    1.9330 h1        1 MQR      0.055700
     28 H10         1.6630    0.7680    3.1530 h1        1 MQR      0.067200
     29 H11         0.2410    0.0150    2.2840 h1        1 MQR      0.067200
     30 H12         1.1940   -2.2490    2.5820 hc        1 MQR      0.058700
     31 H13         3.5230   -0.8640    4.0770 hc        1 MQR      0.044200
     32 H14         3.2960   -2.6390    3.8140 hc        1 MQR      0.044200
     33 H15         1.3080   -0.5780    5.1910 hc        1 MQR      0.037700
     34 H16         1.0930   -2.3730    5.0730 hc        1 MQR      0.037700
     35 H17        -0.1800   -1.2620    4.4130 hc        1 MQR      0.037700
     36 H1          3.0670    1.9660   -0.7720 ha        1 MQR      0.164000
@<TRIPOS>BOND
     1    1   12 2   
     2    2    3 ar  
     3    2    6 ar  
     4    2   36 1   
     5    3    4 ar  
     6    3   12 1   
     7    4    5 ar  
     8    4   20 1   
     9    5    7 ar  
    10    5   21 1   
    11    6    7 ar  
    12    6   11 ar  
    13    7    8 ar  
    14    8    9 ar  
    15    9   10 ar  
    16    9   22 1   
    17   10   11 ar  
    18   10   23 1   
    19   12   15 1   
    20   13   14 1   
    21   13   18 1   
    22   13   24 1   
    23   13   25 1   
    24   14   15 1   
    25   14   26 1   
    26   14   27 1   
    27   15   16 1   
    28   16   17 1   
    29   16   28 1   
    30   16   29 1   
    31   17   18 1   
    32   17   19 1   
    33   17   30 1   
    34   18   31 1   
    35   18   32 1   
    36   19   33 1   
    37   19   34 1   
    38   19   35 1   
@<TRIPOS>SUBSTRUCTURE
     1 MQR         1 TEMP              0 ****  ****    0 ROOT
