@<TRIPOS>MOLECULE
MQS
   36    38     1     0     0
SMALL
bcc


@<TRIPOS>ATOM
      1 C1         -1.1940   -0.1580    0.8720 ca        1 MQS     -0.126300
      2 C2         -0.4200    0.7300    0.1610 ca        1 MQS     -0.121600
      3 C3         -0.9760    1.5060   -0.8870 ca        1 MQS     -0.090000
      4 C4         -2.2990    1.3740   -1.2300 ca        1 MQS     -0.162300
      5 C5         -2.5740   -0.3190    0.5460 ca        1 MQS      0.272300
      6 C6         -3.1360    0.4570   -0.5270 ca        1 MQS      0.294300
      7 N1         -4.4750    0.3250   -0.8740 nb        1 MQS     -0.621000
      8 C7         -5.1880   -0.5340   -0.1740 ca        1 MQS      0.300900
      9 C8         -4.6210   -1.3150    0.9080 ca        1 MQS      0.293900
     10 N2         -3.3550   -1.2170    1.2620 nb        1 MQS     -0.617000
     11 C9          1.0120    0.9730    0.5150 c         1 MQS      0.660700
     12 C10         2.5360   -1.5760   -1.3050 c3        1 MQS     -0.103400
     13 C11         1.6340   -1.3550   -0.0890 c3        1 MQS      0.080000
     14 N3          1.8820   -0.1130    0.6120 n         1 MQS     -0.447800
     15 C12         3.2790    0.1280    0.9190 c3        1 MQS      0.077000
     16 C13         4.2260   -0.0430   -0.2800 c3        1 MQS     -0.090700
     17 C14         3.9940   -1.3910   -0.9450 c3        1 MQS     -0.076400
     18 O1          1.3960    2.1280    0.7910 o         1 MQS     -0.589100
     19 C15         5.6580    0.0920    0.1830 c3        1 MQS     -0.089100
     20 H1         -0.7640   -0.7480    1.6990 ha        1 MQS      0.164000
     21 H2         -0.3290    2.2300   -1.4090 ha        1 MQS      0.156000
     22 H3         -2.7310    1.9770   -2.0450 ha        1 MQS      0.158000
     23 H4         -6.2540   -0.6480   -0.4380 h4        1 MQS      0.036100
     24 H5         -5.2550   -2.0240    1.4690 h4        1 MQS      0.036100
     25 H7          2.2550   -0.8630   -2.1230 hc        1 MQS      0.049700
     26 H8          0.5590   -1.4110   -0.4160 h1        1 MQS      0.055700
     27 H9          1.8150   -2.1900    0.6490 h1        1 MQS      0.055700
     28 H10         3.3980    1.1690    1.3350 h1        1 MQS      0.067200
     29 H11         3.5710   -0.6110    1.7190 h1        1 MQS      0.067200
     30 H12         4.0090    0.7690   -1.0290 hc        1 MQS      0.058700
     31 H13         4.3150   -2.2100   -0.2480 hc        1 MQS      0.044200
     32 H14         4.6250   -1.4690   -1.8680 hc        1 MQS      0.044200
     33 H15         5.9090   -0.6960    0.9340 hc        1 MQS      0.037700
     34 H16         6.3540   -0.0120   -0.6840 hc        1 MQS      0.037700
     35 H17         5.8210    1.0930    0.6520 hc        1 MQS      0.037700
     36 H6          2.3640   -2.6160   -1.6860 hc        1 MQS      0.049700
@<TRIPOS>BOND
     1    1    2 ar  
     2    1    5 ar  
     3    1   20 1   
     4    2    3 ar  
     5    2   11 1   
     6    3    4 ar  
     7    3   21 1   
     8    4    6 ar  
     9    4   22 1   
    10    5    6 ar  
    11    5   10 ar  
    12    6    7 ar  
    13    7    8 ar  
    14    8    9 ar  
    15    8   23 1   
    16    9   10 ar  
    17    9   24 1   
    18   11   14 1   
    19   11   18 2   
    20   12   13 1   
    21   12   17 1   
    22   12   25 1   
    23   12   36 1   
    24   13   14 1   
    25   13   26 1   
    26   13   27 1   
    27   14   15 1   
    28   15   16 1   
    29   15   28 1   
    30   15   29 1   
    31   16   17 1   
    32   16   19 1   
    33   16   30 1   
    34   17   31 1   
    35   17   32 1   
    36   19   33 1   
    37   19   34 1   
    38   19   35 1   
@<TRIPOS>SUBSTRUCTURE
     1 MQS         1 TEMP              0 ****  ****    0 ROOT
