@<TRIPOS>MOLECULE
MQS
   36    38     1     0     0
SMALL
bcc


@<TRIPOS>ATOM
      1 C1         -0.1480   -0.2180    0.0430 ca        1 MQS     -0.126300
      2 C2          1.1930    0.0750   -0.0620 ca        1 MQS     -0.121600
      3 C3          1.9680    0.3680    1.0870 ca        1 MQS     -0.090000
      4 C4          1.3950    0.3870    2.3340 ca        1 MQS     -0.162300
      5 C5         -0.7780   -0.2120    1.3240 ca        1 MQS      0.272300
      6 C6          0.0050    0.1000    2.4900 ca        1 MQS      0.294300
      7 N1         -0.5750    0.1170    3.7520 nb        1 MQS     -0.621000
      8 C7         -1.8600   -0.1670    3.8190 ca        1 MQS      0.300900
      9 C8         -2.6490   -0.4820    2.6440 ca        1 MQS      0.293900
     10 N2         -2.1320   -0.5050    1.4320 nb        1 MQS     -0.617000
     11 C9          1.9020    0.0160   -1.3780 c         1 MQS      0.660700
     12 C10         1.2610    3.2270   -2.5660 c3        1 MQS     -0.103400
     13 C11         0.5550    1.9010   -2.2730 c3        1 MQS      0.080000
     14 N3          1.3900    0.7340   -2.4580 n         1 MQS     -0.447800
     15 C12         2.1000    0.7050   -3.7230 c3        1 MQS      0.077000
     16 C13         2.8590    2.0010   -4.0490 c3        1 MQS     -0.090700
     17 C14         1.9320    3.2000   -3.9220 c3        1 MQS     -0.076400
     18 O1          2.8940   -0.7280   -1.5140 o         1 MQS     -0.589100
     19 C15         3.4390    1.9100   -5.4420 c3        1 MQS     -0.089100
     20 H1         -0.7460   -0.4640   -0.8500 ha        1 MQS      0.164000
     21 H2          3.0460    0.5640    0.9610 ha        1 MQS      0.156000
     22 H3          1.9980    0.6160    3.2270 ha        1 MQS      0.158000
     23 H4         -2.3340   -0.1580    4.8160 h4        1 MQS      0.036100
     24 H5         -3.7230   -0.7150    2.7450 h4        1 MQS      0.036100
     25 H7          0.4980    4.0470   -2.5330 hc        1 MQS      0.049700
     26 H8         -0.3190    1.7960   -2.9810 h1        1 MQS      0.055700
     27 H9          0.1480    1.9280   -1.2240 h1        1 MQS      0.055700
     28 H10         1.3290    0.5250   -4.5270 h1        1 MQS      0.067200
     29 H11         2.8250   -0.1570   -3.7270 h1        1 MQS      0.067200
     30 H12         3.7030    2.1190   -3.3120 hc        1 MQS      0.058700
     31 H13         1.1520    3.1530   -4.7270 hc        1 MQS      0.044200
     32 H14         2.5170    4.1440   -4.0750 hc        1 MQS      0.044200
     33 H15         2.6300    1.7860   -6.2020 hc        1 MQS      0.037700
     34 H16         4.1330    1.0380   -5.5170 hc        1 MQS      0.037700
     35 H17         4.0090    2.8400   -5.6820 hc        1 MQS      0.037700
     36 H6          2.0220    3.4380   -1.7710 hc        1 MQS      0.049700
@<TRIPOS>BOND
     1    1    2 ar  
     2    1    5 ar  
     3    1   20 1   
     4    2    3 ar  
     5    2   11 1   
     6    3    4 ar  
     7    3   21 1   
     8    4    6 ar  
     9    4   22 1   
    10    5    6 ar  
    11    5   10 ar  
    12    6    7 ar  
    13    7    8 ar  
    14    8    9 ar  
    15    8   23 1   
    16    9   10 ar  
    17    9   24 1   
    18   11   14 1   
    19   11   18 2   
    20   12   13 1   
    21   12   17 1   
    22   12   25 1   
    23   12   36 1   
    24   13   14 1   
    25   13   26 1   
    26   13   27 1   
    27   14   15 1   
    28   15   16 1   
    29   15   28 1   
    30   15   29 1   
    31   16   17 1   
    32   16   19 1   
    33   16   30 1   
    34   17   31 1   
    35   17   32 1   
    36   19   33 1   
    37   19   34 1   
    38   19   35 1   
@<TRIPOS>SUBSTRUCTURE
     1 MQS         1 TEMP              0 ****  ****    0 ROOT
