@<TRIPOS>MOLECULE
MQS
   36    38     1     0     0
SMALL
bcc


@<TRIPOS>ATOM
      1 C1         -0.1450   -0.2190    0.0450 ca        1 MQS     -0.126300
      2 C2          1.1950    0.0770   -0.0610 ca        1 MQS     -0.121600
      3 C3          1.9700    0.3740    1.0880 ca        1 MQS     -0.090000
      4 C4          1.3960    0.3940    2.3340 ca        1 MQS     -0.162300
      5 C5         -0.7750   -0.2130    1.3260 ca        1 MQS      0.272300
      6 C6          0.0070    0.1030    2.4910 ca        1 MQS      0.294300
      7 N1         -0.5730    0.1220    3.7530 nb        1 MQS     -0.621000
      8 C7         -1.8570   -0.1660    3.8210 ca        1 MQS      0.300900
      9 C8         -2.6450   -0.4850    2.6470 ca        1 MQS      0.293900
     10 N2         -2.1280   -0.5090    1.4350 nb        1 MQS     -0.617000
     11 C9          1.9030    0.0170   -1.3770 c         1 MQS      0.660700
     12 C10         1.2580    3.2260   -2.5680 c3        1 MQS     -0.103400
     13 C11         0.5530    1.8990   -2.2730 c3        1 MQS      0.080000
     14 N3          1.3900    0.7330   -2.4570 n         1 MQS     -0.447800
     15 C12         2.0990    0.7030   -3.7230 c3        1 MQS      0.077000
     16 C13         2.8570    2.0000   -4.0510 c3        1 MQS     -0.090700
     17 C14         1.9290    3.1980   -3.9250 c3        1 MQS     -0.076400
     18 O1          2.8970   -0.7260   -1.5130 o         1 MQS     -0.589100
     19 C15         3.4370    1.9090   -5.4440 c3        1 MQS     -0.089100
     20 H1         -0.7430   -0.4680   -0.8470 ha        1 MQS      0.164000
     21 H2          3.0470    0.5730    0.9610 ha        1 MQS      0.156000
     22 H3          1.9990    0.6250    3.2270 ha        1 MQS      0.158000
     23 H4         -2.3300   -0.1560    4.8190 h4        1 MQS      0.036100
     24 H5         -3.7190   -0.7210    2.7490 h4        1 MQS      0.036100
     25 H7          2.0190    3.4380   -1.7740 hc        1 MQS      0.049700
     26 H8         -0.3200    1.7920   -2.9810 h1        1 MQS      0.055700
     27 H9          0.1470    1.9270   -1.2250 h1        1 MQS      0.055700
     28 H10         2.8260   -0.1580   -3.7260 h1        1 MQS      0.067200
     29 H11         1.3290    0.5220   -4.5270 h1        1 MQS      0.067200
     30 H12         3.7010    2.1200   -3.3140 hc        1 MQS      0.058700
     31 H13         1.1480    3.1500   -4.7290 hc        1 MQS      0.044200
     32 H14         2.5120    4.1430   -4.0790 hc        1 MQS      0.044200
     33 H15         4.1310    1.0370   -5.5180 hc        1 MQS      0.037700
     34 H16         2.6280    1.7830   -6.2030 hc        1 MQS      0.037700
     35 H17         4.0060    2.8390   -5.6850 hc        1 MQS      0.037700
     36 H6          0.4940    4.0450   -2.5350 hc        1 MQS      0.049700
@<TRIPOS>BOND
     1    1    2 ar  
     2    1    5 ar  
     3    1   20 1   
     4    2    3 ar  
     5    2   11 1   
     6    3    4 ar  
     7    3   21 1   
     8    4    6 ar  
     9    4   22 1   
    10    5    6 ar  
    11    5   10 ar  
    12    6    7 ar  
    13    7    8 ar  
    14    8    9 ar  
    15    8   23 1   
    16    9   10 ar  
    17    9   24 1   
    18   11   14 1   
    19   11   18 2   
    20   12   13 1   
    21   12   17 1   
    22   12   25 1   
    23   12   36 1   
    24   13   14 1   
    25   13   26 1   
    26   13   27 1   
    27   14   15 1   
    28   15   16 1   
    29   15   28 1   
    30   15   29 1   
    31   16   17 1   
    32   16   19 1   
    33   16   30 1   
    34   17   31 1   
    35   17   32 1   
    36   19   33 1   
    37   19   34 1   
    38   19   35 1   
@<TRIPOS>SUBSTRUCTURE
     1 MQS         1 TEMP              0 ****  ****    0 ROOT
