@<TRIPOS>MOLECULE
MQS
   36    38     1     0     0
SMALL
bcc


@<TRIPOS>ATOM
      1 C1         -0.1540   -0.2130    0.0430 ca        1 MQS     -0.126300
      2 C2          1.1880    0.0700   -0.0660 ca        1 MQS     -0.121600
      3 C3          1.9690    0.3550    1.0820 ca        1 MQS     -0.090000
      4 C4          1.3980    0.3740    2.3300 ca        1 MQS     -0.162300
      5 C5         -0.7810   -0.2070    1.3240 ca        1 MQS      0.272300
      6 C6          0.0070    0.0970    2.4900 ca        1 MQS      0.294300
      7 N1         -0.5690    0.1150    3.7530 nb        1 MQS     -0.621000
      8 C7         -1.8570   -0.1600    3.8230 ca        1 MQS      0.300900
      9 C8         -2.6510   -0.4670    2.6490 ca        1 MQS      0.293900
     10 N2         -2.1370   -0.4900    1.4350 nb        1 MQS     -0.617000
     11 C9          1.8930    0.0090   -1.3830 c         1 MQS      0.660700
     12 C10         1.2740    3.2290   -2.5600 c3        1 MQS     -0.103400
     13 C11         0.5580    1.9080   -2.2690 c3        1 MQS      0.080000
     14 N3          1.3840    0.7350   -2.4600 n         1 MQS     -0.447800
     15 C12         2.0900    0.7040   -3.7270 c3        1 MQS      0.077000
     16 C13         2.8590    1.9960   -4.0510 c3        1 MQS     -0.090700
     17 C14         1.9410    3.2010   -3.9180 c3        1 MQS     -0.076400
     18 O1          2.8790   -0.7420   -1.5250 o         1 MQS     -0.589100
     19 C15         3.4350    1.9050   -5.4460 c3        1 MQS     -0.089100
     20 H1         -0.7570   -0.4520   -0.8500 ha        1 MQS      0.164000
     21 H2          3.0470    0.5430    0.9540 ha        1 MQS      0.156000
     22 H3          2.0060    0.5960    3.2230 ha        1 MQS      0.158000
     23 H4         -2.3270   -0.1510    4.8210 h4        1 MQS      0.036100
     24 H5         -3.7260   -0.6920    2.7520 h4        1 MQS      0.036100
     25 H7          0.5170    4.0550   -2.5220 hc        1 MQS      0.049700
     26 H8          0.1540    1.9350   -1.2190 h1        1 MQS      0.055700
     27 H9         -0.3180    1.8120   -2.9750 h1        1 MQS      0.055700
     28 H10         2.8090   -0.1630   -3.7360 h1        1 MQS      0.067200
     29 H11         1.3160    0.5340   -4.5300 h1        1 MQS      0.067200
     30 H12         3.7050    2.1050   -3.3160 hc        1 MQS      0.058700
     31 H13         1.1580    3.1630   -4.7210 hc        1 MQS      0.044200
     32 H14         2.5320    4.1420   -4.0690 hc        1 MQS      0.044200
     33 H15         4.0110    2.8310   -5.6840 hc        1 MQS      0.037700
     34 H16         4.1210    1.0280   -5.5250 hc        1 MQS      0.037700
     35 H17         2.6230    1.7900   -6.2040 hc        1 MQS      0.037700
     36 H6          2.0390    3.4320   -1.7660 hc        1 MQS      0.049700
@<TRIPOS>BOND
     1    1    2 ar  
     2    1    5 ar  
     3    1   20 1   
     4    2    3 ar  
     5    2   11 1   
     6    3    4 ar  
     7    3   21 1   
     8    4    6 ar  
     9    4   22 1   
    10    5    6 ar  
    11    5   10 ar  
    12    6    7 ar  
    13    7    8 ar  
    14    8    9 ar  
    15    8   23 1   
    16    9   10 ar  
    17    9   24 1   
    18   11   14 1   
    19   11   18 2   
    20   12   13 1   
    21   12   17 1   
    22   12   25 1   
    23   12   36 1   
    24   13   14 1   
    25   13   26 1   
    26   13   27 1   
    27   14   15 1   
    28   15   16 1   
    29   15   28 1   
    30   15   29 1   
    31   16   17 1   
    32   16   19 1   
    33   16   30 1   
    34   17   31 1   
    35   17   32 1   
    36   19   33 1   
    37   19   34 1   
    38   19   35 1   
@<TRIPOS>SUBSTRUCTURE
     1 MQS         1 TEMP              0 ****  ****    0 ROOT
