@<TRIPOS>MOLECULE
MQT
   47    48     1     0     0
SMALL
bcc


@<TRIPOS>ATOM
      1 C1         -2.8880   -0.1150    0.9570 c3        1 MQT      0.325900
      2 O1         -3.7320   -1.2190    0.7340 os        1 MQT     -0.399600
      3 C2         -1.4270   -0.5800    0.7720 c3        1 MQT      0.125100
      4 O2         -1.3310   -1.3000   -0.4560 os        1 MQT     -0.425900
      5 C3         -0.5400    0.6740    0.6860 c3        1 MQT      0.107100
      6 O3          0.7760    0.2090    0.3660 os        1 MQT     -0.415900
      7 C4         -1.0400    1.6790   -0.3660 c3        1 MQT      0.105100
      8 O4         -0.8570    1.2250   -1.6860 oh        1 MQT     -0.581800
      9 C5         -2.5130    1.9990   -0.0660 c3        1 MQT      0.070100
     10 O5         -3.3030    0.8060   -0.0460 os        1 MQT     -0.449600
     11 C6         -3.1270    2.8780   -1.1600 c3        1 MQT      0.143400
     12 O6         -4.4770    3.1730   -0.8770 oh        1 MQT     -0.597800
     13 OAA         1.5600    2.1360    1.1870 o         1 MQT     -0.553000
     14 CAB         1.8240    1.0450    0.6730 c         1 MQT      0.659700
     15 CAC         3.1440    0.4950    0.3390 ca        1 MQT     -0.142600
     16 CAD         4.2710    1.3070    0.5290 ca        1 MQT     -0.062500
     17 CAE         5.5370    0.8170    0.2250 ca        1 MQT     -0.150500
     18 CAF         5.6950   -0.4850   -0.2690 ca        1 MQT     -0.037300
     19 CAG         7.0460   -1.0090   -0.5750 c3        1 MQT     -0.062800
     20 CAH         4.5640   -1.2900   -0.4560 ca        1 MQT     -0.150500
     21 CAI         3.2940   -0.8060   -0.1550 ca        1 MQT     -0.062500
     22 CAN        -0.9640   -2.6230   -0.4220 c         1 MQT      0.652100
     23 OAO        -0.6650   -3.1360    0.6560 o         1 MQT     -0.536000
     24 CAP        -0.9910   -3.2400   -1.7770 c3        1 MQT     -0.148100
     25 CAS        -5.0970   -0.9710    1.0530 c3        1 MQT      0.119700
     26 H1         -3.0290    0.3350    1.9810 h2        1 MQT      0.047700
     27 H2         -1.1180   -1.2230    1.6410 h1        1 MQT      0.110700
     28 H3         -0.5280    1.1800    1.6930 h1        1 MQT      0.081700
     29 H4         -0.4200    2.6190   -0.3020 h1        1 MQT      0.106700
     30 HO4        -1.3530    0.4000   -1.7820 ho        1 MQT      0.424000
     31 H5         -2.5940    2.5080    0.9340 h1        1 MQT      0.057700
     32 H6         -2.6020    3.8700   -1.1830 h1        1 MQT      0.064700
     33 H6A        -3.0290    2.3660   -2.1530 h1        1 MQT      0.064700
     34 HO6        -4.9480    2.3300   -0.8380 ho        1 MQT      0.411000
     35 HAD         4.1420    2.3300    0.9190 ha        1 MQT      0.155500
     36 HAE         6.4210    1.4560    0.3720 ha        1 MQT      0.139500
     37 HAG         7.4810   -1.4890    0.3380 hc        1 MQT      0.050367
     38 HAGA        7.0040   -1.7750   -1.3880 hc        1 MQT      0.050367
     39 HAGB        7.7310   -0.1860   -0.8980 hc        1 MQT      0.050367
     40 HAH         4.6810   -2.3130   -0.8440 ha        1 MQT      0.139500
     41 HAI         2.4060   -1.4400   -0.3020 ha        1 MQT      0.155500
     42 HAP        -0.8490   -2.4660   -2.5680 hc        1 MQT      0.078033
     43 HAPA       -0.1830   -4.0080   -1.8460 hc        1 MQT      0.078033
     44 HAPB       -1.9840   -3.7330   -1.9230 hc        1 MQT      0.078033
     45 HAS        -5.5050   -0.1480    0.4180 h1        1 MQT      0.042033
     46 HASA       -5.6050   -1.9410    0.8250 h1        1 MQT      0.042033
     47 HASB       -5.2020   -0.7140    2.1360 h1        1 MQT      0.042033
@<TRIPOS>BOND
     1    1    2 1   
     2    1    3 1   
     3    1   10 1   
     4    1   26 1   
     5    2   25 1   
     6    3    4 1   
     7    3    5 1   
     8    3   27 1   
     9    4   22 1   
    10    5    6 1   
    11    5    7 1   
    12    5   28 1   
    13    6   14 1   
    14    7    8 1   
    15    7    9 1   
    16    7   29 1   
    17    8   30 1   
    18    9   10 1   
    19    9   11 1   
    20    9   31 1   
    21   11   12 1   
    22   11   32 1   
    23   11   33 1   
    24   12   34 1   
    25   13   14 2   
    26   14   15 1   
    27   15   16 ar  
    28   15   21 ar  
    29   16   17 ar  
    30   16   35 1   
    31   17   18 ar  
    32   17   36 1   
    33   18   19 1   
    34   18   20 ar  
    35   19   37 1   
    36   19   38 1   
    37   19   39 1   
    38   20   21 ar  
    39   20   40 1   
    40   21   41 1   
    41   22   23 2   
    42   22   24 1   
    43   24   42 1   
    44   24   43 1   
    45   24   44 1   
    46   25   45 1   
    47   25   46 1   
    48   25   47 1   
@<TRIPOS>SUBSTRUCTURE
     1 MQT         1 TEMP              0 ****  ****    0 ROOT
