@<TRIPOS>MOLECULE
MQT
   47    46     1     0     0
SMALL
bcc


@<TRIPOS>ATOM
      1 C1         -3.0050   -0.4440   -1.0130 c3        1 MQT      0.141000
      2 O1         -3.4160   -0.2910   -2.3090 os        1 MQT     -0.255000
      3 C2         -1.4780   -0.4200   -0.9700 c3        1 MQT     -0.007000
      4 O2         -1.0080    0.7680   -1.6590 os        1 MQT     -0.268000
      5 C3         -0.9540   -0.4090    0.4140 c3        1 MQT     -0.008000
      6 O3          0.5010   -0.2030    0.3710 os        1 MQT     -0.251000
      7 C4         -1.5730    0.6730    1.2440 c3        1 MQT      0.019000
      8 O4         -1.1200    1.9340    0.7660 oh        1 MQT     -0.308000
      9 C5         -3.1040    0.6450    1.1900 c3        1 MQT     -0.043000
     10 O5         -3.6160    0.6280   -0.1800 os        1 MQT     -0.306000
     11 C6         -3.6360    1.8580    1.8930 c3        1 MQT     -0.007000
     12 O6         -5.0250    1.6570    2.2090 oh        1 MQT     -0.325000
     13 OAA         0.6920   -2.3510    1.0360 o         1 MQT     -0.358000
     14 CAB         1.2400   -1.2920    0.8270 c2        1 MQT      0.353000
     15 CAC         2.7540   -1.1590    1.0320 c2        1 MQT     -0.124000
     16 CAD         3.2570   -0.5820    2.2090 c2        1 MQT     -0.062000
     17 CAE         4.6400   -0.4460    2.3850 c1        1 MQT     -0.153000
     18 CAF         5.5160   -0.8860    1.3880 c1        1 MQT     -0.030000
     19 CAG         7.0450   -0.6810    1.5480 c3        1 MQT     -0.188000
     20 CAH         5.0130   -1.4600    0.2180 c1        1 MQT     -0.151000
     21 CAI         3.6310   -1.5960    0.0400 c1        1 MQT     -0.065000
     22 CAN        -0.4850    0.5150   -2.9360 c2        1 MQT      0.322000
     23 OAO        -0.1810   -0.6130   -3.2530 o         1 MQT     -0.344000
     24 CAP        -0.3650    1.6310   -3.9320 c3        1 MQT     -0.215000
     25 CAS        -4.7390   -0.7110   -2.5340 c3        1 MQT     -0.070000
     26 H1         -3.3140   -1.3090   -0.6850 h2        1 MQT      0.089000
     27 H2         -1.1460   -1.1870   -1.4190 h1        1 MQT      0.156000
     28 H3         -1.1360   -1.2600    0.8230 h1        1 MQT      0.128000
     29 H4         -1.2890    0.5650    2.1640 h1        1 MQT      0.131000
     30 HO4        -0.7130    2.3570    1.4060 ho        1 MQT      0.226000
     31 H5         -3.4250   -0.1550    1.6560 h1        1 MQT      0.095000
     32 H6         -3.5400    2.6460    1.3080 h1        1 MQT      0.103000
     33 H6A        -3.1410    1.9980    2.7000 h1        1 MQT      0.103000
     34 HO6        -5.3360    2.3720    2.6710 ho        1 MQT      0.212000
     35 HAD         2.6250   -0.2660    2.9250 ha        1 MQT      0.161000
     36 HAE         4.9980   -0.0400    3.2160 ha        1 MQT      0.139000
     37 HAG         7.2180    0.2110    1.9090 hc        1 MQT      0.089667
     38 HAGA        7.4770   -0.7700    0.6730 hc        1 MQT      0.089667
     39 HAGB        7.4010   -1.3550    2.1580 hc        1 MQT      0.089667
     40 HAH         5.6360   -1.7720   -0.4880 ha        1 MQT      0.140000
     41 HAI         3.2770   -2.0040   -0.7930 ha        1 MQT      0.157000
     42 HAP        -0.8480    2.4250   -3.5990 hc        1 MQT      0.116667
     43 HAPA       -0.7540    1.3460   -4.7890 hc        1 MQT      0.116667
     44 HAPB        0.5850    1.8550   -4.0620 hc        1 MQT      0.116667
     45 HAS        -4.8590   -1.6310   -2.1830 h1        1 MQT      0.081000
     46 HASA       -4.9300   -0.7010   -3.5080 h1        1 MQT      0.081000
     47 HASB       -5.3680   -0.0910   -2.0650 h1        1 MQT      0.081000
@<TRIPOS>BOND
     1    1    2 1   
     2    1    3 1   
     3    1   10 1   
     4    1   26 1   
     5    2   25 1   
     6    3    4 1   
     7    3    5 1   
     8    3   27 1   
     9    4   22 1   
    10    5    6 1   
    11    5    7 1   
    12    5   28 1   
    13    6   14 1   
    14    7    8 1   
    15    7    9 1   
    16    7   29 1   
    17    8   30 1   
    18    9   10 1   
    19    9   11 1   
    20    9   31 1   
    21   11   12 1   
    22   11   32 1   
    23   11   33 1   
    24   12   34 1   
    25   13   14 1   
    26   14   15 1   
    27   15   16 1   
    28   15   21 1   
    29   16   17 1   
    30   16   35 1   
    31   17   36 1   
    32   18   19 1   
    33   18   20 1   
    34   19   37 1   
    35   19   38 1   
    36   19   39 1   
    37   20   40 1   
    38   21   41 1   
    39   22   23 1   
    40   22   24 1   
    41   24   42 1   
    42   24   43 1   
    43   24   44 1   
    44   25   45 1   
    45   25   46 1   
    46   25   47 1   
@<TRIPOS>SUBSTRUCTURE
     1 MQT         1 TEMP              0 ****  ****    0 ROOT
