@<TRIPOS>MOLECULE
MQT
   47    48     1     0     0
SMALL
bcc


@<TRIPOS>ATOM
      1 C1         -0.0520    0.0400    0.0830 c3        1 MQT      0.325900
      2 O1         -0.4510    0.3430   -1.2330 os        1 MQT     -0.399600
      3 C2          1.4880   -0.0710    0.1060 c3        1 MQT      0.125100
      4 O2          2.0370    1.0720   -0.5490 os        1 MQT     -0.425900
      5 C3          1.9400   -0.0690    1.5770 c3        1 MQT      0.107100
      6 O3          3.3700   -0.0210    1.5540 os        1 MQT     -0.415900
      7 C4          1.3620    1.1170    2.3690 c3        1 MQT      0.105100
      8 O4          1.9260    2.3520    1.9950 oh        1 MQT     -0.581800
      9 C5         -0.1660    1.1080    2.2040 c3        1 MQT      0.070100
     10 O5         -0.5330    1.1570    0.8220 os        1 MQT     -0.449600
     11 C6         -0.8030    2.3470    2.8410 c3        1 MQT      0.143400
     12 O6         -2.2050    2.3320    2.6920 oh        1 MQT     -0.597800
     13 OAA         3.3430   -0.8480    3.6310 o         1 MQT     -0.553000
     14 CAB         4.0280   -0.4590    2.6800 c         1 MQT      0.659700
     15 CAC         5.4900   -0.4040    2.5780 ca        1 MQT     -0.142600
     16 CAD         6.2510   -0.7430    3.7060 ca        1 MQT     -0.062500
     17 CAE         7.6400   -0.7040    3.6430 ca        1 MQT     -0.150500
     18 CAF         8.2870   -0.3290    2.4580 ca        1 MQT     -0.037300
     19 CAG         9.7650   -0.2740    2.4000 c3        1 MQT     -0.062800
     20 CAH         7.5210    0.0060    1.3340 ca        1 MQT     -0.150500
     21 CAI         6.1300   -0.0290    1.3910 ca        1 MQT     -0.062500
     22 CAN         2.7840    0.8900   -1.6860 c         1 MQT      0.652100
     23 OAO         3.0160   -0.2530   -2.0750 o         1 MQT     -0.536000
     24 CAP         3.2100    2.1870   -2.2820 c3        1 MQT     -0.148100
     25 CAS        -1.8590    0.2910   -1.4310 c3        1 MQT      0.119700
     26 H1         -0.5180   -0.9110    0.4660 h2        1 MQT      0.047700
     27 H2          1.8100   -1.0200   -0.4050 h1        1 MQT      0.110700
     28 H3          1.6010   -1.0280    2.0620 h1        1 MQT      0.081700
     29 H4          1.6340    1.0010    3.4580 h1        1 MQT      0.106700
     30 HO4         1.7400    2.4840    1.0540 ho        1 MQT      0.424000
     31 H5         -0.5910    0.1730    2.6630 h1        1 MQT      0.057700
     32 H6         -0.6190    2.3370    3.9480 h1        1 MQT      0.064700
     33 H6A        -0.3630    3.2730    2.3850 h1        1 MQT      0.064700
     34 HO6        -2.3890    2.3260    1.7440 ho        1 MQT      0.411000
     35 HAD         5.7370   -1.0390    4.6360 ha        1 MQT      0.155500
     36 HAE         8.2350   -0.9710    4.5290 ha        1 MQT      0.139500
     37 HAG        10.1340   -0.4740    1.3630 hc        1 MQT      0.050367
     38 HAGA       10.2220   -1.0260    3.0900 hc        1 MQT      0.050367
     39 HAGB       10.1190    0.7430    2.7070 hc        1 MQT      0.050367
     40 HAH         8.0230    0.2980    0.3990 ha        1 MQT      0.139500
     41 HAI         5.5290    0.2340    0.5060 ha        1 MQT      0.155500
     42 HAP         3.2520    2.9870   -1.5040 hc        1 MQT      0.078033
     43 HAPA        2.4680    2.4790   -3.0660 hc        1 MQT      0.078033
     44 HAPB        4.2160    2.0620   -2.7520 hc        1 MQT      0.078033
     45 HAS        -1.9860    0.5470   -2.5130 h1        1 MQT      0.042033
     46 HASA       -2.3750    1.0390   -0.7820 h1        1 MQT      0.042033
     47 HASB       -2.2430   -0.7370   -1.2190 h1        1 MQT      0.042033
@<TRIPOS>BOND
     1    1    2 1   
     2    1    3 1   
     3    1   10 1   
     4    1   26 1   
     5    2   25 1   
     6    3    4 1   
     7    3    5 1   
     8    3   27 1   
     9    4   22 1   
    10    5    6 1   
    11    5    7 1   
    12    5   28 1   
    13    6   14 1   
    14    7    8 1   
    15    7    9 1   
    16    7   29 1   
    17    8   30 1   
    18    9   10 1   
    19    9   11 1   
    20    9   31 1   
    21   11   12 1   
    22   11   32 1   
    23   11   33 1   
    24   12   34 1   
    25   13   14 2   
    26   14   15 1   
    27   15   16 ar  
    28   15   21 ar  
    29   16   17 ar  
    30   16   35 1   
    31   17   18 ar  
    32   17   36 1   
    33   18   19 1   
    34   18   20 ar  
    35   19   37 1   
    36   19   38 1   
    37   19   39 1   
    38   20   21 ar  
    39   20   40 1   
    40   21   41 1   
    41   22   23 2   
    42   22   24 1   
    43   24   42 1   
    44   24   43 1   
    45   24   44 1   
    46   25   45 1   
    47   25   46 1   
    48   25   47 1   
@<TRIPOS>SUBSTRUCTURE
     1 MQT         1 TEMP              0 ****  ****    0 ROOT
