@<TRIPOS>MOLECULE
MQT
   47    48     1     0     0
SMALL
bcc


@<TRIPOS>ATOM
      1 C1         -0.0470    0.0450    0.0730 c3        1 MQT      0.325900
      2 O1         -0.4420    0.3490   -1.2430 os        1 MQT     -0.399600
      3 C2          1.4930   -0.0690    0.1000 c3        1 MQT      0.125100
      4 O2          2.0450    1.0740   -0.5520 os        1 MQT     -0.425900
      5 C3          1.9410   -0.0690    1.5720 c3        1 MQT      0.107100
      6 O3          3.3720   -0.0230    1.5530 os        1 MQT     -0.415900
      7 C4          1.3630    1.1170    2.3640 c3        1 MQT      0.105100
      8 O4          1.9300    2.3510    1.9920 oh        1 MQT     -0.581800
      9 C5         -0.1650    1.1110    2.1950 c3        1 MQT      0.070100
     10 O5         -0.5280    1.1620    0.8120 os        1 MQT     -0.449600
     11 C6         -0.8000    2.3510    2.8320 c3        1 MQT      0.143400
     12 O6         -2.2030    2.3380    2.6790 oh        1 MQT     -0.597800
     13 OAA         3.3380   -0.8520    3.6290 o         1 MQT     -0.553000
     14 CAB         4.0260   -0.4630    2.6800 c         1 MQT      0.659700
     15 CAC         5.4890   -0.4100    2.5810 ca        1 MQT     -0.142600
     16 CAD         6.2450   -0.7520    3.7110 ca        1 MQT     -0.062500
     17 CAE         7.6350   -0.7150    3.6520 ca        1 MQT     -0.151000
     18 CAF         8.2860   -0.3380    2.4690 ca        1 MQT     -0.037300
     19 CAG         9.7640   -0.2860    2.4150 c3        1 MQT     -0.062800
     20 CAH         7.5230   -0.0010    1.3440 ca        1 MQT     -0.151000
     21 CAI         6.1320   -0.0340    1.3970 ca        1 MQT     -0.062500
     22 CAN         2.7950    0.8910   -1.6890 c         1 MQT      0.652100
     23 OAO         3.0250   -0.2530   -2.0790 o         1 MQT     -0.536000
     24 CAP         3.2240    2.1880   -2.2830 c3        1 MQT     -0.148100
     25 CAS        -1.8500    0.2990   -1.4450 c3        1 MQT      0.119700
     26 H1         -0.5150   -0.9060    0.4550 h2        1 MQT      0.047700
     27 H2          1.8150   -1.0180   -0.4100 h1        1 MQT      0.110700
     28 H3          1.5990   -1.0280    2.0550 h1        1 MQT      0.081700
     29 H4          1.6330    1.0000    3.4530 h1        1 MQT      0.106700
     30 HO4         1.7460    2.4850    1.0510 ho        1 MQT      0.424000
     31 H5         -0.5920    0.1760    2.6530 h1        1 MQT      0.057700
     32 H6         -0.6200    2.3400    3.9390 h1        1 MQT      0.064700
     33 H6A        -0.3580    3.2770    2.3770 h1        1 MQT      0.064700
     34 HO6        -2.3840    2.3330    1.7300 ho        1 MQT      0.411000
     35 HAD         5.7290   -1.0480    4.6390 ha        1 MQT      0.155500
     36 HAE         8.2270   -0.9840    4.5390 ha        1 MQT      0.139500
     37 HAG        10.2180   -1.0370    3.1070 hc        1 MQT      0.050367
     38 HAGA       10.1180    0.7320    2.7210 hc        1 MQT      0.050367
     39 HAGB       10.1350   -0.4880    1.3800 hc        1 MQT      0.050367
     40 HAH         8.0270    0.2920    0.4110 ha        1 MQT      0.139500
     41 HAI         5.5340    0.2320    0.5110 ha        1 MQT      0.155500
     42 HAP         4.2290    2.0600   -2.7520 hc        1 MQT      0.078033
     43 HAPA        3.2670    2.9860   -1.5030 hc        1 MQT      0.078033
     44 HAPB        2.4830    2.4830   -3.0660 hc        1 MQT      0.078033
     45 HAS        -1.9740    0.5560   -2.5260 h1        1 MQT      0.042033
     46 HASA       -2.3660    1.0480   -0.7960 h1        1 MQT      0.042033
     47 HASB       -2.2360   -0.7280   -1.2340 h1        1 MQT      0.042033
@<TRIPOS>BOND
     1    1    2 1   
     2    1    3 1   
     3    1   10 1   
     4    1   26 1   
     5    2   25 1   
     6    3    4 1   
     7    3    5 1   
     8    3   27 1   
     9    4   22 1   
    10    5    6 1   
    11    5    7 1   
    12    5   28 1   
    13    6   14 1   
    14    7    8 1   
    15    7    9 1   
    16    7   29 1   
    17    8   30 1   
    18    9   10 1   
    19    9   11 1   
    20    9   31 1   
    21   11   12 1   
    22   11   32 1   
    23   11   33 1   
    24   12   34 1   
    25   13   14 2   
    26   14   15 1   
    27   15   16 ar  
    28   15   21 ar  
    29   16   17 ar  
    30   16   35 1   
    31   17   18 ar  
    32   17   36 1   
    33   18   19 1   
    34   18   20 ar  
    35   19   37 1   
    36   19   38 1   
    37   19   39 1   
    38   20   21 ar  
    39   20   40 1   
    40   21   41 1   
    41   22   23 2   
    42   22   24 1   
    43   24   42 1   
    44   24   43 1   
    45   24   44 1   
    46   25   45 1   
    47   25   46 1   
    48   25   47 1   
@<TRIPOS>SUBSTRUCTURE
     1 MQT         1 TEMP              0 ****  ****    0 ROOT
