@<TRIPOS>MOLECULE
MQU
   41    41     1     0     0
SMALL
bcc


@<TRIPOS>ATOM
      1 C1         -0.0700    0.8490   -0.2020 c2        1 MQU     -0.091000
      2 C2          2.8560   -1.0500    0.9370 c3        1 MQU     -0.089000
      3 O8          3.0230    0.3450    1.1580 os        1 MQU     -0.293000
      4 C14         3.7670    0.9760    0.1300 c3        1 MQU     -0.089000
      5 C5         -0.8390    1.8590    0.2540 c2        1 MQU     -0.075000
      6 O11        -2.0590    2.1620   -0.3240 os        1 MQU     -0.232000
      7 C18        -2.8090    3.1360    0.4000 c3        1 MQU     -0.074000
      8 N22        -4.1270   -2.9860   -4.7600 n2        1 MQU     -0.277000
      9 N23        -3.5070   -1.0130   -6.0990 n2        1 MQU     -0.298000
     10 N24        -0.3240   -0.0460   -1.2490 n3        1 MQU     -0.111000
     11 C27        -3.2250   -2.6120   -3.8210 c2        1 MQU      0.183000
     12 C28        -4.2520   -2.1560   -5.8640 c2        1 MQU      0.196000
     13 C29        -2.5890   -0.6750   -5.1430 c2        1 MQU      0.209000
     14 C30        -2.4160   -1.4600   -3.9450 c2        1 MQU     -0.239000
     15 C31        -1.4470   -1.0830   -2.9510 c2        1 MQU     -0.118000
     16 C32        -0.0940   -1.7520   -2.7980 c3        1 MQU     -0.222000
     17 C33         0.5560   -0.9950   -1.6480 c1        1 MQU     -0.056000
     18 C34        -1.5350   -0.0850   -2.0220 c2        1 MQU     -0.108000
     19 C35        -3.7360   -4.5840   -2.3800 c1        1 MQU      0.270000
     20 C36        -3.1020   -3.4550   -2.6330 c2        1 MQU     -0.461000
     21 H1          0.9180    0.6640    0.2810 h4        1 MQU      0.198000
     22 H21         3.8500   -1.5590    0.9040 h1        1 MQU      0.078000
     23 H22         2.2670   -1.4030    1.8190 h1        1 MQU      0.078000
     24 H141        3.2490    0.8630   -0.8550 h1        1 MQU      0.078000
     25 H142        4.7960    0.5430    0.0690 h1        1 MQU      0.078000
     26 H143        3.8130    2.0510    0.4320 h1        1 MQU      0.078000
     27 H51         2.2920   -1.2300   -0.0170 h1        1 MQU      0.078000
     28 H52        -0.5140    2.4870    1.0970 h4        1 MQU      0.153000
     29 H181       -3.0460    2.7630    1.4250 h1        1 MQU      0.083667
     30 H182       -2.2470    4.0990    0.4560 h1        1 MQU      0.083667
     31 H183       -3.7430    3.2560   -0.2040 h1        1 MQU      0.083667
     32 H251       -5.6210   -3.3860   -6.7600 hn        1 MQU      0.224000
     33 H252       -5.1860   -2.0390   -7.6830 hn        1 MQU      0.224000
     34 H261       -2.0070    1.0470   -6.1010 hn        1 MQU      0.224500
     35 H262       -1.3100    0.7970   -4.5770 hn        1 MQU      0.224500
     36 H32         0.5260   -1.6500   -3.7240 hc        1 MQU      0.142500
     37 H33        -0.1840   -2.8370   -2.5490 hc        1 MQU      0.142500
     38 H35        -2.3510    0.6130   -1.8130 h4        1 MQU      0.193000
     39 H36        -2.3930   -3.0770   -1.8630 ha        1 MQU      0.205000
     40 N25        -5.2560   -2.4620   -6.7880 nv        1 MQU     -0.327000
     41 N26        -1.7690    0.4180   -5.3710 nv        1 MQU     -0.346000
@<TRIPOS>BOND
     1    1    5 1   
     2    1   10 1   
     3    1   21 1   
     4    2    3 1   
     5    2   22 1   
     6    2   23 1   
     7    2   27 1   
     8    3    4 1   
     9    4   24 1   
    10    4   25 1   
    11    4   26 1   
    12    5    6 1   
    13    5   28 1   
    14    6    7 1   
    15    7   29 1   
    16    7   30 1   
    17    7   31 1   
    18    8   11 1   
    19    8   12 1   
    20    9   12 1   
    21    9   13 1   
    22   10   17 1   
    23   10   18 1   
    24   11   14 1   
    25   11   20 1   
    26   12   40 1   
    27   13   14 1   
    28   13   41 1   
    29   14   15 1   
    30   15   16 1   
    31   15   18 1   
    32   16   17 1   
    33   16   36 1   
    34   16   37 1   
    35   18   38 1   
    36   19   20 1   
    37   20   39 1   
    38   32   40 1   
    39   33   40 1   
    40   34   41 1   
    41   35   41 1   
@<TRIPOS>SUBSTRUCTURE
     1 MQU         1 TEMP              0 ****  ****    0 ROOT
