@<TRIPOS>MOLECULE
MQU
   41    41     1     0     0
SMALL
bcc


@<TRIPOS>ATOM
      1 C1          0.0450   -0.2380    0.4130 c3        1 MQU     -0.069000
      2 C2          1.5210    0.0270    0.8220 c3        1 MQU      0.003000
      3 O8          2.0250    1.1810    0.1720 os        1 MQU     -0.283000
      4 C14         3.0310    0.9130   -0.7950 c3        1 MQU     -0.085000
      5 C5         -0.7210    0.9890    0.8370 c1        1 MQU      0.003000
      6 O11        -1.3310    1.6560   -0.1220 os        1 MQU     -0.191000
      7 C18        -2.0190    2.8480    0.3200 c3        1 MQU     -0.066000
      8 N22        -3.4810   -3.1260   -5.2680 n2        1 MQU     -0.275000
      9 N23        -3.7990   -0.6920   -5.4560 n2        1 MQU     -0.297000
     10 N24        -0.0930   -0.7620   -0.9310 n3        1 MQU     -0.163000
     11 C27        -2.5920   -2.9170   -4.2700 c2        1 MQU      0.183000
     12 C28        -4.0310   -1.9960   -5.8550 c2        1 MQU      0.196000
     13 C29        -2.9120   -0.5140   -4.4300 c2        1 MQU      0.204000
     14 C30        -2.2270   -1.6270   -3.8180 c2        1 MQU     -0.237000
     15 C31        -1.2220   -1.4100   -2.8140 c2        1 MQU     -0.113000
     16 C32         0.2430   -1.7710   -2.9840 c3        1 MQU     -0.217000
     17 C33         0.8820   -1.3060   -1.6790 c1        1 MQU     -0.074000
     18 C34        -1.3660   -0.8150   -1.5910 c2        1 MQU     -0.113000
     19 C35        -2.0860   -5.3490   -4.0460 c1        1 MQU      0.271000
     20 C36        -2.0150   -4.0980   -3.6300 c2        1 MQU     -0.462000
     21 H1         -0.3400   -1.0450    1.1200 h1        1 MQU      0.129000
     22 H21         2.1400   -0.8830    0.6130 h1        1 MQU      0.110000
     23 H22         1.5270    0.2720    1.9200 h1        1 MQU      0.110000
     24 H141        2.6860    0.1510   -1.5380 h1        1 MQU      0.082667
     25 H142        3.9610    0.5590   -0.2860 h1        1 MQU      0.082667
     26 H143        3.2090    1.9020   -1.2870 h1        1 MQU      0.082667
     27 H51         0.8800    2.7440    1.4750 ha        1 MQU      0.003500
     28 H52         0.5530    3.1490    1.0390 ha        1 MQU      0.003500
     29 H181       -2.0040    2.9340    1.4320 h1        1 MQU      0.099333
     30 H182       -1.4810    3.7030   -0.1570 h1        1 MQU      0.099333
     31 H183       -3.0600    2.7500   -0.0720 h1        1 MQU      0.099333
     32 H251       -5.2090   -3.0990   -7.1140 hn        1 MQU      0.224500
     33 H252       -5.4350   -1.4290   -7.2350 hn        1 MQU      0.224500
     34 H261       -3.0310    1.5330   -4.4920 hn        1 MQU      0.223000
     35 H262       -1.9030    0.9130   -3.3940 hn        1 MQU      0.223000
     36 H32         0.4030   -2.8670   -3.1240 hc        1 MQU      0.138500
     37 H33         0.7020   -1.2320   -3.8490 hc        1 MQU      0.138500
     38 H35        -2.2560   -0.3970   -1.1120 h4        1 MQU      0.176000
     39 H36        -1.4720   -3.8980   -2.6800 ha        1 MQU      0.205000
     40 N25        -4.8460   -2.1850   -6.9750 nh        1 MQU     -0.326000
     41 N26        -2.7230    0.7690   -3.9380 nh        1 MQU     -0.343000
@<TRIPOS>BOND
     1    1    2 1   
     2    1    5 1   
     3    1   10 1   
     4    1   21 1   
     5    2    3 1   
     6    2   22 1   
     7    2   23 1   
     8    3    4 1   
     9    4   24 1   
    10    4   25 1   
    11    4   26 1   
    12    5    6 1   
    13    6    7 1   
    14    7   29 1   
    15    7   30 1   
    16    7   31 1   
    17    8   11 1   
    18    8   12 1   
    19    9   12 1   
    20    9   13 1   
    21   10   17 1   
    22   10   18 1   
    23   11   14 1   
    24   11   20 1   
    25   12   40 1   
    26   13   14 1   
    27   13   41 1   
    28   14   15 1   
    29   15   16 1   
    30   15   18 1   
    31   16   17 1   
    32   16   36 1   
    33   16   37 1   
    34   18   38 1   
    35   19   20 1   
    36   20   39 1   
    37   27   28 1   
    38   32   40 1   
    39   33   40 1   
    40   34   41 1   
    41   35   41 1   
@<TRIPOS>SUBSTRUCTURE
     1 MQU         1 TEMP              0 ****  ****    0 ROOT
