@<TRIPOS>MOLECULE
MQU
   41    35     1     0     0
SMALL
bcc


@<TRIPOS>ATOM
      1 C1          1.0660    0.7810    1.5550 c3        1 MQU      0.031000
      2 C2          2.5630    0.7290    1.5720 c3        1 MQU     -0.037500
      3 O8          3.0190    0.5900    2.9230 os        1 MQU     -0.276000
      4 C14         4.3820    0.1070    3.0280 c3        1 MQU     -0.073000
      5 C5          0.5850    2.1910    2.0660 c3        1 MQU     -0.037500
      6 O11         0.4290    2.1620    3.4920 os        1 MQU     -0.276000
      7 C18        -0.2200    3.3370    4.0290 c3        1 MQU     -0.073000
      8 N22        -3.0800   -2.9030   -2.0040 n1        1 MQU     -0.256000
      9 N23        -2.3990   -2.0820   -4.1730 n1        1 MQU     -0.295000
     10 N24         0.6030    0.5730    0.2280 n3        1 MQU     -0.138000
     11 N25        -4.2440   -3.7350   -4.0370 n3        1 MQU     -0.315000
     12 N26        -0.7770   -0.3500   -4.3170 n3        1 MQU     -0.333000
     13 C27        -2.1790   -2.0520   -1.3940 c1        1 MQU      0.076000
     14 C28        -3.1940   -2.9220   -3.3990 c1        1 MQU      0.168000
     15 C29        -1.5030   -1.2350   -3.5660 c1        1 MQU      0.192000
     16 C30        -1.3910   -1.2190   -2.1560 c1        1 MQU     -0.156000
     17 C31        -0.4700   -0.3440   -1.5180 c1        1 MQU     -0.034000
     18 C32         0.4200    0.5370   -2.0000 c1        1 MQU     -0.211000
     19 C33         1.0990    1.1180   -0.8980 c1        1 MQU     -0.093000
     20 C34        -0.3740   -0.3390   -0.1310 c1        1 MQU     -0.034000
     21 C35        -1.1730   -1.1830    0.6270 c1        1 MQU     -0.083000
     22 C36        -2.0700   -2.0350    0.0100 c1        1 MQU     -0.126000
     23 H1          0.6980    0.0640    2.1540 h1        1 MQU      0.142000
     24 H21         2.8890   -0.0790    1.0150 h1        1 MQU      0.082500
     25 H22         2.9470    1.6130    1.1620 h1        1 MQU      0.082500
     26 H141        4.4480   -0.7840    2.6100 h1        1 MQU      0.075667
     27 H142        4.6310    0.0470    3.9440 h1        1 MQU      0.075667
     28 H143        4.9540    0.6990    2.5900 h1        1 MQU      0.075667
     29 H51        -0.2900    2.4160    1.6430 h1        1 MQU      0.082500
     30 H52         1.2990    2.9200    1.8060 h1        1 MQU      0.082500
     31 H181        0.2670    4.0940    3.7930 h1        1 MQU      0.075667
     32 H182       -0.2680    3.2640    5.0620 h1        1 MQU      0.075667
     33 H183       -1.0840    3.4020    3.6800 h1        1 MQU      0.075667
     34 H251       -4.2320   -3.8760   -5.0110 hn        1 MQU      0.211000
     35 H252       -4.8590   -4.1930   -3.5090 hn        1 MQU      0.211000
     36 H261        0.0550   -0.1690   -4.0950 hn        1 MQU      0.211500
     37 H262       -1.1970    0.1350   -5.0190 hn        1 MQU      0.211500
     38 H32         0.5840    0.7590   -3.0200 DU        1 MQU      0.158500
     39 H33         1.8560    1.7550   -0.9530 DU        1 MQU      0.158500
     40 H35        -1.1220   -1.1530    1.6360 ha        1 MQU      0.140000
     41 H36        -2.6640   -2.6410    0.5750 ha        1 MQU      0.152000
@<TRIPOS>BOND
     1    1    2 1   
     2    1    5 1   
     3    1   10 1   
     4    1   23 1   
     5    2    3 1   
     6    2   24 1   
     7    2   25 1   
     8    3    4 1   
     9    4   26 1   
    10    4   27 1   
    11    4   28 1   
    12    5    6 1   
    13    5   29 1   
    14    5   30 1   
    15    6    7 1   
    16    7   31 1   
    17    7   32 1   
    18    7   33 1   
    19    8   13 1   
    20    9   14 1   
    21   10   19 1   
    22   10   20 1   
    23   11   14 1   
    24   11   34 1   
    25   11   35 1   
    26   12   15 1   
    27   12   36 1   
    28   12   37 1   
    29   13   22 1   
    30   15   16 1   
    31   16   17 1   
    32   18   19 1   
    33   20   21 1   
    34   21   40 1   
    35   22   41 1   
@<TRIPOS>SUBSTRUCTURE
     1 MQU         1 TEMP              0 ****  ****    0 ROOT
