@<TRIPOS>MOLECULE
MQU
   41    43     1     0     0
SMALL
bcc


@<TRIPOS>ATOM
      1 C1         -0.3410    0.4510    2.6410 c3        1 MQU      0.056000
      2 C2         -0.7610   -0.8490    3.3680 c3        1 MQU      0.112400
      3 O8         -1.7540   -0.4460    4.3110 os        1 MQU     -0.432600
      4 C14        -2.2360   -1.5320    5.0840 c3        1 MQU      0.117700
      5 C5          0.4900    1.3210    3.6050 c3        1 MQU      0.112400
      6 O11         1.6550    0.5930    3.9880 os        1 MQU     -0.432600
      7 C18         2.4400    1.2920    4.9410 c3        1 MQU      0.117700
      8 N22        -1.5630    0.1940   -3.8610 nb        1 MQU     -0.783000
      9 N23         0.6740   -0.4580   -4.6380 nb        1 MQU     -0.820000
     10 N24         0.3050    0.1980    1.3790 na        1 MQU     -0.052400
     11 C27        -1.0850    0.2340   -2.5770 ca        1 MQU      0.468600
     12 C28        -0.6760   -0.1560   -4.8390 ca        1 MQU      0.886900
     13 C29         1.1310   -0.4250   -3.3670 ca        1 MQU      0.712200
     14 C30         0.2600   -0.1180   -2.2410 ca        1 MQU     -0.286600
     15 C31         0.6370   -0.1470   -0.8780 ca        1 MQU     -0.037800
     16 C32         1.8190   -0.5520   -0.1590 cc        1 MQU     -0.216200
     17 C33         1.5800   -0.3370    1.2000 cd        1 MQU     -0.093100
     18 C34        -0.3060    0.2870    0.1180 ca        1 MQU     -0.099200
     19 C35        -1.6160    0.6950   -0.2260 ca        1 MQU     -0.089000
     20 C36        -1.9940    0.6520   -1.5380 ca        1 MQU     -0.193300
     21 H1         -1.2850    1.0420    2.4270 h1        1 MQU      0.086700
     22 H21         0.1150   -1.3030    3.9010 h1        1 MQU      0.050950
     23 H22        -1.2020   -1.5940    2.6560 h1        1 MQU      0.050950
     24 H141       -2.9960   -1.0730    5.7630 h1        1 MQU      0.036533
     25 H142       -2.7090   -2.3030    4.4270 h1        1 MQU      0.036533
     26 H143       -1.4060   -1.9930    5.6760 h1        1 MQU      0.036533
     27 H51         0.7930    2.2860    3.1200 h1        1 MQU      0.050950
     28 H52        -0.1420    1.5270    4.5110 h1        1 MQU      0.050950
     29 H181        3.3040    0.6110    5.1420 h1        1 MQU      0.036533
     30 H182        2.7950    2.2650    4.5210 h1        1 MQU      0.036533
     31 H183        1.8550    1.4710    5.8770 h1        1 MQU      0.036533
     32 H251       -0.5770   -0.6620   -6.8160 hn        1 MQU      0.416300
     33 H252       -2.1040   -0.1920   -6.2980 hn        1 MQU      0.416300
     34 H261        3.0520   -0.8120   -3.9530 hn        1 MQU      0.416800
     35 H262        2.8850   -0.2720   -2.3730 hn        1 MQU      0.416800
     36 H32         2.7250   -1.0040   -0.5490 ha        1 MQU      0.155000
     37 H33         2.2320   -0.5070    2.0620 h4        1 MQU      0.186000
     38 H35        -2.3210    1.0280    0.5500 ha        1 MQU      0.135000
     39 H36        -3.0160    0.9440   -1.8290 ha        1 MQU      0.152000
     40 N25        -1.1190   -0.1290   -6.1750 nh        1 MQU     -0.919500
     41 N26         2.4710   -0.7390   -3.1470 nh        1 MQU     -0.933500
@<TRIPOS>BOND
     1    1    2 1   
     2    1    5 1   
     3    1   10 1   
     4    1   21 1   
     5    2    3 1   
     6    2   22 1   
     7    2   23 1   
     8    3    4 1   
     9    4   24 1   
    10    4   25 1   
    11    4   26 1   
    12    5    6 1   
    13    5   27 1   
    14    5   28 1   
    15    6    7 1   
    16    7   29 1   
    17    7   30 1   
    18    7   31 1   
    19    8   11 ar  
    20    8   12 ar  
    21    9   12 ar  
    22    9   13 ar  
    23   10   17 1   
    24   10   18 1   
    25   11   14 ar  
    26   11   20 ar  
    27   12   40 1   
    28   13   14 ar  
    29   13   41 1   
    30   14   15 ar  
    31   15   16 1   
    32   15   18 ar  
    33   16   17 2   
    34   16   36 1   
    35   17   37 1   
    36   18   19 ar  
    37   19   20 ar  
    38   19   38 1   
    39   20   39 1   
    40   32   40 1   
    41   33   40 1   
    42   34   41 1   
    43   35   41 1   
@<TRIPOS>SUBSTRUCTURE
     1 MQU         1 TEMP              0 ****  ****    0 ROOT
