@<TRIPOS>MOLECULE
MQU
   41    41     1     0     0
SMALL
bcc


@<TRIPOS>ATOM
      1 C1         -0.0430    0.3900   -0.2490 c3        1 MQU     -0.051000
      2 C2          1.4460    0.3720   -0.6590 c3        1 MQU     -0.052000
      3 O8          2.1580   -0.0280    0.5100 os        1 MQU     -0.281000
      4 C14         3.5610   -0.0470    0.3100 c3        1 MQU     -0.072000
      5 C5         -0.4320    1.5810    0.6400 c1        1 MQU      0.059000
      6 O11         0.3160    2.6390    0.3960 os        1 MQU     -0.192000
      7 C18         0.0280    3.7850    1.2250 c3        1 MQU     -0.060000
      8 N22        -4.0830   -3.5310   -4.5040 n2        1 MQU     -0.278000
      9 N23        -2.7610   -2.5020   -6.3100 n2        1 MQU     -0.302000
     10 N24        -0.9270    0.3140   -1.3880 n3        1 MQU     -0.157000
     11 C27        -3.5490   -2.6460   -3.6310 c2        1 MQU      0.185000
     12 C28        -3.6880   -3.4110   -5.8290 c2        1 MQU      0.202000
     13 C29        -2.2570   -1.6070   -5.4070 c2        1 MQU      0.214000
     14 C30        -2.6260   -1.6450   -4.0140 c2        1 MQU     -0.247000
     15 C31        -2.0840   -0.6970   -3.0780 c2        1 MQU     -0.105000
     16 C32        -2.4830    0.7680   -3.0310 c3        1 MQU     -0.225000
     17 C33        -1.6550    1.3340   -1.8810 c1        1 MQU     -0.040000
     18 C34        -1.1700   -0.9170   -2.0840 c2        1 MQU     -0.123000
     19 C35        -4.8000   -3.6210   -1.7030 c1        1 MQU      0.273000
     20 C36        -3.9620   -2.7500   -2.2330 c2        1 MQU     -0.465000
     21 H1         -0.2210   -0.5180    0.4090 h1        1 MQU      0.136000
     22 H21         1.7850    1.3890   -0.9880 h1        1 MQU      0.081500
     23 H22         1.6380   -0.3690   -1.4800 h1        1 MQU      0.081500
     24 H141        3.8340   -0.7780   -0.4910 h1        1 MQU      0.075000
     25 H142        3.9350    0.9710    0.0400 h1        1 MQU      0.075000
     26 H143        3.9770   -0.3710    1.2960 h1        1 MQU      0.075000
     27 H51         1.0070    1.2370    2.5690 ha        1 MQU      0.004500
     28 H52         0.8930    0.5820    2.4310 ha        1 MQU      0.004500
     29 H181       -0.9460    3.6650    1.7550 h1        1 MQU      0.097000
     30 H182        0.0070    4.6510    0.5190 h1        1 MQU      0.097000
     31 H183        0.8740    3.8690    1.9500 h1        1 MQU      0.097000
     32 H251       -3.8790   -4.3280   -7.6530 hn        1 MQU      0.228000
     33 H252       -4.7820   -5.0430   -6.4110 hn        1 MQU      0.228000
     34 H261       -1.0250   -0.7030   -6.7830 hn        1 MQU      0.224500
     35 H262       -0.8390   -0.1670   -5.1860 hn        1 MQU      0.224500
     36 H32        -3.5730    0.8870   -2.8090 hc        1 MQU      0.144000
     37 H33        -2.2550    1.3090   -3.9800 hc        1 MQU      0.144000
     38 H35        -0.6550   -1.8330   -1.7870 h4        1 MQU      0.173000
     39 H36        -3.5080   -1.9930   -1.5530 ha        1 MQU      0.207000
     40 N25        -4.3050   -4.2460   -6.7610 nh        1 MQU     -0.332000
     41 N26        -1.3980   -0.6230   -5.8670 nh        1 MQU     -0.349000
@<TRIPOS>BOND
     1    1    2 1   
     2    1    5 1   
     3    1   10 1   
     4    1   21 1   
     5    2    3 1   
     6    2   22 1   
     7    2   23 1   
     8    3    4 1   
     9    4   24 1   
    10    4   25 1   
    11    4   26 1   
    12    5    6 1   
    13    6    7 1   
    14    7   29 1   
    15    7   30 1   
    16    7   31 1   
    17    8   11 1   
    18    8   12 1   
    19    9   12 1   
    20    9   13 1   
    21   10   17 1   
    22   10   18 1   
    23   11   14 1   
    24   11   20 1   
    25   12   40 1   
    26   13   14 1   
    27   13   41 1   
    28   14   15 1   
    29   15   16 1   
    30   15   18 1   
    31   16   17 1   
    32   16   36 1   
    33   16   37 1   
    34   18   38 1   
    35   19   20 1   
    36   20   39 1   
    37   27   28 1   
    38   32   40 1   
    39   33   40 1   
    40   34   41 1   
    41   35   41 1   
@<TRIPOS>SUBSTRUCTURE
     1 MQU         1 TEMP              0 ****  ****    0 ROOT
