@<TRIPOS>MOLECULE
MQY
   48    51     1     0     0
SMALL
bcc


@<TRIPOS>ATOM
      1 N1          0.4050   -1.2360    0.4830 n         1 MQY     -0.429600
      2 C2         -0.9740   -0.9920    0.4120 ca        1 MQY      0.169600
      3 C3          1.2840   -0.7070    1.4990 c         1 MQY      0.796500
      4 C4          1.1620   -2.0580   -0.3990 c         1 MQY      0.701500
      5 C5         -1.6990   -0.5380    1.5420 ca        1 MQY     -0.184000
      6 C6         -1.6800   -1.1990   -0.8000 ca        1 MQY     -0.184000
      7 N7          2.5830   -1.2790    1.3560 n         1 MQY     -0.420800
      8 O8          0.9520    0.0890    2.3890 o         1 MQY     -0.592500
      9 C9          2.6270   -2.0600    0.1100 c3        1 MQY     -0.000300
     10 O10         0.7390   -2.6600   -1.3840 o         1 MQY     -0.550500
     11 C11        -3.0590   -0.2980    1.4470 ca        1 MQY      0.030000
     12 C12        -3.0410   -0.9550   -0.8650 ca        1 MQY      0.030000
     13 C13         3.7370   -0.5130    1.7610 c3        1 MQY      0.121300
     14 C14         3.1100   -3.4890    0.2950 c3        1 MQY     -0.093100
     15 C15        -3.7680   -0.5010    0.2490 ca        1 MQY     -0.483500
     16 C16         4.1230    0.6370    0.8710 ca        1 MQY     -0.100300
     17 S17        -5.3720   -0.2530    0.1660 sy        1 MQY      1.342300
     18 C18         5.1150    0.5080   -0.1500 ca        1 MQY     -0.132300
     19 C19         3.5240    1.8610    1.0730 ca        1 MQY     -0.221300
     20 C20        -5.3660    1.6650   -0.3820 c3        1 MQY      0.576700
     21 O21        -5.9680   -0.9010   -0.9010 o         1 MQY     -0.598800
     22 O22        -5.9860   -0.2430    1.4060 o         1 MQY     -0.598800
     23 C23         5.4480    1.6780   -0.9060 ca        1 MQY      0.389600
     24 C24         5.7790   -0.7100   -0.4480 ca        1 MQY     -0.136000
     25 C25         3.9210    2.9680    0.2610 ca        1 MQY      0.410200
     26 F26        -4.7410    1.9160   -1.5770 f         1 MQY     -0.240633
     27 F27        -6.6310    2.1680   -0.5400 f         1 MQY     -0.240633
     28 F28        -4.7640    2.5140    0.5100 f         1 MQY     -0.240633
     29 N29         4.8380    2.8990   -0.6840 nb        1 MQY     -0.642000
     30 C30         6.4470    1.5780   -1.9290 ca        1 MQY     -0.154300
     31 C31         6.7320   -0.7730   -1.4340 ca        1 MQY     -0.113000
     32 C32         7.0680    0.3810   -2.1790 ca        1 MQY     -0.126000
     33 H5         -1.1900   -0.3570    2.5050 ha        1 MQY      0.180500
     34 H6         -1.1580   -1.5600   -1.7030 ha        1 MQY      0.180500
     35 H9          3.2690   -1.5420   -0.6650 h1        1 MQY      0.100700
     36 H11        -3.6070    0.0570    2.3410 ha        1 MQY      0.167000
     37 H12        -3.5730   -1.1210   -1.8210 ha        1 MQY      0.167000
     38 H13         3.5070   -0.1070    2.7930 h1        1 MQY      0.087200
     39 H13A        4.5920   -1.2410    1.8560 h1        1 MQY      0.087200
     40 H14         2.9870   -4.0320   -0.6750 hc        1 MQY      0.061367
     41 H14A        4.1890   -3.4920    0.5850 hc        1 MQY      0.061367
     42 H14B        2.5280   -4.0220    1.0840 hc        1 MQY      0.061367
     43 H19         2.7480    2.0010    1.8420 ha        1 MQY      0.163000
     44 H24         5.5260   -1.6170    0.1220 ha        1 MQY      0.128000
     45 H25         3.4460    3.9560    0.4160 h4        1 MQY      0.032100
     46 H30         6.7050    2.4790   -2.5090 ha        1 MQY      0.156000
     47 H31         7.2450   -1.7210   -1.6570 ha        1 MQY      0.138000
     48 H32         7.8370    0.3060   -2.9640 ha        1 MQY      0.142000
@<TRIPOS>BOND
     1    1    2 1   
     2    1    3 1   
     3    1    4 1   
     4    2    5 ar  
     5    2    6 ar  
     6    3    7 1   
     7    3    8 2   
     8    4    9 1   
     9    4   10 2   
    10    5   11 ar  
    11    5   33 1   
    12    6   12 ar  
    13    6   34 1   
    14    7    9 1   
    15    7   13 1   
    16    9   14 1   
    17    9   35 1   
    18   11   15 ar  
    19   11   36 1   
    20   12   15 ar  
    21   12   37 1   
    22   13   16 1   
    23   13   38 1   
    24   13   39 1   
    25   14   40 1   
    26   14   41 1   
    27   14   42 1   
    28   15   17 1   
    29   16   18 ar  
    30   16   19 ar  
    31   17   20 1   
    32   17   21 2   
    33   17   22 2   
    34   18   23 ar  
    35   18   24 ar  
    36   19   25 ar  
    37   19   43 1   
    38   20   26 1   
    39   20   27 1   
    40   20   28 1   
    41   23   29 ar  
    42   23   30 ar  
    43   24   31 ar  
    44   24   44 1   
    45   25   29 ar  
    46   25   45 1   
    47   30   32 ar  
    48   30   46 1   
    49   31   32 ar  
    50   31   47 1   
    51   32   48 1   
@<TRIPOS>SUBSTRUCTURE
     1 MQY         1 TEMP              0 ****  ****    0 ROOT
