@<TRIPOS>MOLECULE
MQY
   48    51     1     0     0
SMALL
bcc


@<TRIPOS>ATOM
      1 N1          0.0660    0.1150   -0.0970 n         1 MQY     -0.429600
      2 C2         -0.7570    0.1010   -1.2320 ca        1 MQY      0.169600
      3 C3          1.5010    0.2710   -0.1220 c         1 MQY      0.796500
      4 C4         -0.3630    0.0120    1.2560 c         1 MQY      0.701500
      5 C5         -0.3140    0.6320   -2.4690 ca        1 MQY     -0.184000
      6 C6         -2.0630   -0.4480   -1.1660 ca        1 MQY     -0.184000
      7 N7          1.9950    0.3950    1.2100 n         1 MQY     -0.420800
      8 O8          2.1960    0.3350   -1.1460 o         1 MQY     -0.592500
      9 C9          0.8970    0.1280    2.1530 c3        1 MQY     -0.000300
     10 O10        -1.5170   -0.1400    1.6500 o         1 MQY     -0.550500
     11 C11        -1.1420    0.6020   -3.5780 ca        1 MQY      0.030000
     12 C12        -2.8700   -0.4630   -2.2910 ca        1 MQY      0.030000
     13 C13         3.3270   -0.0710    1.5130 c3        1 MQY      0.121300
     14 C14         0.6970    1.2200    3.1910 c3        1 MQY     -0.093100
     15 C15        -2.4380    0.0600   -3.5230 ca        1 MQY     -0.483500
     16 C16         3.5210   -1.5620    1.5570 ca        1 MQY     -0.100300
     17 S17        -3.4120    0.0680   -4.8240 sy        1 MQY      1.342300
     18 C18         3.4590   -2.3000    2.7800 ca        1 MQY     -0.132300
     19 C19         3.7990   -2.2280    0.3850 ca        1 MQY     -0.221300
     20 C20        -2.9110   -1.6980   -5.6030 c3        1 MQY      0.576700
     21 O21        -4.7500   -0.0790   -4.5030 o         1 MQY     -0.598800
     22 O22        -3.0230    0.9800   -5.7880 o         1 MQY     -0.598800
     23 C23         3.7120   -3.7090    2.7200 ca        1 MQY      0.389600
     24 C24         3.1640   -1.7120    4.0370 ca        1 MQY     -0.136000
     25 C25         4.0300   -3.6390    0.4270 ca        1 MQY      0.410200
     26 F26        -3.1490   -2.7720   -4.7850 f         1 MQY     -0.240633
     27 F27        -3.6020   -1.9780   -6.7540 f         1 MQY     -0.240633
     28 F28        -1.5900   -1.8150   -5.9540 f         1 MQY     -0.240633
     29 N29         3.9950   -4.3590    1.5320 nb        1 MQY     -0.642000
     30 C30         3.6670   -4.4710    3.9330 ca        1 MQY     -0.154300
     31 C31         3.1300   -2.4690    5.1810 ca        1 MQY     -0.113000
     32 C32         3.3840   -3.8590    5.1270 ca        1 MQY     -0.126000
     33 H5          0.6970    1.0650   -2.5680 ha        1 MQY      0.180500
     34 H6         -2.4540   -0.8660   -0.2230 ha        1 MQY      0.180500
     35 H9          1.0500   -0.8640    2.6750 h1        1 MQY      0.100700
     36 H11        -0.7760    1.0220   -4.5340 ha        1 MQY      0.167000
     37 H12        -3.8860   -0.8970   -2.2190 ha        1 MQY      0.167000
     38 H13         4.0060    0.3560    0.7140 h1        1 MQY      0.087200
     39 H13A        3.6160    0.3930    2.4990 h1        1 MQY      0.087200
     40 H14         0.5850    2.2240    2.7160 hc        1 MQY      0.061367
     41 H14A        1.5700    1.2510    3.8860 hc        1 MQY      0.061367
     42 H14B       -0.2290    0.9900    3.7730 hc        1 MQY      0.061367
     43 H19         3.8450   -1.6990   -0.5800 ha        1 MQY      0.163000
     44 H24         2.9610   -0.6310    4.0930 ha        1 MQY      0.128000
     45 H25         4.2560   -4.1830   -0.5090 h4        1 MQY      0.032100
     46 H30         3.8640   -5.5540    3.8870 ha        1 MQY      0.156000
     47 H31         2.9040   -2.0040    6.1530 ha        1 MQY      0.138000
     48 H32         3.3520   -4.4450    6.0590 ha        1 MQY      0.142000
@<TRIPOS>BOND
     1    1    2 1   
     2    1    3 1   
     3    1    4 1   
     4    2    5 ar  
     5    2    6 ar  
     6    3    7 1   
     7    3    8 2   
     8    4    9 1   
     9    4   10 2   
    10    5   11 ar  
    11    5   33 1   
    12    6   12 ar  
    13    6   34 1   
    14    7    9 1   
    15    7   13 1   
    16    9   14 1   
    17    9   35 1   
    18   11   15 ar  
    19   11   36 1   
    20   12   15 ar  
    21   12   37 1   
    22   13   16 1   
    23   13   38 1   
    24   13   39 1   
    25   14   40 1   
    26   14   41 1   
    27   14   42 1   
    28   15   17 1   
    29   16   18 ar  
    30   16   19 ar  
    31   17   20 1   
    32   17   21 2   
    33   17   22 2   
    34   18   23 ar  
    35   18   24 ar  
    36   19   25 ar  
    37   19   43 1   
    38   20   26 1   
    39   20   27 1   
    40   20   28 1   
    41   23   29 ar  
    42   23   30 ar  
    43   24   31 ar  
    44   24   44 1   
    45   25   29 ar  
    46   25   45 1   
    47   30   32 ar  
    48   30   46 1   
    49   31   32 ar  
    50   31   47 1   
    51   32   48 1   
@<TRIPOS>SUBSTRUCTURE
     1 MQY         1 TEMP              0 ****  ****    0 ROOT
