@<TRIPOS>MOLECULE
MQY
   48    51     1     0     0
SMALL
bcc


@<TRIPOS>ATOM
      1 N1          0.0590    0.1120   -0.0920 n         1 MQY     -0.429600
      2 C2         -0.7660    0.0970   -1.2260 ca        1 MQY      0.169600
      3 C3          1.4940    0.2760   -0.1200 c         1 MQY      0.796500
      4 C4         -0.3660    0.0020    1.2620 c         1 MQY      0.701500
      5 C5         -0.3280    0.6350   -2.4610 ca        1 MQY     -0.184000
      6 C6         -2.0690   -0.4600   -1.1590 ca        1 MQY     -0.184000
      7 N7          1.9900    0.3980    1.2120 n         1 MQY     -0.420800
      8 O8          2.1860    0.3460   -1.1450 o         1 MQY     -0.592500
      9 C9          0.8950    0.1220    2.1560 c3        1 MQY     -0.000300
     10 O10        -1.5180   -0.1590    1.6570 o         1 MQY     -0.550500
     11 C11        -1.1580    0.6040   -3.5680 ca        1 MQY      0.030000
     12 C12        -2.8780   -0.4740   -2.2820 ca        1 MQY      0.030000
     13 C13         3.3240   -0.0610    1.5100 c3        1 MQY      0.121300
     14 C14         0.6910    1.2090    3.1980 c3        1 MQY     -0.093100
     15 C15        -2.4520    0.0550   -3.5130 ca        1 MQY     -0.483500
     16 C16         3.5260   -1.5520    1.5500 ca        1 MQY     -0.100300
     17 S17        -3.4280    0.0620   -4.8120 sy        1 MQY      1.342300
     18 C18         3.4710   -2.2940    2.7700 ca        1 MQY     -0.132300
     19 C19         3.8060   -2.2130    0.3750 ca        1 MQY     -0.221300
     20 C20        -2.9180   -1.6980   -5.5990 c3        1 MQY      0.576700
     21 O21        -4.7640   -0.0930   -4.4890 o         1 MQY     -0.598800
     22 O22        -3.0470    0.9800   -5.7740 o         1 MQY     -0.598800
     23 C23         3.7310   -3.7010    2.7060 ca        1 MQY      0.389600
     24 C24         3.1760   -1.7100    4.0300 ca        1 MQY     -0.136000
     25 C25         4.0450   -3.6220    0.4130 ca        1 MQY      0.410200
     26 F26        -3.1490   -2.7770   -4.7840 f         1 MQY     -0.240633
     27 F27        -3.6100   -1.9770   -6.7490 f         1 MQY     -0.240633
     28 F28        -1.5980   -1.8060   -5.9530 f         1 MQY     -0.240633
     29 N29         4.0160   -4.3460    1.5160 nb        1 MQY     -0.642000
     30 C30         3.6930   -4.4670    3.9170 ca        1 MQY     -0.154300
     31 C31         3.1470   -2.4720    5.1720 ca        1 MQY     -0.113000
     32 C32         3.4090   -3.8600    5.1140 ca        1 MQY     -0.126000
     33 H5          0.6800    1.0740   -2.5610 ha        1 MQY      0.180500
     34 H6         -2.4550   -0.8830   -0.2160 ha        1 MQY      0.180500
     35 H9          1.0550   -0.8720    2.6750 h1        1 MQY      0.100700
     36 H11        -0.7970    1.0300   -4.5240 ha        1 MQY      0.167000
     37 H12        -3.8910   -0.9150   -2.2090 ha        1 MQY      0.167000
     38 H13         3.6130    0.4010    2.4970 h1        1 MQY      0.087200
     39 H13A        3.9990    0.3720    0.7110 h1        1 MQY      0.087200
     40 H14        -0.2330    0.9720    3.7810 hc        1 MQY      0.061367
     41 H14A        0.5720    2.2140    2.7270 hc        1 MQY      0.061367
     42 H14B        1.5650    1.2420    3.8920 hc        1 MQY      0.061367
     43 H19         3.8480   -1.6810   -0.5880 ha        1 MQY      0.163000
     44 H24         2.9670   -0.6310    4.0900 ha        1 MQY      0.128000
     45 H25         4.2720   -4.1630   -0.5250 h4        1 MQY      0.032100
     46 H30         3.8960   -5.5490    3.8670 ha        1 MQY      0.156000
     47 H31         2.9210   -2.0110    6.1460 ha        1 MQY      0.138000
     48 H32         3.3810   -4.4490    6.0440 ha        1 MQY      0.142000
@<TRIPOS>BOND
     1    1    2 1   
     2    1    3 1   
     3    1    4 1   
     4    2    5 ar  
     5    2    6 ar  
     6    3    7 1   
     7    3    8 2   
     8    4    9 1   
     9    4   10 2   
    10    5   11 ar  
    11    5   33 1   
    12    6   12 ar  
    13    6   34 1   
    14    7    9 1   
    15    7   13 1   
    16    9   14 1   
    17    9   35 1   
    18   11   15 ar  
    19   11   36 1   
    20   12   15 ar  
    21   12   37 1   
    22   13   16 1   
    23   13   38 1   
    24   13   39 1   
    25   14   40 1   
    26   14   41 1   
    27   14   42 1   
    28   15   17 1   
    29   16   18 ar  
    30   16   19 ar  
    31   17   20 1   
    32   17   21 2   
    33   17   22 2   
    34   18   23 ar  
    35   18   24 ar  
    36   19   25 ar  
    37   19   43 1   
    38   20   26 1   
    39   20   27 1   
    40   20   28 1   
    41   23   29 ar  
    42   23   30 ar  
    43   24   31 ar  
    44   24   44 1   
    45   25   29 ar  
    46   25   45 1   
    47   30   32 ar  
    48   30   46 1   
    49   31   32 ar  
    50   31   47 1   
    51   32   48 1   
@<TRIPOS>SUBSTRUCTURE
     1 MQY         1 TEMP              0 ****  ****    0 ROOT
