@<TRIPOS>MOLECULE
MQY
   48    51     1     0     0
SMALL
bcc


@<TRIPOS>ATOM
      1 N1          0.0580    0.1120   -0.0900 n         1 MQY     -0.429600
      2 C2         -0.7700    0.0960   -1.2220 ca        1 MQY      0.169600
      3 C3          1.4920    0.2770   -0.1200 c         1 MQY      0.796500
      4 C4         -0.3650    0.0030    1.2650 c         1 MQY      0.701500
      5 C5         -0.3340    0.6330   -2.4580 ca        1 MQY     -0.184000
      6 C6         -2.0720   -0.4610   -1.1520 ca        1 MQY     -0.184000
      7 N7          1.9900    0.4010    1.2110 n         1 MQY     -0.420800
      8 O8          2.1830    0.3470   -1.1470 o         1 MQY     -0.592500
      9 C9          0.8980    0.1250    2.1570 c3        1 MQY     -0.000300
     10 O10        -1.5160   -0.1570    1.6630 o         1 MQY     -0.550500
     11 C11        -1.1670    0.6010   -3.5640 ca        1 MQY      0.030000
     12 C12        -2.8840   -0.4770   -2.2730 ca        1 MQY      0.030000
     13 C13         3.3260   -0.0570    1.5070 c3        1 MQY      0.121300
     14 C14         0.6950    1.2140    3.1980 c3        1 MQY     -0.093100
     15 C15        -2.4600    0.0510   -3.5050 ca        1 MQY     -0.483500
     16 C16         3.5290   -1.5470    1.5470 ca        1 MQY     -0.100300
     17 S17        -3.4390    0.0570   -4.8020 sy        1 MQY      1.342300
     18 C18         3.4770   -2.2880    2.7690 ca        1 MQY     -0.132300
     19 C19         3.8080   -2.2090    0.3730 ca        1 MQY     -0.221300
     20 C20        -2.9300   -1.7040   -5.5890 c3        1 MQY      0.576700
     21 O21        -4.7740   -0.0990   -4.4770 o         1 MQY     -0.598800
     22 O22        -3.0590    0.9740   -5.7660 o         1 MQY     -0.598800
     23 C23         3.7390   -3.6950    2.7050 ca        1 MQY      0.389600
     24 C24         3.1840   -1.7040    4.0280 ca        1 MQY     -0.136000
     25 C25         4.0480   -3.6180    0.4120 ca        1 MQY      0.410200
     26 F26        -3.1590   -2.7820   -4.7730 f         1 MQY     -0.240633
     27 F27        -3.6240   -1.9850   -6.7370 f         1 MQY     -0.240633
     28 F28        -1.6100   -1.8120   -5.9450 f         1 MQY     -0.240633
     29 N29         4.0210   -4.3410    1.5160 nb        1 MQY     -0.642000
     30 C30         3.7030   -4.4600    3.9170 ca        1 MQY     -0.154300
     31 C31         3.1580   -2.4640    5.1710 ca        1 MQY     -0.113000
     32 C32         3.4210   -3.8520    5.1140 ca        1 MQY     -0.126000
     33 H5          0.6740    1.0720   -2.5610 ha        1 MQY      0.180500
     34 H6         -2.4560   -0.8840   -0.2080 ha        1 MQY      0.180500
     35 H9          1.0590   -0.8680    2.6760 h1        1 MQY      0.100700
     36 H11        -0.8070    1.0250   -4.5210 ha        1 MQY      0.167000
     37 H12        -3.8970   -0.9180   -2.1990 ha        1 MQY      0.167000
     38 H13         3.9990    0.3760    0.7060 h1        1 MQY      0.087200
     39 H13A        3.6160    0.4060    2.4930 h1        1 MQY      0.087200
     40 H14        -0.2280    0.9760    3.7830 hc        1 MQY      0.061367
     41 H14A        0.5750    2.2180    2.7260 hc        1 MQY      0.061367
     42 H14B        1.5710    1.2480    3.8900 hc        1 MQY      0.061367
     43 H19         3.8470   -1.6780   -0.5910 ha        1 MQY      0.163000
     44 H24         2.9740   -0.6240    4.0880 ha        1 MQY      0.128000
     45 H25         4.2730   -4.1600   -0.5260 h4        1 MQY      0.032100
     46 H30         3.9070   -5.5420    3.8680 ha        1 MQY      0.156000
     47 H31         2.9330   -2.0020    6.1450 ha        1 MQY      0.138000
     48 H32         3.3960   -4.4390    6.0450 ha        1 MQY      0.142000
@<TRIPOS>BOND
     1    1    2 1   
     2    1    3 1   
     3    1    4 1   
     4    2    5 ar  
     5    2    6 ar  
     6    3    7 1   
     7    3    8 2   
     8    4    9 1   
     9    4   10 2   
    10    5   11 ar  
    11    5   33 1   
    12    6   12 ar  
    13    6   34 1   
    14    7    9 1   
    15    7   13 1   
    16    9   14 1   
    17    9   35 1   
    18   11   15 ar  
    19   11   36 1   
    20   12   15 ar  
    21   12   37 1   
    22   13   16 1   
    23   13   38 1   
    24   13   39 1   
    25   14   40 1   
    26   14   41 1   
    27   14   42 1   
    28   15   17 1   
    29   16   18 ar  
    30   16   19 ar  
    31   17   20 1   
    32   17   21 2   
    33   17   22 2   
    34   18   23 ar  
    35   18   24 ar  
    36   19   25 ar  
    37   19   43 1   
    38   20   26 1   
    39   20   27 1   
    40   20   28 1   
    41   23   29 ar  
    42   23   30 ar  
    43   24   31 ar  
    44   24   44 1   
    45   25   29 ar  
    46   25   45 1   
    47   30   32 ar  
    48   30   46 1   
    49   31   32 ar  
    50   31   47 1   
    51   32   48 1   
@<TRIPOS>SUBSTRUCTURE
     1 MQY         1 TEMP              0 ****  ****    0 ROOT
