@<TRIPOS>MOLECULE
MQY
   48    44     1     0     0
SMALL
bcc


@<TRIPOS>ATOM
      1 N1         -1.2940    0.8700    0.4230 n         1 MQY     -0.303000
      2 C2         -2.1580    1.0470   -0.7270 c2        1 MQY      0.177000
      3 C3          0.0770    0.5170    0.3850 c2        1 MQY      0.387000
      4 C4         -1.6950    0.8900    1.7580 c2        1 MQY      0.309000
      5 C5         -2.6810   -0.1770   -1.1240 c2        1 MQY     -0.185000
      6 C6         -2.3790    2.1810   -1.5000 c1        1 MQY     -0.183000
      7 N7          0.6420    0.7700    1.6930 n         1 MQY     -0.279000
      8 O8          0.6830    0.1230   -0.5880 o         1 MQY     -0.317000
      9 C9         -0.4530    1.0100    2.6190 c3        1 MQY     -0.027000
     10 O10        -2.8410    0.8550    2.1590 o         1 MQY     -0.275000
     11 C11        -3.4260   -0.2680   -2.2960 c1        1 MQY      0.030000
     12 C12        -3.1240    2.0890   -2.6720 c1        1 MQY      0.030000
     13 C13         2.0520    0.7670    2.0260 c3        1 MQY     -0.002000
     14 C14        -0.3470    2.3450    3.3660 c3        1 MQY     -0.211000
     15 C15        -3.6470    0.8650   -3.0690 c1        1 MQY     -0.928000
     16 C16         2.7420   -0.4050    1.3200 c2        1 MQY     -0.093000
     17 S17        -4.7720    0.8380   -4.4590 s4        1 MQY      2.022800
     18 C18         3.3280   -1.5490    1.8530 c2        1 MQY     -0.067000
     19 C19         2.6090   -0.2740   -0.0330 c1        1 MQY     -0.156000
     20 C20        -3.8830    0.5080   -5.9650 c2        1 MQY     -0.098000
     21 O21        -5.8280   -0.1150   -4.2580 o         1 MQY     -0.486400
     22 O22        -5.5160    2.0650   -4.5520 o         1 MQY     -0.486400
     23 C23         3.7730   -2.5450    1.0180 c1        1 MQY     -0.004000
     24 C24         3.6460   -1.5860    3.2260 c1        1 MQY     -0.136000
     25 C25         3.0610   -1.2870   -0.8790 c1        1 MQY     -0.055000
     26 F26        -3.3400   -0.7130   -5.9040 f         1 MQY     -0.169333
     27 F27        -4.7280    0.5710   -7.0050 f         1 MQY     -0.169333
     28 F28        -2.9150    1.4210   -6.1210 f         1 MQY     -0.169333
     29 N29         3.6370   -2.4100   -0.3550 n1        1 MQY     -0.116000
     30 C30         4.5480   -3.6050    1.5340 c1        1 MQY     -0.089000
     31 C31         4.4100   -2.6310    3.7340 c1        1 MQY     -0.119500
     32 C32         4.8610   -3.6410    2.8870 c1        1 MQY     -0.119500
     33 H5         -2.5250   -0.9720   -0.5810 ha        1 MQY      0.179000
     34 H6         -2.0120    3.0410   -1.2210 ha        1 MQY      0.182000
     35 H9         -0.4570    0.3690    3.3570 h1        1 MQY      0.140000
     36 H11        -3.7930   -1.1300   -2.5750 ha        1 MQY      0.167000
     37 H12        -3.2800    2.8860   -3.2170 ha        1 MQY      0.167000
     38 H13         2.1580    0.6730    2.9960 h1        1 MQY      0.126500
     39 H13A        2.4570    1.6080    1.7340 h1        1 MQY      0.126500
     40 H14        -1.1710    2.5010    3.8770 hc        1 MQY      0.100667
     41 H14A        0.4170    2.3160    3.9780 hc        1 MQY      0.100667
     42 H14B       -0.2190    3.0720    2.7190 hc        1 MQY      0.100667
     43 H19         2.1970    0.5270   -0.4080 ha        1 MQY      0.163000
     44 H24         3.3300   -0.8790    3.8190 ha        1 MQY      0.128000
     45 H25         2.9660   -1.1930   -1.8460 ha        1 MQY      0.169000
     46 H30         4.8640   -4.3120    0.9420 ha        1 MQY      0.156000
     47 H31         4.6300   -2.6570    4.6860 ha        1 MQY      0.140000
     48 H32         5.3970   -4.3750    3.2450 ha        1 MQY      0.140000
@<TRIPOS>BOND
     1    1    2 1   
     2    1    3 1   
     3    1    4 1   
     4    2    5 1   
     5    2    6 1   
     6    3    7 1   
     7    3    8 1   
     8    4    9 1   
     9    4   10 1   
    10    5   11 1   
    11    5   33 1   
    12    6   34 1   
    13    7    9 1   
    14    7   13 1   
    15    9   14 1   
    16    9   35 1   
    17   11   36 1   
    18   12   15 1   
    19   12   37 1   
    20   13   16 1   
    21   13   38 1   
    22   13   39 1   
    23   14   40 1   
    24   14   41 1   
    25   14   42 1   
    26   15   17 1   
    27   16   18 1   
    28   16   19 1   
    29   17   21 1   
    30   17   22 1   
    31   18   23 1   
    32   18   24 1   
    33   19   43 1   
    34   20   26 1   
    35   20   27 1   
    36   20   28 1   
    37   23   30 1   
    38   24   44 1   
    39   25   29 1   
    40   25   45 1   
    41   30   46 1   
    42   31   32 1   
    43   31   47 1   
    44   32   48 1   
@<TRIPOS>SUBSTRUCTURE
     1 MQY         1 TEMP              0 ****  ****    0 ROOT
