@<TRIPOS>MOLECULE
MR0
   84    78     1     0     0
SMALL
bcc


@<TRIPOS>ATOM
      1 N1          0.6220   -0.1960    0.8100 n3        1 MR0     -0.362000
      2 C4         -1.5660    0.9590    0.0610 c1        1 MR0     -0.129333
      3 C5         -2.3310    1.7530   -0.9900 c2        1 MR0     -0.041333
      4 C6         -4.5840    2.8170   -1.8590 c1        1 MR0      0.342000
      5 C7         -4.3440    0.6440    2.9350 c1        1 MR0      0.344000
      6 C8         -0.0850    0.6300   -0.1550 c1        1 MR0      0.349000
      7 C10        -6.3250    4.4830   -1.1720 c3        1 MR0     -0.023500
      8 C13        -6.2250    5.4840   -2.3310 c3        1 MR0     -0.183500
      9 C15         2.0480   -0.2950    0.7570 c3        1 MR0      0.037000
     10 C17         2.6040   -0.2740    2.1590 c3        1 MR0     -0.139000
     11 C20         6.1550   -4.6660   -0.4310 c1        1 MR0     -0.062000
     12 C21         5.3140   -5.8180    0.0800 c1        1 MR0     -0.121500
     13 C22         5.7900   -7.2520   -0.1110 c1        1 MR0     -0.121500
     14 C24         7.9340   -6.3800   -1.3600 c1        1 MR0      0.077000
     15 C26         3.8750    3.4770    3.0770 c1        1 MR0      0.121000
     16 C28         2.7200    1.1630    2.6340 c2        1 MR0     -0.015000
     17 C          -3.7880    2.1030   -0.7620 c1        1 MR0     -0.129333
     18 C1         -4.4670    1.7150    0.5370 c2        1 MR0     -0.041333
     19 C2         -3.6950    0.9510    1.6000 c1        1 MR0     -0.129333
     20 C3         -2.2520    0.5500    1.3480 c2        1 MR0     -0.041333
     21 O          -4.0400    3.1320   -2.8920 o         1 MR0     -0.363000
     22 N          -5.9570    3.1460   -1.6450 n3        1 MR0     -0.323000
     23 C9         -6.9880    2.1420   -1.8630 c3        1 MR0     -0.023500
     24 C11        -7.4650    2.2110   -3.3080 c3        1 MR0     -0.183500
     25 C12        -8.5820    1.1940   -3.5250 c3        1 MR0     -0.211000
     26 C14        -6.7240    6.8870   -1.8520 c3        1 MR0     -0.211000
     27 O1          0.4780    1.0040   -1.1630 o         1 MR0     -0.373000
     28 C16         2.4390   -1.5910    0.0770 c3        1 MR0      0.010000
     29 C18         3.9500   -1.6760   -0.0130 c3        1 MR0     -0.112000
     30 N2          4.3350   -3.0170   -0.3650 n3        1 MR0     -0.312000
     31 C19         5.7480   -3.1990   -0.1010 c3        1 MR0     -0.035000
     32 C23         7.0900   -7.5310   -0.8490 c1        1 MR0     -0.198000
     33 C25         7.4610   -4.9460   -1.1700 c2        1 MR0     -0.150000
     34 O3          8.9300   -6.7020   -2.3470 o         1 MR0     -0.211000
     35 C27         3.4760    2.3730    2.1210 c2        1 MR0     -0.178000
     36 C29         2.3250    1.0800    4.0940 c1        1 MR0     -0.179000
     37 C30         2.7240    2.1840    5.0490 c1        1 MR0      0.119000
     38 C31         3.4840    3.3910    4.5380 c2        1 MR0     -0.209000
     39 O2          1.9520   -2.6770    0.8200 oh        1 MR0     -0.338000
     40 CO         10.1510   -7.2280   -1.7960 c3        1 MR0     -0.076000
     41 N7A        -5.6700    1.0510    3.1850 n3        1 MR0     -0.429000
     42 O7B        -3.7260    0.0320    3.7850 o         1 MR0     -0.369000
     43 F30         2.3910    2.1020    6.3440 f         1 MR0     -0.101000
     44 F26         4.5390    4.5420    2.6260 f         1 MR0     -0.100000
     45 HN1         0.1590   -0.6160    1.4790 hn        1 MR0      0.238000
     46 H5         -1.8840    2.0350   -1.8090 ha        1 MR0      0.162333
     47 H101       -5.7160    4.7540   -0.4540 h1        1 MR0      0.095000
     48 H102       -7.2410    4.4670   -0.8340 h1        1 MR0      0.095000
     49 H131       -6.7790    5.1780   -3.0740 hc        1 MR0      0.089500
     50 H132       -5.2940    5.5510   -2.6250 hc        1 MR0      0.089500
     51 H15         2.4090    0.4590    0.2530 h1        1 MR0      0.131000
     52 H171        3.4840   -0.6890    2.1660 hc        1 MR0      0.109000
     53 H172        2.0080   -0.7660    2.7540 hc        1 MR0      0.109000
     54 H21         4.4750   -5.6390    0.5570 ha        1 MR0      0.139500
     55 H22         5.2440   -7.9990    0.2200 ha        1 MR0      0.139500
     56 H1         -5.4110    1.9420    0.6840 ha        1 MR0      0.162333
     57 H3         -1.7640    0.0430    2.0200 ha        1 MR0      0.162333
     58 H91        -7.7360    2.3100   -1.2660 h1        1 MR0      0.095000
     59 H92        -6.6200    1.2480   -1.6820 h1        1 MR0      0.095000
     60 H111       -7.8010    3.1100   -3.4970 hc        1 MR0      0.089500
     61 H112       -6.7170    2.0090   -3.9090 hc        1 MR0      0.089500
     62 H121       -9.4010    1.5110   -3.0870 hc        1 MR0      0.076667
     63 H122       -8.3180    0.3310   -3.1410 hc        1 MR0      0.076667
     64 H123       -8.7450    1.0880   -4.4880 hc        1 MR0      0.076667
     65 H141       -6.2690    7.1280   -1.0110 hc        1 MR0      0.076667
     66 H142       -7.6950    6.8560   -1.7020 hc        1 MR0      0.076667
     67 H143       -6.5200    7.5640   -2.5440 hc        1 MR0      0.076667
     68 H16         2.0590   -1.6150   -0.8200 h1        1 MR0      0.089000
     69 H181        4.2720   -1.0550   -0.6960 h1        1 MR0      0.083500
     70 H182        4.3430   -1.4400    0.8540 h1        1 MR0      0.083500
     71 HN2         4.1710   -3.1580   -1.2510 hn        1 MR0      0.162000
     72 H191        5.9310   -3.0130    0.8470 h1        1 MR0      0.081500
     73 H192        6.2680   -2.5810   -0.6610 h1        1 MR0      0.081500
     74 H23         7.3960   -8.4570   -0.9720 ha        1 MR0      0.138000
     75 H25         8.0060   -4.2040   -1.5000 ha        1 MR0      0.149000
     76 H27         3.7270    2.4280    1.1840 ha        1 MR0      0.154000
     77 H29         1.8390    0.3090    4.4220 ha        1 MR0      0.153000
     78 H31         3.7410    4.1010    5.1540 ha        1 MR0      0.165000
     79 HO2         1.5590   -3.2510    0.2780 ho        1 MR0      0.223000
     80 HO1        10.6590   -6.5010   -1.3720 h1        1 MR0      0.084000
     81 HO2A        9.9390   -7.9100   -1.1290 h1        1 MR0      0.084000
     82 HO3        10.6930   -7.6300   -2.5190 h1        1 MR0      0.084000
     83 H7A1       -6.3480    0.4410    3.1550 hn        1 MR0      0.230500
     84 H7A2       -5.8430    1.9110    3.4360 hn        1 MR0      0.230500
@<TRIPOS>BOND
     1    1    6 1   
     2    1    9 1   
     3    1   45 1   
     4    2    3 1   
     5    2   20 1   
     6    3   17 1   
     7    3   46 1   
     8    4   21 1   
     9    4   22 1   
    10    5   41 1   
    11    5   42 1   
    12    6   27 1   
    13    7    8 1   
    14    7   22 1   
    15    7   47 1   
    16    7   48 1   
    17    8   26 1   
    18    8   49 1   
    19    8   50 1   
    20    9   10 1   
    21    9   28 1   
    22    9   51 1   
    23   10   16 1   
    24   10   52 1   
    25   10   53 1   
    26   11   31 1   
    27   11   33 1   
    28   12   13 1   
    29   12   54 1   
    30   13   55 1   
    31   14   32 1   
    32   14   33 1   
    33   15   35 1   
    34   15   38 1   
    35   16   35 1   
    36   16   36 1   
    37   17   18 1   
    38   18   19 1   
    39   18   56 1   
    40   19   20 1   
    41   20   57 1   
    42   22   23 1   
    43   23   24 1   
    44   23   58 1   
    45   23   59 1   
    46   24   25 1   
    47   24   60 1   
    48   24   61 1   
    49   25   62 1   
    50   25   63 1   
    51   25   64 1   
    52   26   65 1   
    53   26   66 1   
    54   26   67 1   
    55   28   29 1   
    56   28   39 1   
    57   28   68 1   
    58   29   30 1   
    59   29   69 1   
    60   29   70 1   
    61   30   31 1   
    62   30   71 1   
    63   31   72 1   
    64   31   73 1   
    65   32   74 1   
    66   33   75 1   
    67   34   40 1   
    68   35   76 1   
    69   36   77 1   
    70   37   38 1   
    71   37   43 1   
    72   38   78 1   
    73   39   79 1   
    74   40   80 1   
    75   40   81 1   
    76   40   82 1   
    77   41   83 1   
    78   41   84 1   
@<TRIPOS>SUBSTRUCTURE
     1 MR0         1 TEMP              0 ****  ****    0 ROOT
