@<TRIPOS>MOLECULE
MR0
   84    86     1     0     0
SMALL
bcc


@<TRIPOS>ATOM
      1 N1          0.3790    1.5190    4.3100 n         1 MR0     -0.554900
      2 C4         -0.8410    3.1470    2.9200 ca        1 MR0     -0.149600
      3 C5         -1.8990    2.3070    2.5620 ca        1 MR0     -0.049000
      4 C8          0.4350    2.6310    3.4930 c         1 MR0      0.684700
      5 C10        -5.6050    2.7590    3.4560 c3        1 MR0      0.088000
      6 C13        -5.3310    2.0270    4.7730 c3        1 MR0     -0.099400
      7 C15         1.5760    0.9420    4.8730 c3        1 MR0      0.069700
      8 C17         1.3220    0.2700    6.2330 c3        1 MR0     -0.048100
      9 C20         2.1020   -4.3170    1.4730 ca        1 MR0     -0.063300
     10 C21         3.2850   -4.9280    1.9080 ca        1 MR0     -0.144000
     11 C22         3.9470   -5.8330    1.0830 ca        1 MR0     -0.101000
     12 C24         2.2620   -5.5320   -0.6100 ca        1 MR0      0.121100
     13 C26         1.7070    3.0580    8.7700 ca        1 MR0      0.157900
     14 C28         1.0060    1.2630    7.2980 ca        1 MR0     -0.028300
     15 C          -3.0690    2.8560    2.0280 ca        1 MR0     -0.139600
     16 C1         -3.1740    4.2320    1.8210 ca        1 MR0     -0.034000
     17 C2         -2.1010    5.0680    2.1550 ca        1 MR0     -0.152600
     18 C3         -0.9400    4.5290    2.7110 ca        1 MR0     -0.041000
     19 O          -3.9790    1.1420    0.6560 o         1 MR0     -0.593100
     20 N          -5.3820    1.9730    2.2670 n         1 MR0     -0.468800
     21 C9         -6.4560    1.0950    1.8490 c3        1 MR0      0.088000
     22 C11        -7.5510    1.7850    1.0310 c3        1 MR0     -0.099400
     23 C12        -8.6260    0.7930    0.6710 c3        1 MR0     -0.094100
     24 C14        -5.6260    2.9340    5.9390 c3        1 MR0     -0.094100
     25 O1          1.5200    3.2160    3.2840 o         1 MR0     -0.621100
     26 C16         2.3010   -0.0550    3.9280 c3        1 MR0      0.119100
     27 C18         1.4470   -1.2940    3.6040 c3        1 MR0      0.169800
     28 N2          2.2050   -2.3260    2.9260 n3        1 MR0     -0.822200
     29 C19         1.3610   -3.3690    2.3700 c3        1 MR0      0.208100
     30 C23         3.4440   -6.1460   -0.1810 ca        1 MR0     -0.200000
     31 C25         1.5850   -4.6120    0.2130 ca        1 MR0     -0.150000
     32 O3          1.6610   -5.7600   -1.8340 os        1 MR0     -0.327900
     33 C27         2.0020    2.1320    7.7540 ca        1 MR0     -0.179500
     34 C29        -0.2750    1.3090    7.8520 ca        1 MR0     -0.179500
     35 C30        -0.5620    2.2390    8.8680 ca        1 MR0      0.157900
     36 C31         0.4230    3.1220    9.3370 ca        1 MR0     -0.206000
     37 O2          2.6160    0.5430    2.6810 oh        1 MR0     -0.606800
     38 CO          2.3340   -6.6610   -2.7040 c3        1 MR0      0.113700
     39 N7A        -1.1610    7.2520    1.5270 n         1 MR0     -0.667000
     40 O7B        -3.3620    7.1010    2.0800 o         1 MR0     -0.609100
     41 F30        -1.8060    2.2820    9.4020 f         1 MR0     -0.133400
     42 HN1        -0.4590    0.9940    4.3740 hn        1 MR0      0.313500
     43 H5         -1.8230    1.2120    2.6650 ha        1 MR0      0.149000
     44 H101       -6.6830    3.0940    3.4510 h1        1 MR0      0.059200
     45 H102       -4.9640    3.6860    3.4220 h1        1 MR0      0.059200
     46 H131       -5.9660    1.1050    4.8400 hc        1 MR0      0.045200
     47 H132       -4.2600    1.6980    4.8110 hc        1 MR0      0.045200
     48 H15         2.3040    1.7990    5.0410 h1        1 MR0      0.086700
     49 H171        0.4900   -0.4800    6.1520 hc        1 MR0      0.066200
     50 H172        2.2530   -0.2920    6.5170 hc        1 MR0      0.066200
     51 H21         3.6890   -4.6890    2.9030 ha        1 MR0      0.146000
     52 H22         4.8770   -6.3090    1.4270 ha        1 MR0      0.132000
     53 H1         -4.0920    4.6730    1.3960 ha        1 MR0      0.170000
     54 H3         -0.0860    5.1690    2.9940 ha        1 MR0      0.164000
     55 H91        -6.9230    0.6440    2.7720 h1        1 MR0      0.059200
     56 H92        -6.0230    0.2560    1.2310 h1        1 MR0      0.059200
     57 H111       -7.9960    2.6310    1.6160 hc        1 MR0      0.045200
     58 H112       -7.1080    2.2190    0.0970 hc        1 MR0      0.045200
     59 H121       -9.0930    0.3620    1.5900 hc        1 MR0      0.037700
     60 H122       -9.4250    1.2940    0.0720 hc        1 MR0      0.037700
     61 H123       -8.2050   -0.0450    0.0650 hc        1 MR0      0.037700
     62 H141       -6.6960    3.2520    5.9330 hc        1 MR0      0.037700
     63 H142       -5.4220    2.4030    6.9010 hc        1 MR0      0.037700
     64 H143       -4.9880    3.8500    5.9010 hc        1 MR0      0.037700
     65 H16         3.2600   -0.3610    4.4370 h1        1 MR0      0.055700
     66 H181        0.5500   -0.9560    3.0050 h1        1 MR0      0.032200
     67 H182        1.0720   -1.7360    4.5700 h1        1 MR0      0.032200
     68 HN2         2.7900   -1.9210    2.2160 hn        1 MR0      0.381800
     69 H191        0.4780   -2.9420    1.8050 h1        1 MR0      0.038200
     70 H192        0.9440   -3.9570    3.2390 h1        1 MR0      0.038200
     71 H23         3.9770   -6.8620   -0.8200 ha        1 MR0      0.136000
     72 H25         0.6610   -4.1420   -0.1540 ha        1 MR0      0.150000
     73 H27         3.0140    2.1000    7.3260 ha        1 MR0      0.152500
     74 H29        -1.0640    0.6270    7.5060 ha        1 MR0      0.152500
     75 H31         0.1960    3.8470   10.1310 ha        1 MR0      0.168000
     76 HO2         2.8970    1.4540    2.8480 ho        1 MR0      0.428000
     77 HO1         3.3550   -6.2830   -2.9530 h1        1 MR0      0.043700
     78 HO2A        1.6860   -6.6750   -3.6170 h1        1 MR0      0.043700
     79 HO3         2.3940   -7.6790   -2.2480 h1        1 MR0      0.043700
     80 H7A1       -0.3000    6.8080    1.3350 hn        1 MR0      0.318000
     81 H7A2       -1.2560    8.2190    1.3420 hn        1 MR0      0.318000
     82 F26         2.6720    3.8990    9.2100 f         1 MR0     -0.133400
     83 C6         -4.1670    1.9330    1.6030 c         1 MR0      0.669700
     84 C7         -2.2600    6.5330    1.9240 c         1 MR0      0.671700
@<TRIPOS>BOND
     1    1    4 1   
     2    1    7 1   
     3    1   42 1   
     4    2    3 ar  
     5    2    4 1   
     6    2   18 ar  
     7    3   15 ar  
     8    3   43 1   
     9    4   25 2   
    10    5    6 1   
    11    5   20 1   
    12    5   44 1   
    13    5   45 1   
    14    6   24 1   
    15    6   46 1   
    16    6   47 1   
    17    7    8 1   
    18    7   26 1   
    19    7   48 1   
    20    8   14 1   
    21    8   49 1   
    22    8   50 1   
    23    9   10 ar  
    24    9   29 1   
    25    9   31 ar  
    26   10   11 ar  
    27   10   51 1   
    28   11   30 ar  
    29   11   52 1   
    30   12   30 ar  
    31   12   31 ar  
    32   12   32 1   
    33   13   33 ar  
    34   13   36 ar  
    35   13   82 1   
    36   14   33 ar  
    37   14   34 ar  
    38   15   16 ar  
    39   15   83 1   
    40   16   17 ar  
    41   16   53 1   
    42   17   18 ar  
    43   17   84 1   
    44   18   54 1   
    45   19   83 2   
    46   20   21 1   
    47   20   83 1   
    48   21   22 1   
    49   21   55 1   
    50   21   56 1   
    51   22   23 1   
    52   22   57 1   
    53   22   58 1   
    54   23   59 1   
    55   23   60 1   
    56   23   61 1   
    57   24   62 1   
    58   24   63 1   
    59   24   64 1   
    60   26   27 1   
    61   26   37 1   
    62   26   65 1   
    63   27   28 1   
    64   27   66 1   
    65   27   67 1   
    66   28   29 1   
    67   28   68 1   
    68   29   69 1   
    69   29   70 1   
    70   30   71 1   
    71   31   72 1   
    72   32   38 1   
    73   33   73 1   
    74   34   35 ar  
    75   34   74 1   
    76   35   36 ar  
    77   35   41 1   
    78   36   75 1   
    79   37   76 1   
    80   38   77 1   
    81   38   78 1   
    82   38   79 1   
    83   39   80 1   
    84   39   81 1   
    85   39   84 1   
    86   40   84 2   
@<TRIPOS>SUBSTRUCTURE
     1 MR0         1 TEMP              0 ****  ****    0 ROOT
