@<TRIPOS>MOLECULE
MR0
   88    90     1     0     0
SMALL
bcc


@<TRIPOS>ATOM
      1 N1         -0.0490   -1.1580   -0.1170 n4        1 MR0     -0.670800
      2 C4         -2.2530    0.1350   -0.4410 ca        1 MR0     -0.176600
      3 C5         -2.9790   -0.6260    0.4790 ca        1 MR0      0.025000
      4 C8         -0.9060   -0.2340   -0.9400 c         1 MR0      0.568700
      5 C10        -6.6600   -0.0180    3.3270 c3        1 MR0      0.111800
      6 C13        -6.2240   -0.5420    4.6890 c3        1 MR0     -0.101400
      7 C15         1.4420   -0.8850   -0.2440 c3        1 MR0      0.109500
      8 C17         2.1390   -1.0310    1.1160 c3        1 MR0     -0.063100
      9 C20         4.5840   -5.9150   -2.5130 ca        1 MR0     -0.184300
     10 C21         5.9780   -6.0020   -2.5940 ca        1 MR0     -0.123000
     11 C22         6.5620   -6.7630   -3.6100 ca        1 MR0     -0.071000
     12 C24         4.3720   -7.3180   -4.4730 ca        1 MR0      0.159100
     13 C26         1.6670    2.0310    3.3010 ca        1 MR0      0.197400
     14 C28         1.5870   -0.0930    2.1330 ca        1 MR0     -0.105300
     15 C          -4.2660   -0.2160    0.8850 ca        1 MR0     -0.160600
     16 C1         -4.8130    0.9570    0.3680 ca        1 MR0      0.029000
     17 C2         -4.0900    1.7190   -0.5790 ca        1 MR0     -0.171600
     18 C3         -2.8190    1.3100   -0.9810 ca        1 MR0      0.025000
     19 O          -4.2980   -1.9100    2.5520 o         1 MR0     -0.390100
     20 N          -6.3960   -0.9430    2.1600 n4        1 MR0     -0.580200
     21 C9         -7.0210   -2.3100    2.3610 c3        1 MR0      0.111800
     22 C11        -8.5430   -2.2690    2.4320 c3        1 MR0     -0.101400
     23 C12        -9.0670   -3.6870    2.4450 c3        1 MR0     -0.108600
     24 C14        -6.3400    0.5700    5.7050 c3        1 MR0     -0.108600
     25 O1         -0.4260    0.1710   -1.9920 o         1 MR0     -0.404100
     26 C16         2.1410   -1.7350   -1.3480 c3        1 MR0      0.107100
     27 C18         2.7490   -3.0590   -0.8340 c3        1 MR0      0.094800
     28 N2          3.4040   -3.8500   -1.9060 n4        1 MR0     -0.775000
     29 C19         3.9460   -5.1770   -1.3950 c3        1 MR0      0.196100
     30 C23         5.7750   -7.4200   -4.5500 ca        1 MR0     -0.132000
     31 C25         3.7720   -6.5670   -3.4480 ca        1 MR0     -0.166000
     32 O3          3.4950   -7.9010   -5.3490 os        1 MR0     -0.322900
     33 C27         2.1400    1.1760    2.2800 ca        1 MR0     -0.217500
     34 C29         0.5540   -0.5230    2.9750 ca        1 MR0     -0.217500
     35 C30         0.0740    0.3410    3.9780 ca        1 MR0      0.197400
     36 C31         0.6270    1.6210    4.1540 ca        1 MR0     -0.178000
     37 O2          1.2080   -2.0910   -2.3500 oh        1 MR0     -0.624800
     38 CO          4.0520   -8.7830   -6.3300 c3        1 MR0      0.103700
     39 N7A        -4.3410    3.6100   -2.3180 n4        1 MR0     -0.747400
     40 O7B        -5.6580    3.5290   -0.4280 o         1 MR0     -0.344100
     41 F30        -0.9380   -0.0710    4.7710 f         1 MR0     -0.093900
     42 HN1        -0.2270   -2.1200   -0.4430 hn        1 MR0      0.481300
     43 H5         -2.5760   -1.5640    0.9100 ha        1 MR0      0.185000
     44 H101       -6.1330    0.9520    3.1010 hx        1 MR0      0.109700
     45 H102       -7.7770    0.1640    3.3410 hx        1 MR0      0.109700
     46 H131       -5.1670   -0.9180    4.6530 hc        1 MR0      0.074200
     47 H132       -6.8820   -1.3980    5.0030 hc        1 MR0      0.074200
     48 H15         1.5310    0.2000   -0.5680 hx        1 MR0      0.130700
     49 H171        3.2310   -0.8020    0.9510 hc        1 MR0      0.104200
     50 H172        2.0650   -2.0870    1.4930 hc        1 MR0      0.104200
     51 H21         6.6190   -5.5040   -1.8520 ha        1 MR0      0.147000
     52 H22         7.6620   -6.8490   -3.6630 ha        1 MR0      0.179000
     53 H1         -5.8030    1.3340    0.6950 ha        1 MR0      0.194000
     54 H3         -2.2260    1.8890   -1.7150 ha        1 MR0      0.182000
     55 H91        -6.5950   -2.7440    3.3120 hx        1 MR0      0.109700
     56 H92        -6.6950   -2.9500    1.4920 hx        1 MR0      0.109700
     57 H111       -8.9700   -1.7210    1.5510 hc        1 MR0      0.074200
     58 H112       -8.8770   -1.7430    3.3660 hc        1 MR0      0.074200
     59 H121      -10.1840   -3.6650    2.5260 hc        1 MR0      0.073867
     60 H122       -8.6670   -4.2560    3.3190 hc        1 MR0      0.073867
     61 H123       -8.7950   -4.2280    1.5070 hc        1 MR0      0.073867
     62 H141       -5.6600    1.4200    5.4560 hc        1 MR0      0.073867
     63 H142       -7.3890    0.9530    5.7660 hc        1 MR0      0.073867
     64 H143       -6.0580    0.1780    6.7150 hc        1 MR0      0.073867
     65 H16         2.9660   -1.0820   -1.7610 h1        1 MR0      0.113700
     66 H181        3.5280   -2.8340   -0.0470 hx        1 MR0      0.114700
     67 H182        1.9410   -3.7000   -0.3800 hx        1 MR0      0.114700
     68 HN2         4.1840   -3.3200   -2.3160 hn        1 MR0      0.462800
     69 H191        4.6840   -4.9490   -0.5730 hx        1 MR0      0.107700
     70 H192        3.0720   -5.7510   -0.9730 hx        1 MR0      0.107700
     71 H23         6.2510   -8.0220   -5.3430 ha        1 MR0      0.182000
     72 H25         2.6750   -6.5380   -3.3820 ha        1 MR0      0.139000
     73 H27         2.9770    1.5170    1.6490 ha        1 MR0      0.159000
     74 H29         0.1880   -1.5610    2.9530 ha        1 MR0      0.159000
     75 H31         0.2800    2.2780    4.9710 ha        1 MR0      0.209000
     76 HO2         1.2070   -1.4030   -3.0370 ho        1 MR0      0.467000
     77 HO1         4.7130   -8.2160   -7.0290 h1        1 MR0      0.070367
     78 HO2A        3.1440   -9.1670   -6.8640 h1        1 MR0      0.070367
     79 HO3         4.6060   -9.6180   -5.8370 h1        1 MR0      0.070367
     80 H7A1       -4.3890    2.9420   -3.0970 hn        1 MR0      0.494133
     81 H7A2       -4.9860    4.4000   -2.5230 hn        1 MR0      0.494133
     82 C6         -4.9290   -1.0770    1.9090 c         1 MR0      0.542700
     83 C7         -4.7530    2.9650   -1.0260 c         1 MR0      0.545700
     84 H12        -0.3070   -1.0730    0.8820 hn        1 MR0      0.481300
     85 HN11       -6.8410   -0.5270    1.3320 hn        1 MR0      0.444800
     86 H221        2.7300   -4.0430   -2.6620 hn        1 MR0      0.462800
     87 H7A3       -3.3880    3.9890   -2.2520 hn        1 MR0      0.494133
     88 F26         2.2150    3.2510    3.4490 f         1 MR0     -0.093900
@<TRIPOS>BOND
     1    1    4 1   
     2    1    7 1   
     3    1   42 1   
     4    1   84 1   
     5    2    3 ar  
     6    2    4 1   
     7    2   18 ar  
     8    3   15 ar  
     9    3   43 1   
    10    4   25 2   
    11    5    6 1   
    12    5   20 1   
    13    5   44 1   
    14    5   45 1   
    15    6   24 1   
    16    6   46 1   
    17    6   47 1   
    18    7    8 1   
    19    7   26 1   
    20    7   48 1   
    21    8   14 1   
    22    8   49 1   
    23    8   50 1   
    24    9   10 ar  
    25    9   29 1   
    26    9   31 ar  
    27   10   11 ar  
    28   10   51 1   
    29   11   30 ar  
    30   11   52 1   
    31   12   30 ar  
    32   12   31 ar  
    33   12   32 1   
    34   13   33 ar  
    35   13   36 ar  
    36   13   88 1   
    37   14   33 ar  
    38   14   34 ar  
    39   15   16 ar  
    40   15   82 1   
    41   16   17 ar  
    42   16   53 1   
    43   17   18 ar  
    44   17   83 1   
    45   18   54 1   
    46   19   82 2   
    47   20   21 1   
    48   20   82 1   
    49   20   85 1   
    50   21   22 1   
    51   21   55 1   
    52   21   56 1   
    53   22   23 1   
    54   22   57 1   
    55   22   58 1   
    56   23   59 1   
    57   23   60 1   
    58   23   61 1   
    59   24   62 1   
    60   24   63 1   
    61   24   64 1   
    62   26   27 1   
    63   26   37 1   
    64   26   65 1   
    65   27   28 1   
    66   27   66 1   
    67   27   67 1   
    68   28   29 1   
    69   28   68 1   
    70   28   86 1   
    71   29   69 1   
    72   29   70 1   
    73   30   71 1   
    74   31   72 1   
    75   32   38 1   
    76   33   73 1   
    77   34   35 ar  
    78   34   74 1   
    79   35   36 ar  
    80   35   41 1   
    81   36   75 1   
    82   37   76 1   
    83   38   77 1   
    84   38   78 1   
    85   38   79 1   
    86   39   80 1   
    87   39   81 1   
    88   39   83 1   
    89   39   87 1   
    90   40   83 2   
@<TRIPOS>SUBSTRUCTURE
     1 MR0         1 TEMP              0 ****  ****    0 ROOT
