@<TRIPOS>MOLECULE
MR1
   21    22     1     0     0
SMALL
bcc


@<TRIPOS>ATOM
      1 C36        -0.0360    0.0280   -0.0210 ca        1 MR1     -0.108000
      2 C35         1.3390    0.0170   -0.0080 ca        1 MR1      0.070100
      3 O39         2.1950    0.0590    1.0790 os        1 MR1     -0.317900
      4 C38         3.5480    0.0020    0.5560 c3        1 MR1      0.319200
      5 O37         3.4480   -0.0510   -0.8940 os        1 MR1     -0.306900
      6 C34         2.1070   -0.0490   -1.2100 ca        1 MR1      0.121100
      7 C33         1.5080   -0.1030   -2.4540 ca        1 MR1     -0.117000
      8 C32         0.1020   -0.0850   -2.4720 ca        1 MR1     -0.076000
      9 C31        -0.6490   -0.0210   -1.2970 ca        1 MR1     -0.211300
     10 C30        -2.1330   -0.0500   -1.3640 c3        1 MR1      0.181100
     11 N          -2.7010    1.3360   -1.2210 n4        1 MR1     -0.846600
     12 H36        -0.6220    0.0480    0.9080 ha        1 MR1      0.159000
     13 H381        4.0800    0.9430    0.8400 h2        1 MR1      0.100200
     14 H382        4.0310   -0.9410    0.9130 h2        1 MR1      0.100200
     15 H33         2.0950   -0.1630   -3.3820 ha        1 MR1      0.185000
     16 H32        -0.4050   -0.1420   -3.4490 ha        1 MR1      0.147000
     17 H301       -2.4930   -0.4630   -2.3510 hx        1 MR1      0.113200
     18 H302       -2.5630   -0.6750   -0.5270 hx        1 MR1      0.113200
     19 HN1        -2.3700    1.9290   -1.9880 hn        1 MR1      0.457467
     20 HN2        -3.7240    1.3060   -1.2330 hn        1 MR1      0.457467
     21 HN3        -2.3830    1.7480   -0.3370 hn        1 MR1      0.457467
@<TRIPOS>BOND
     1    1    2 ar  
     2    1    9 ar  
     3    1   12 1   
     4    2    3 1   
     5    2    6 ar  
     6    3    4 1   
     7    4    5 1   
     8    4   13 1   
     9    4   14 1   
    10    5    6 1   
    11    6    7 ar  
    12    7    8 ar  
    13    7   15 1   
    14    8    9 ar  
    15    8   16 1   
    16    9   10 1   
    17   10   11 1   
    18   10   17 1   
    19   10   18 1   
    20   11   19 1   
    21   11   20 1   
    22   11   21 1   
@<TRIPOS>SUBSTRUCTURE
     1 MR1         1 TEMP              0 ****  ****    0 ROOT
