@<TRIPOS>MOLECULE
MR1
   20    21     1     0     0
SMALL
bcc


@<TRIPOS>ATOM
      1 C36        -1.3290    0.4110    1.5180 ca        1 MR1     -0.113000
      2 C35        -1.4840    0.9920    2.7580 ca        1 MR1      0.057100
      3 O39        -2.6160    1.0330    3.5660 os        1 MR1     -0.334900
      4 C38        -2.2490    1.7570    4.7630 c3        1 MR1      0.321200
      5 O37        -0.8620    2.1490    4.6390 os        1 MR1     -0.333900
      6 C34        -0.4180    1.6700    3.4100 ca        1 MR1      0.056100
      7 C33         0.8300    1.7840    2.8360 ca        1 MR1     -0.112000
      8 C32         0.9880    1.1940    1.5680 ca        1 MR1     -0.122000
      9 C31        -0.0530    0.5270    0.9240 ca        1 MR1     -0.131300
     10 C30         0.1700   -0.1020   -0.4250 c3        1 MR1      0.198100
     11 N          -0.6170    0.4190   -1.5130 n3        1 MR1     -0.901800
     12 H36        -2.1490   -0.1220    1.0200 ha        1 MR1      0.154000
     13 H381       -2.3490    1.0710    5.6400 h2        1 MR1      0.072700
     14 H382       -2.8760    2.6800    4.8270 h2        1 MR1      0.072700
     15 H33         1.6570    2.3040    3.3360 ha        1 MR1      0.156000
     16 H32         1.9720    1.2650    1.0790 ha        1 MR1      0.140000
     17 H301        1.2570    0.0000   -0.7080 h1        1 MR1      0.060700
     18 H302       -0.0550   -1.2050   -0.3370 h1        1 MR1      0.060700
     19 HN1        -0.4030    1.3820   -1.6830 hn        1 MR1      0.348800
     20 HN2        -1.5960    0.3370   -1.3200 hn        1 MR1      0.348800
@<TRIPOS>BOND
     1    1    2 ar  
     2    1    9 ar  
     3    1   12 1   
     4    2    3 1   
     5    2    6 ar  
     6    3    4 1   
     7    4    5 1   
     8    4   13 1   
     9    4   14 1   
    10    5    6 1   
    11    6    7 ar  
    12    7    8 ar  
    13    7   15 1   
    14    8    9 ar  
    15    8   16 1   
    16    9   10 1   
    17   10   11 1   
    18   10   17 1   
    19   10   18 1   
    20   11   19 1   
    21   11   20 1   
@<TRIPOS>SUBSTRUCTURE
     1 MR1         1 TEMP              0 ****  ****    0 ROOT
