@<TRIPOS>MOLECULE
MR1
   20    19     1     0     0
SMALL
bcc


@<TRIPOS>ATOM
      1 C36        -0.3520    0.1810    0.9620 c1        1 MR1     -0.104000
      2 C35         1.0480    0.1460    0.9070 c1        1 MR1      0.010000
      3 O39         2.0440    0.1410    1.9280 os        1 MR1     -0.217000
      4 C38         3.3000    0.1640    1.3080 c3        1 MR1      0.099000
      5 O37         3.0970    0.0880   -0.0770 os        1 MR1     -0.217000
      6 C34         1.6910    0.1130   -0.3180 c2        1 MR1      0.011000
      7 C33         0.9430    0.1130   -1.5020 c2        1 MR1     -0.111000
      8 C32        -0.4460    0.1470   -1.4470 c1        1 MR1     -0.130000
      9 C31        -1.0940    0.1810   -0.2130 c1        1 MR1     -0.124000
     10 C30        -2.6030    0.2710   -0.1550 c3        1 MR1     -0.047000
     11 N          -3.1650   -1.0240   -0.3530 n3        1 MR1     -0.333000
     12 H36        -0.8060    0.2050    1.8260 ha        1 MR1      0.156000
     13 H381        3.7490    1.0100    1.5210 h2        1 MR1      0.112000
     14 H382        3.8190   -0.6150    1.6010 h2        1 MR1      0.112000
     15 H33         1.3960    0.0890   -2.3670 ha        1 MR1      0.156000
     16 H32        -0.9670    0.1470   -2.2720 ha        1 MR1      0.137000
     17 H301       -2.8760    0.6150    0.7210 h1        1 MR1      0.100500
     18 H302       -2.9210    0.8770   -0.8560 h1        1 MR1      0.100500
     19 HN1        -2.6270   -1.6540    0.0380 hn        1 MR1      0.143500
     20 HN2        -3.2310   -1.1940   -1.2510 hn        1 MR1      0.143500
@<TRIPOS>BOND
     1    1    9 1   
     2    1   12 1   
     3    2    3 1   
     4    2    6 1   
     5    3    4 1   
     6    4    5 1   
     7    4   13 1   
     8    4   14 1   
     9    5    6 1   
    10    6    7 1   
    11    7    8 1   
    12    7   15 1   
    13    8   16 1   
    14    9   10 1   
    15   10   11 1   
    16   10   17 1   
    17   10   18 1   
    18   11   19 1   
    19   11   20 1   
@<TRIPOS>SUBSTRUCTURE
     1 MR1         1 TEMP              0 ****  ****    0 ROOT
