@<TRIPOS>MOLECULE
MR1
   21    22     1     0     0
SMALL
bcc


@<TRIPOS>ATOM
      1 C36        -0.0350    0.0180   -0.0220 ca        1 MR1     -0.108000
      2 C35         1.3400    0.0120   -0.0100 ca        1 MR1      0.070100
      3 O39         2.1950    0.0470    1.0780 os        1 MR1     -0.317900
      4 C38         3.5490    0.0010    0.5540 c3        1 MR1      0.319200
      5 O37         3.4490   -0.0370   -0.8960 os        1 MR1     -0.306900
      6 C34         2.1070   -0.0370   -1.2130 ca        1 MR1      0.121100
      7 C33         1.5090   -0.0810   -2.4570 ca        1 MR1     -0.117000
      8 C32         0.1030   -0.0700   -2.4750 ca        1 MR1     -0.076000
      9 C31        -0.6480   -0.0210   -1.2990 ca        1 MR1     -0.211300
     10 C30        -2.1320   -0.0560   -1.3660 c3        1 MR1      0.181100
     11 N          -2.7060    1.3260   -1.2110 n4        1 MR1     -0.846600
     12 H36        -0.6210    0.0260    0.9060 ha        1 MR1      0.159000
     13 H381        4.0360   -0.9440    0.9010 h2        1 MR1      0.100200
     14 H382        4.0770    0.9410    0.8480 h2        1 MR1      0.100200
     15 H33         2.0960   -0.1290   -3.3860 ha        1 MR1      0.185000
     16 H32        -0.4040   -0.1190   -3.4520 ha        1 MR1      0.147000
     17 H301       -2.5590   -0.6900   -0.5350 hx        1 MR1      0.113200
     18 H302       -2.4900   -0.4620   -2.3570 hx        1 MR1      0.113200
     19 HN1        -2.3900    1.7320   -0.3240 hn        1 MR1      0.457467
     20 HN2        -2.3780    1.9270   -1.9740 hn        1 MR1      0.457467
     21 HN3        -3.7290    1.2920   -1.2230 hn        1 MR1      0.457467
@<TRIPOS>BOND
     1    1    2 ar  
     2    1    9 ar  
     3    1   12 1   
     4    2    3 1   
     5    2    6 ar  
     6    3    4 1   
     7    4    5 1   
     8    4   13 1   
     9    4   14 1   
    10    5    6 1   
    11    6    7 ar  
    12    7    8 ar  
    13    7   15 1   
    14    8    9 ar  
    15    8   16 1   
    16    9   10 1   
    17   10   11 1   
    18   10   17 1   
    19   10   18 1   
    20   11   19 1   
    21   11   20 1   
    22   11   21 1   
@<TRIPOS>SUBSTRUCTURE
     1 MR1         1 TEMP              0 ****  ****    0 ROOT
