@<TRIPOS>MOLECULE
MR1
   21    22     1     0     0
SMALL
bcc


@<TRIPOS>ATOM
      1 C36        -0.0340    0.0240   -0.0210 ca        1 MR1     -0.108000
      2 C35         1.3410    0.0140   -0.0110 ca        1 MR1      0.070100
      3 O39         2.2000    0.0530    1.0740 os        1 MR1     -0.317900
      4 C38         3.5520   -0.0010    0.5470 c3        1 MR1      0.319200
      5 O37         3.4480   -0.0470   -0.9030 os        1 MR1     -0.306900
      6 C34         2.1060   -0.0450   -1.2160 ca        1 MR1      0.121100
      7 C33         1.5040   -0.0950   -2.4590 ca        1 MR1     -0.117000
      8 C32         0.0980   -0.0790   -2.4730 ca        1 MR1     -0.076000
      9 C31        -0.6500   -0.0210   -1.2950 ca        1 MR1     -0.211300
     10 C30        -2.1340   -0.0510   -1.3590 c3        1 MR1      0.181100
     11 N          -2.7030    1.3330   -1.2110 nz        1 MR1     -0.846600
     12 H36        -0.6170    0.0400    0.9090 ha        1 MR1      0.159000
     13 H381        4.0840    0.9400    0.8340 h2        1 MR1      0.100200
     14 H382        4.0370   -0.9450    0.8990 h2        1 MR1      0.100200
     15 H33         2.0890   -0.1500   -3.3880 ha        1 MR1      0.185000
     16 H32        -0.4110   -0.1320   -3.4490 ha        1 MR1      0.147000
     17 H301       -2.4960   -0.4610   -2.3460 hx        1 MR1      0.113200
     18 H302       -2.5610   -0.6790   -0.5220 hx        1 MR1      0.113200
     19 HN1        -2.3750    1.9290   -1.9770 hn        1 MR1      0.457467
     20 HN2        -3.7260    1.3030   -1.2200 hn        1 MR1      0.457467
     21 HN3        -2.3840    1.7440   -0.3270 hn        1 MR1      0.457467
@<TRIPOS>BOND
     1    1    2 ar  
     2    1    9 ar  
     3    1   12 1   
     4    2    3 1   
     5    2    6 ar  
     6    3    4 1   
     7    4    5 1   
     8    4   13 1   
     9    4   14 1   
    10    5    6 1   
    11    6    7 ar  
    12    7    8 ar  
    13    7   15 1   
    14    8    9 ar  
    15    8   16 1   
    16    9   10 1   
    17   10   11 1   
    18   10   17 1   
    19   10   18 1   
    20   11   19 1   
    21   11   20 1   
    22   11   21 1   
@<TRIPOS>SUBSTRUCTURE
     1 MR1         1 TEMP              0 ****  ****    0 ROOT
