@<TRIPOS>MOLECULE
MR2
   46    50     1     0     0
SMALL
bcc


@<TRIPOS>ATOM
      1 C1          0.0220    0.1860   -0.0520 c         1 MR2      0.737200
      2 C2          1.4760   -0.0050   -0.0540 ca        1 MR2     -0.155600
      3 C3          2.1700   -0.1020    1.1330 ca        1 MR2     -0.040000
      4 C4          3.5800   -0.1740    1.1110 ca        1 MR2     -0.131000
      5 C5          4.2690   -0.1210   -0.0770 ca        1 MR2     -0.086000
      6 C6          3.5800   -0.0280   -1.3200 ca        1 MR2     -0.004000
      7 C7          4.2240    0.0620   -2.5950 ca        1 MR2     -0.150200
      8 C8          3.4850    0.1780   -3.7620 ca        1 MR2     -0.060000
      9 C9          2.0770    0.1420   -3.7190 ca        1 MR2     -0.121000
     10 C10         1.4130    0.0250   -2.5170 ca        1 MR2     -0.055300
     11 C11         2.1590   -0.0060   -1.3040 ca        1 MR2     -0.006000
     12 C12        -0.0940   -0.1270   -2.4670 c3        1 MR2      0.328700
     13 C13        -0.4930   -1.5870   -2.5730 ca        1 MR2     -0.148300
     14 C14        -1.7030   -2.0020   -1.9930 ca        1 MR2     -0.069500
     15 C15        -2.1160   -3.3250   -2.0740 ca        1 MR2     -0.189750
     16 C16        -1.3070   -4.2530   -2.7520 ca        1 MR2      0.138600
     17 C17        -0.1000   -3.8530   -3.3410 ca        1 MR2     -0.189750
     18 C18         0.2970   -2.5220   -3.2470 ca        1 MR2     -0.069500
     19 C19        -0.7500    0.7040   -3.5530 ca        1 MR2     -0.148300
     20 C20        -1.0430    0.1410   -4.7990 ca        1 MR2     -0.069500
     21 C21        -1.6330    0.9070   -5.8000 ca        1 MR2     -0.189750
     22 C22        -1.9420    2.2510   -5.5450 ca        1 MR2      0.138600
     23 C23        -1.6610    2.8270   -4.2950 ca        1 MR2     -0.189750
     24 C24        -1.0680    2.0480   -3.3090 ca        1 MR2     -0.069500
     25 N1          5.7090    0.0470   -2.7250 no        1 MR2      0.310200
     26 O1         -0.6510    0.3890   -1.2330 os        1 MR2     -0.413900
     27 O2         -0.7160    0.2850    0.9300 o         1 MR2     -0.567500
     28 O3         -1.7660   -5.5470   -2.8030 oh        1 MR2     -0.492100
     29 O4         -2.5240    3.0710   -6.4820 oh        1 MR2     -0.492100
     30 O5          6.1980    0.6150   -3.6660 o         1 MR2     -0.203500
     31 O6          6.3810   -0.5410   -1.9230 o         1 MR2     -0.203500
     32 H3          1.6260   -0.1080    2.0930 ha        1 MR2      0.167000
     33 H4          4.1250   -0.2590    2.0650 ha        1 MR2      0.152000
     34 H5          5.3720   -0.1590   -0.0590 ha        1 MR2      0.175000
     35 H8          3.9870    0.2900   -4.7410 ha        1 MR2      0.174000
     36 H9          1.5160    0.2060   -4.6670 ha        1 MR2      0.164000
     37 H14        -2.3280   -1.2640   -1.4590 ha        1 MR2      0.149000
     38 H15        -3.0600   -3.6560   -1.6190 ha        1 MR2      0.147750
     39 H17         0.5300   -4.5820   -3.8690 ha        1 MR2      0.147750
     40 H18         1.2480   -2.2150   -3.7120 ha        1 MR2      0.149000
     41 H20        -0.8130   -0.9190   -4.9930 ha        1 MR2      0.149000
     42 H21        -1.8630    0.4600   -6.7770 ha        1 MR2      0.147750
     43 H23        -1.9170    3.8800   -4.1110 ha        1 MR2      0.147750
     44 H24        -0.8580    2.4870   -2.3200 ha        1 MR2      0.149000
     45 HO3        -1.1110   -6.0800   -3.2770 ho        1 MR2      0.422000
     46 HO4        -2.6890    2.5460   -7.2790 ho        1 MR2      0.422000
@<TRIPOS>BOND
     1    1    2 1   
     2    1   26 1   
     3    1   27 2   
     4    2    3 ar  
     5    2   11 ar  
     6    3    4 ar  
     7    3   32 1   
     8    4    5 ar  
     9    4   33 1   
    10    5    6 ar  
    11    5   34 1   
    12    6    7 ar  
    13    6   11 ar  
    14    7    8 ar  
    15    7   25 1   
    16    8    9 ar  
    17    8   35 1   
    18    9   10 ar  
    19    9   36 1   
    20   10   11 ar  
    21   10   12 1   
    22   12   13 1   
    23   12   19 1   
    24   12   26 1   
    25   13   14 ar  
    26   13   18 ar  
    27   14   15 ar  
    28   14   37 1   
    29   15   16 ar  
    30   15   38 1   
    31   16   17 ar  
    32   16   28 1   
    33   17   18 ar  
    34   17   39 1   
    35   18   40 1   
    36   19   20 ar  
    37   19   24 ar  
    38   20   21 ar  
    39   20   41 1   
    40   21   22 ar  
    41   21   42 1   
    42   22   23 ar  
    43   22   29 1   
    44   23   24 ar  
    45   23   43 1   
    46   24   44 1   
    47   25   30 1   
    48   25   31 1   
    49   28   45 1   
    50   29   46 1   
@<TRIPOS>SUBSTRUCTURE
     1 MR2         1 TEMP              0 ****  ****    0 ROOT
