@<TRIPOS>MOLECULE
MR2
   46    50     1     0     0
SMALL
bcc


@<TRIPOS>ATOM
      1 C1          0.0270    0.1880   -0.0510 c         1 MR2      0.737200
      2 C2          1.4820   -0.0040   -0.0560 ca        1 MR2     -0.155600
      3 C3          2.1770   -0.1010    1.1300 ca        1 MR2     -0.040000
      4 C4          3.5880   -0.1730    1.1060 ca        1 MR2     -0.131000
      5 C5          4.2740   -0.1220   -0.0840 ca        1 MR2     -0.086000
      6 C6          3.5830   -0.0300   -1.3260 ca        1 MR2     -0.004000
      7 C7          4.2240    0.0590   -2.6020 ca        1 MR2     -0.150200
      8 C8          3.4830    0.1740   -3.7680 ca        1 MR2     -0.060000
      9 C9          2.0750    0.1400   -3.7220 ca        1 MR2     -0.121000
     10 C10         1.4130    0.0240   -2.5190 ca        1 MR2     -0.055300
     11 C11         2.1620   -0.0070   -1.3070 ca        1 MR2     -0.006000
     12 C12        -0.0930   -0.1260   -2.4660 c3        1 MR2      0.328700
     13 C13        -0.4940   -1.5860   -2.5700 ca        1 MR2     -0.148300
     14 C14        -1.7020   -1.9990   -1.9870 ca        1 MR2     -0.069500
     15 C15        -2.1170   -3.3220   -2.0670 ca        1 MR2     -0.189750
     16 C16        -1.3100   -4.2520   -2.7460 ca        1 MR2      0.138600
     17 C17        -0.1040   -3.8530   -3.3380 ca        1 MR2     -0.189750
     18 C18         0.2940   -2.5220   -3.2450 ca        1 MR2     -0.069500
     19 C19        -0.7500    0.7050   -3.5500 ca        1 MR2     -0.148300
     20 C20        -1.0470    0.1410   -4.7960 ca        1 MR2     -0.069500
     21 C21        -1.6390    0.9070   -5.7960 ca        1 MR2     -0.189750
     22 C22        -1.9460    2.2510   -5.5420 ca        1 MR2      0.138600
     23 C23        -1.6620    2.8280   -4.2920 ca        1 MR2     -0.189750
     24 C24        -1.0670    2.0490   -3.3070 ca        1 MR2     -0.069500
     25 N1          5.7090    0.0430   -2.7360 no        1 MR2      0.310200
     26 O1         -0.6470    0.3910   -1.2310 os        1 MR2     -0.413900
     27 O2         -0.7080    0.2890    0.9330 o         1 MR2     -0.567500
     28 O3         -1.7710   -5.5450   -2.7950 oh        1 MR2     -0.492100
     29 O4         -2.5290    3.0710   -6.4780 oh        1 MR2     -0.492100
     30 O5          6.1970    0.6100   -3.6770 o         1 MR2     -0.203500
     31 O6          6.3830   -0.5450   -1.9340 o         1 MR2     -0.203500
     32 H3          1.6360   -0.1050    2.0910 ha        1 MR2      0.167000
     33 H4          4.1340   -0.2580    2.0580 ha        1 MR2      0.152000
     34 H5          5.3770   -0.1610   -0.0680 ha        1 MR2      0.175000
     35 H8          3.9830    0.2860   -4.7480 ha        1 MR2      0.174000
     36 H9          1.5120    0.2040   -4.6690 ha        1 MR2      0.164000
     37 H14        -2.3260   -1.2610   -1.4520 ha        1 MR2      0.149000
     38 H15        -3.0600   -3.6530   -1.6090 ha        1 MR2      0.147750
     39 H17         0.5240   -4.5830   -3.8670 ha        1 MR2      0.147750
     40 H18         1.2440   -2.2160   -3.7120 ha        1 MR2      0.149000
     41 H20        -0.8180   -0.9190   -4.9900 ha        1 MR2      0.149000
     42 H21        -1.8700    0.4590   -6.7730 ha        1 MR2      0.147750
     43 H23        -1.9170    3.8810   -4.1090 ha        1 MR2      0.147750
     44 H24        -0.8550    2.4880   -2.3190 ha        1 MR2      0.149000
     45 HO3        -1.1170   -6.0790   -3.2710 ho        1 MR2      0.422000
     46 HO4        -2.6950    2.5460   -7.2750 ho        1 MR2      0.422000
@<TRIPOS>BOND
     1    1    2 1   
     2    1   26 1   
     3    1   27 2   
     4    2    3 ar  
     5    2   11 ar  
     6    3    4 ar  
     7    3   32 1   
     8    4    5 ar  
     9    4   33 1   
    10    5    6 ar  
    11    5   34 1   
    12    6    7 ar  
    13    6   11 ar  
    14    7    8 ar  
    15    7   25 1   
    16    8    9 ar  
    17    8   35 1   
    18    9   10 ar  
    19    9   36 1   
    20   10   11 ar  
    21   10   12 1   
    22   12   13 1   
    23   12   19 1   
    24   12   26 1   
    25   13   14 ar  
    26   13   18 ar  
    27   14   15 ar  
    28   14   37 1   
    29   15   16 ar  
    30   15   38 1   
    31   16   17 ar  
    32   16   28 1   
    33   17   18 ar  
    34   17   39 1   
    35   18   40 1   
    36   19   20 ar  
    37   19   24 ar  
    38   20   21 ar  
    39   20   41 1   
    40   21   22 ar  
    41   21   42 1   
    42   22   23 ar  
    43   22   29 1   
    44   23   24 ar  
    45   23   43 1   
    46   24   44 1   
    47   25   30 1   
    48   25   31 1   
    49   28   45 1   
    50   29   46 1   
@<TRIPOS>SUBSTRUCTURE
     1 MR2         1 TEMP              0 ****  ****    0 ROOT
