@<TRIPOS>MOLECULE
MR2
   46    50     1     0     0
SMALL
bcc


@<TRIPOS>ATOM
      1 C1         -0.1500    1.1980    2.3820 c         1 MR2      0.737200
      2 C2         -1.4720    1.0670    1.7610 ca        1 MR2     -0.155600
      3 C3         -2.5640    1.7140    2.2990 ca        1 MR2     -0.040000
      4 C4         -3.8470    1.4870    1.7540 ca        1 MR2     -0.131000
      5 C5         -4.0220    0.6090    0.7110 ca        1 MR2     -0.086000
      6 C6         -2.9130   -0.0690    0.1290 ca        1 MR2     -0.004000
      7 C7         -3.0160   -1.0190   -0.9360 ca        1 MR2     -0.150200
      8 C8         -1.8920   -1.6600   -1.4340 ca        1 MR2     -0.060000
      9 C9         -0.6130   -1.3370   -0.9400 ca        1 MR2     -0.121000
     10 C10        -0.4600   -0.4050    0.0640 ca        1 MR2     -0.055300
     11 C11        -1.6150    0.1960    0.6430 ca        1 MR2     -0.006000
     12 C12         0.9150    0.0320    0.5230 c3        1 MR2      0.328700
     13 C13         1.4240    1.1880   -0.3180 ca        1 MR2     -0.148300
     14 C14         2.3390    2.0880    0.2510 ca        1 MR2     -0.069500
     15 C15         2.8420    3.1530   -0.4840 ca        1 MR2     -0.189750
     16 C16         2.4260    3.3220   -1.8160 ca        1 MR2      0.138600
     17 C17         1.5170    2.4280   -2.4000 ca        1 MR2     -0.189750
     18 C18         1.0240    1.3670   -1.6450 ca        1 MR2     -0.069500
     19 C19         1.8820   -1.1360    0.4990 ca        1 MR2     -0.148300
     20 C20         2.6740   -1.3790   -0.6280 ca        1 MR2     -0.069500
     21 C21         3.5520   -2.4580   -0.6570 ca        1 MR2     -0.189750
     22 C22         3.6440   -3.2990    0.4620 ca        1 MR2      0.138600
     23 C23         2.8610   -3.0610    1.6050 ca        1 MR2     -0.189750
     24 C24         1.9870   -1.9810    1.6120 ca        1 MR2     -0.069500
     25 N1         -4.3290   -1.3700   -1.5490 no        1 MR2      0.310200
     26 O1          0.9130    0.4670    1.9060 os        1 MR2     -0.413900
     27 O2          0.1400    1.8440    3.3900 o         1 MR2     -0.567500
     28 O3          2.9570    4.3920   -2.4950 oh        1 MR2     -0.492100
     29 O4          4.4860   -4.3840    0.5090 oh        1 MR2     -0.492100
     30 O5         -4.4540   -2.4650   -2.0290 o         1 MR2     -0.203500
     31 O6         -5.2180   -0.5620   -1.5790 o         1 MR2     -0.203500
     32 H3         -2.4370    2.3920    3.1610 ha        1 MR2      0.167000
     33 H4         -4.7120    2.0140    2.1870 ha        1 MR2      0.152000
     34 H5         -5.0400    0.4370    0.3210 ha        1 MR2      0.175000
     35 H8         -1.9810   -2.4250   -2.2270 ha        1 MR2      0.174000
     36 H9          0.2660   -1.8420   -1.3760 ha        1 MR2      0.164000
     37 H14         2.6550    1.9480    1.2990 ha        1 MR2      0.149000
     38 H15         3.5550    3.8640   -0.0430 ha        1 MR2      0.147750
     39 H17         1.1940    2.5640   -3.4410 ha        1 MR2      0.147750
     40 H18         0.3100    0.6690   -2.1100 ha        1 MR2      0.149000
     41 H20         2.6110   -0.7090   -1.5010 ha        1 MR2      0.149000
     42 H21         4.1730   -2.6440   -1.5440 ha        1 MR2      0.147750
     43 H23         2.9530   -3.7270    2.4740 ha        1 MR2      0.147750
     44 H24         1.3800   -1.7780    2.5100 ha        1 MR2      0.149000
     45 HO3         2.5760    4.4020   -3.3860 ho        1 MR2      0.422000
     46 HO4         4.9830   -4.4150   -0.3220 ho        1 MR2      0.422000
@<TRIPOS>BOND
     1    1    2 1   
     2    1   26 1   
     3    1   27 2   
     4    2    3 ar  
     5    2   11 ar  
     6    3    4 ar  
     7    3   32 1   
     8    4    5 ar  
     9    4   33 1   
    10    5    6 ar  
    11    5   34 1   
    12    6    7 ar  
    13    6   11 ar  
    14    7    8 ar  
    15    7   25 1   
    16    8    9 ar  
    17    8   35 1   
    18    9   10 ar  
    19    9   36 1   
    20   10   11 ar  
    21   10   12 1   
    22   12   13 1   
    23   12   19 1   
    24   12   26 1   
    25   13   14 ar  
    26   13   18 ar  
    27   14   15 ar  
    28   14   37 1   
    29   15   16 ar  
    30   15   38 1   
    31   16   17 ar  
    32   16   28 1   
    33   17   18 ar  
    34   17   39 1   
    35   18   40 1   
    36   19   20 ar  
    37   19   24 ar  
    38   20   21 ar  
    39   20   41 1   
    40   21   22 ar  
    41   21   42 1   
    42   22   23 ar  
    43   22   29 1   
    44   23   24 ar  
    45   23   43 1   
    46   24   44 1   
    47   25   30 1   
    48   25   31 1   
    49   28   45 1   
    50   29   46 1   
@<TRIPOS>SUBSTRUCTURE
     1 MR2         1 TEMP              0 ****  ****    0 ROOT
