@<TRIPOS>MOLECULE
MR2
   46    41     1     0     0
SMALL
bcc


@<TRIPOS>ATOM
      1 C1         -0.8810   -0.2170    2.2800 c1        1 MR2      0.351000
      2 C2          0.6470   -0.3750    2.2260 c1        1 MR2     -0.135000
      3 C3          1.3790   -0.5140    3.4210 c1        1 MR2     -0.040000
      4 C4          2.7820   -0.5730    3.3820 c1        1 MR2     -0.108500
      5 C5          3.4560   -0.4940    2.1500 c1        1 MR2     -0.108500
      6 C6          2.7230   -0.3540    0.9510 c1        1 MR2     -0.004000
      7 C7          3.4010   -0.2030   -0.2710 c2        1 MR2     -0.105000
      8 C8          2.6810    0.0220   -1.4460 c1        1 MR2     -0.060000
      9 C9          1.2840    0.0970   -1.4070 c1        1 MR2     -0.121000
     10 C10         0.6040   -0.0550   -0.1830 c1        1 MR2     -0.048000
     11 C11         1.3220   -0.2870    0.9900 c1        1 MR2     -0.006000
     12 C12        -0.9400    0.0600   -0.1350 c3        1 MR2      0.235000
     13 C13        -1.5860   -1.2600   -0.4900 c2        1 MR2     -0.141000
     14 C14        -0.8790   -2.4420   -0.3310 c2        1 MR2     -0.066000
     15 C15        -1.4880   -3.6560   -0.6090 c1        1 MR2     -0.219000
     16 C16        -2.8030   -3.6880   -1.0460 c1        1 MR2      0.093500
     17 C17        -3.5090   -2.5060   -1.2050 c1        1 MR2     -0.160500
     18 C18        -2.9010   -1.2920   -0.9270 c1        1 MR2     -0.072500
     19 C19        -1.0970    1.5320   -0.4430 c2        1 MR2     -0.141000
     20 C20        -1.0550    2.4630    0.5830 c2        1 MR2     -0.066000
     21 C21        -1.1360    3.8160    0.2950 c1        1 MR2     -0.219000
     22 C22        -1.2590    4.2390   -1.0190 c1        1 MR2      0.093500
     23 C23        -1.3010    3.3080   -2.0450 c1        1 MR2     -0.160500
     24 C24        -1.2200    1.9550   -1.7570 c1        1 MR2     -0.072500
     25 N1          4.7810   -0.3090   -0.5860 no        1 MR2      0.565000
     26 O1         -1.6100   -0.0240    1.0940 os        1 MR2     -0.253000
     27 O2         -1.4540   -0.2200    3.3510 o         1 MR2     -0.293000
     28 O3         -3.4310   -4.9210   -1.2950 oh        1 MR2     -0.247000
     29 O4         -1.2850    5.6140   -1.3150 oh        1 MR2     -0.247000
     30 O5          5.6030   -1.0710    0.1960 o         1 MR2     -0.353500
     31 O6          5.2360    0.2870   -1.5510 o         1 MR2     -0.353500
     32 H3          0.9120   -0.5690    4.2760 ha        1 MR2      0.167000
     33 H4          3.2900   -0.6590    4.2110 ha        1 MR2      0.163500
     34 H5          4.4310   -0.5350    2.1230 ha        1 MR2      0.163500
     35 H8          3.1530    0.1280   -2.2940 ha        1 MR2      0.174000
     36 H9          0.7810    0.2540   -2.2290 ha        1 MR2      0.165000
     37 H14         0.0470   -2.4190   -0.0230 ha        1 MR2      0.144000
     38 H15        -0.9900   -4.4880   -0.4980 ha        1 MR2      0.139000
     39 H17        -4.4350   -2.5280   -1.5130 ha        1 MR2      0.156500
     40 H18        -3.3980   -0.4600   -1.0380 ha        1 MR2      0.154000
     41 H20        -0.9690    2.1650    1.5090 ha        1 MR2      0.144000
     42 H21        -1.1070    4.4710    1.0180 ha        1 MR2      0.139000
     43 H23        -1.3870    3.6060   -2.9710 ha        1 MR2      0.156500
     44 H24        -1.2490    1.2990   -2.4800 ha        1 MR2      0.154000
     45 HO3        -3.2190   -5.2020   -2.1110 ho        1 MR2      0.221500
     46 HO4        -1.9250    6.0070   -0.8400 ho        1 MR2      0.221500
@<TRIPOS>BOND
     1    1   26 1   
     2    1   27 1   
     3    2    3 1   
     4    2   11 1   
     5    3   32 1   
     6    4    5 1   
     7    4   33 1   
     8    5   34 1   
     9    6    7 1   
    10    6   11 1   
    11    7    8 1   
    12    7   25 1   
    13    8   35 1   
    14    9   10 1   
    15    9   36 1   
    16   10   12 1   
    17   12   13 1   
    18   12   19 1   
    19   12   26 1   
    20   13   14 1   
    21   13   18 1   
    22   14   15 1   
    23   14   37 1   
    24   15   38 1   
    25   16   17 1   
    26   16   28 1   
    27   17   39 1   
    28   18   40 1   
    29   19   20 1   
    30   19   24 1   
    31   20   21 1   
    32   20   41 1   
    33   21   42 1   
    34   22   23 1   
    35   22   29 1   
    36   23   43 1   
    37   24   44 1   
    38   25   30 1   
    39   25   31 1   
    40   28   45 1   
    41   29   46 1   
@<TRIPOS>SUBSTRUCTURE
     1 MR2         1 TEMP              0 ****  ****    0 ROOT
