@<TRIPOS>MOLECULE
MR3
   13     9     1     0     0
SMALL
bcc


@<TRIPOS>ATOM
      1 CAA        -1.8820   -0.0000    0.0000 c3        1 MR3      0.202100
      2 NAF        -0.4580   -0.0000    0.0000 n3        1 MR3     -0.407800
      3 CAD         0.3430   -0.0000    1.1040 c1        1 MR3     -0.085200
      4 CAB         1.6540   -0.0000    0.6790 cg        1 MR3     -0.196000
      5 CAC         1.6540   -0.0000   -0.6790 cg        1 MR3     -0.196000
      6 CAE         0.3430   -0.0000   -1.1040 c1        1 MR3     -0.085200
      7 HAA1       -2.2070   -0.1250   -0.9120 h1        1 MR3      0.048700
      8 HAA2       -2.2070   -0.7270    0.5640 h1        1 MR3      0.048700
      9 HAA3       -2.2070    0.8520    0.3480 h1        1 MR3      0.048700
     10 HAD         0.0410   -0.0000    2.0320 DU        1 MR3      0.156000
     11 HAB         2.4430    0.0000    1.2530 DU        1 MR3      0.156000
     12 HAC         2.4430   -0.0000   -1.2530 DU        1 MR3      0.156000
     13 HAE         0.0410   -0.0000   -2.0320 DU        1 MR3      0.156000
@<TRIPOS>BOND
     1    1    2 1   
     2    1    7 1   
     3    1    8 1   
     4    1    9 1   
     5    2    3 1   
     6    2    6 1   
     7    3    4 3   
     8    4    5 1   
     9    5    6 3   
@<TRIPOS>SUBSTRUCTURE
     1 MR3         1 TEMP              0 ****  ****    0 ROOT
