@<TRIPOS>MOLECULE
MR3
   13    13     1     0     0
SMALL
bcc


@<TRIPOS>ATOM
      1 CAA        -0.2330   -0.5260    4.5860 c3        1 MR3      0.024600
      2 NAF         0.2360   -0.2430    3.2710 na        1 MR3     -0.070100
      3 CAD         1.4410    0.3860    2.9520 cc        1 MR3     -0.165300
      4 CAB         1.5110    0.5320    1.5610 cd        1 MR3     -0.196000
      5 CAC         0.3050   -0.0200    1.0130 cd        1 MR3     -0.196000
      6 CAE        -0.4640   -0.4860    2.0870 cc        1 MR3     -0.165300
      7 HAA1        0.6390   -0.6890    5.2740 h1        1 MR3      0.049033
      8 HAA2       -0.8470    0.3300    4.9770 h1        1 MR3      0.049033
      9 HAA3       -0.8700   -1.4500    4.5720 h1        1 MR3      0.049033
     10 HAD         2.1510    0.6740    3.7270 h4        1 MR3      0.162000
     11 HAB         2.3260    0.9790    1.0010 ha        1 MR3      0.150000
     12 HAC         0.0400   -0.0690   -0.0370 ha        1 MR3      0.150000
     13 HAE        -1.4390   -0.9710    2.0960 h4        1 MR3      0.162000
@<TRIPOS>BOND
     1    1    2 1   
     2    1    7 1   
     3    1    8 1   
     4    1    9 1   
     5    2    3 1   
     6    2    6 1   
     7    3    4 2   
     8    3   10 1   
     9    4    5 1   
    10    4   11 1   
    11    5    6 2   
    12    5   12 1   
    13    6   13 1   
@<TRIPOS>SUBSTRUCTURE
     1 MR3         1 TEMP              0 ****  ****    0 ROOT
