@<TRIPOS>MOLECULE
MR4
   31    33     1     0     0
SMALL
bcc


@<TRIPOS>ATOM
      1 CAA        -3.4620    2.5690   -0.0400 c3        1 MR4     -0.049300
      2 CAL        -2.7930    1.2490   -0.0480 ca        1 MR4     -0.137800
      3 CAH        -1.4060    1.1380   -0.0260 ca        1 MR4     -0.055000
      4 CAO        -3.5680    0.0670   -0.0790 ca        1 MR4      0.147100
      5 OAC        -4.9300    0.2490   -0.1000 oh        1 MR4     -0.492100
      6 CAM        -2.9630   -1.2040   -0.0880 ca        1 MR4     -0.137800
      7 CAB        -3.7800   -2.4390   -0.1210 c3        1 MR4     -0.049300
      8 CAI        -1.5690   -1.2860   -0.0660 ca        1 MR4     -0.055000
      9 CAN        -0.7900   -0.1230   -0.0350 ca        1 MR4     -0.156900
     10 CAP         0.6590   -0.2270   -0.0110 cc        1 MR4      0.607200
     11 OAK         1.3690    1.0150    0.0200 os        1 MR4     -0.314700
     12 CAR         2.7110    0.6410    0.0370 ca        1 MR4      0.033100
     13 CAG         3.8360    1.4510    0.0690 ca        1 MR4     -0.114000
     14 CAE         5.0660    0.7900    0.0800 ca        1 MR4     -0.114000
     15 CAD         5.1520   -0.6090    0.0590 ca        1 MR4     -0.146000
     16 CAF         4.0200   -1.4230    0.0280 ca        1 MR4     -0.070000
     17 CAQ         2.7710   -0.7960    0.0160 ca        1 MR4      0.062400
     18 NAJ         1.4520   -1.2980   -0.0140 nd        1 MR4     -0.564100
     19 HAA1       -4.0990    2.6800   -0.9540 hc        1 MR4      0.048700
     20 HAA2       -4.1310    2.6520    0.8540 hc        1 MR4      0.048700
     21 HAA3       -2.7180    3.4020   -0.0140 hc        1 MR4      0.048700
     22 HAH        -0.7850    2.0480   -0.0020 ha        1 MR4      0.156500
     23 HOAC       -5.3580   -0.6200   -0.1200 ho        1 MR4      0.424000
     24 HAB1       -4.4180   -2.4650   -1.0410 hc        1 MR4      0.048700
     25 HAB2       -3.1310   -3.3490   -0.1240 hc        1 MR4      0.048700
     26 HAB3       -4.4490   -2.4920    0.7760 hc        1 MR4      0.048700
     27 HAI        -1.0840   -2.2760   -0.0720 ha        1 MR4      0.156500
     28 HAG         3.7610    2.5450    0.0840 ha        1 MR4      0.152000
     29 HAE         5.9920    1.3850    0.1040 ha        1 MR4      0.137000
     30 HAD         6.1470   -1.0800    0.0690 ha        1 MR4      0.136000
     31 HAF         4.1030   -2.5180    0.0120 ha        1 MR4      0.152000
@<TRIPOS>BOND
     1    1    2 1   
     2    1   19 1   
     3    1   20 1   
     4    1   21 1   
     5    2    3 ar  
     6    2    4 ar  
     7    3    9 ar  
     8    3   22 1   
     9    4    5 1   
    10    4    6 ar  
    11    5   23 1   
    12    6    7 1   
    13    6    8 ar  
    14    7   24 1   
    15    7   25 1   
    16    7   26 1   
    17    8    9 ar  
    18    8   27 1   
    19    9   10 1   
    20   10   11 1   
    21   10   18 2   
    22   11   12 1   
    23   12   13 ar  
    24   12   17 ar  
    25   13   14 ar  
    26   13   28 1   
    27   14   15 ar  
    28   14   29 1   
    29   15   16 ar  
    30   15   30 1   
    31   16   17 ar  
    32   16   31 1   
    33   17   18 1   
@<TRIPOS>SUBSTRUCTURE
     1 MR4         1 TEMP              0 ****  ****    0 ROOT
