@<TRIPOS>MOLECULE
MR4
   31    26     1     0     0
SMALL
bcc


@<TRIPOS>ATOM
      1 CAA        -3.8250   -0.0200   -1.6900 c3        1 MR4     -0.181000
      2 CAL        -2.3120   -0.0120   -1.6720 c2        1 MR4     -0.161000
      3 CAH        -1.6330   -0.0210   -0.4640 c2        1 MR4     -0.047000
      4 CAO        -1.6050   -0.0120   -2.8640 c1        1 MR4      0.102000
      5 OAC        -2.2920    0.0570   -4.0890 oh        1 MR4     -0.246000
      6 CAM        -0.2190   -0.0220   -2.8470 c1        1 MR4     -0.100000
      7 CAB         0.5520   -0.0900   -4.1470 c3        1 MR4     -0.168000
      8 CAI         0.4600   -0.0320   -1.6390 c1        1 MR4     -0.063000
      9 CAN        -0.2470   -0.0310   -0.4470 c1        1 MR4     -0.073000
     10 CAP         0.4310    0.0060    0.7610 c1        1 MR4      0.102000
     11 OAK         0.8170   -1.1070    1.4520 os        1 MR4     -0.136000
     12 CAR         1.4620   -0.6980    2.5810 c1        1 MR4     -0.012000
     13 CAG         2.0400   -1.4120    3.6470 c1        1 MR4     -0.111000
     14 CAE         2.6230   -0.7290    4.7030 c1        1 MR4     -0.111000
     15 CAD         2.6360    0.6580    4.7090 c1        1 MR4     -0.111000
     16 CAF         2.0660    1.3610    3.6600 c1        1 MR4     -0.111000
     17 CAQ         1.4750    0.6680    2.5870 c1        1 MR4     -0.077000
     18 NAJ         0.8370    1.1000    1.4610 n1        1 MR4     -0.137000
     19 HAA1       -4.1420   -0.8420   -2.1190 hc        1 MR4      0.087000
     20 HAA2       -4.1500    0.7570   -2.1910 hc        1 MR4      0.087000
     21 HAA3       -4.1630    0.0200   -0.7700 hc        1 MR4      0.087000
     22 HAH        -2.1310   -0.0210    0.3760 ha        1 MR4      0.158000
     23 HOAC       -2.4530    0.9090   -4.2920 ho        1 MR4      0.223000
     24 HAB1        0.2560   -0.8680   -4.6630 hc        1 MR4      0.089000
     25 HAB2        1.5100   -0.1700   -3.9550 hc        1 MR4      0.089000
     26 HAB3        0.3900    0.7260   -4.6650 hc        1 MR4      0.089000
     27 HAI         1.4360   -0.0390   -1.6270 ha        1 MR4      0.155000
     28 HAG         2.0310   -2.3880    3.6430 ha        1 MR4      0.144250
     29 HAE         3.0250   -1.2240    5.4430 ha        1 MR4      0.144250
     30 HAD         3.0470    1.1380    5.4530 ha        1 MR4      0.144250
     31 HAF         2.0760    2.3370    3.6640 ha        1 MR4      0.144250
@<TRIPOS>BOND
     1    1    2 1   
     2    1   19 1   
     3    1   20 1   
     4    1   21 1   
     5    2    3 1   
     6    2    4 1   
     7    3    9 1   
     8    3   22 1   
     9    4    5 1   
    10    5   23 1   
    11    6    7 1   
    12    6    8 1   
    13    7   24 1   
    14    7   25 1   
    15    7   26 1   
    16    8   27 1   
    17   10   11 1   
    18   10   18 1   
    19   11   12 1   
    20   12   17 1   
    21   13   14 1   
    22   13   28 1   
    23   14   29 1   
    24   15   16 1   
    25   15   30 1   
    26   16   31 1   
@<TRIPOS>SUBSTRUCTURE
     1 MR4         1 TEMP              0 ****  ****    0 ROOT
