@<TRIPOS>MOLECULE
MR4
   31    33     1     0     0
SMALL
bcc


@<TRIPOS>ATOM
      1 CAA         0.0320   -0.0420    0.1840 c3        1 MR4     -0.049300
      2 CAL         1.5090   -0.0510    0.1030 ca        1 MR4     -0.137800
      3 CAH         2.2990   -0.0330    1.2490 ca        1 MR4     -0.055000
      4 CAO         2.1450   -0.0780   -1.1590 ca        1 MR4      0.147100
      5 OAC         1.3060   -0.0940   -2.2470 oh        1 MR4     -0.492100
      6 CAM         3.5480   -0.0870   -1.2700 ca        1 MR4     -0.137800
      7 CAB         4.2100   -0.1150   -2.5950 c3        1 MR4     -0.049300
      8 CAI         4.3160   -0.0690   -0.1030 ca        1 MR4     -0.055000
      9 CAN         3.6990   -0.0420    1.1530 ca        1 MR4     -0.156900
     10 CAP         4.5130   -0.0230    2.3560 cc        1 MR4      0.607200
     11 OAK         3.7920    0.0040    3.5910 os        1 MR4     -0.314700
     12 CAR         4.7870    0.0180    4.5670 ca        1 MR4      0.033100
     13 CAG         4.6490    0.0450    5.9460 ca        1 MR4     -0.114000
     14 CAE         5.8360    0.0520    6.6810 ca        1 MR4     -0.114000
     15 CAD         7.0910    0.0340    6.0550 ca        1 MR4     -0.146000
     16 CAF         7.2290    0.0070    4.6690 ca        1 MR4     -0.070000
     17 CAQ         6.0620   -0.0020    3.9010 ca        1 MR4      0.062400
     18 NAJ         5.8370   -0.0270    2.5070 nd        1 MR4     -0.564100
     19 HAA1       -0.3180   -0.0200    1.2450 hc        1 MR4      0.048700
     20 HAA2       -0.3840   -0.9530   -0.3150 hc        1 MR4      0.048700
     21 HAA3       -0.3750    0.8540   -0.3500 hc        1 MR4      0.048700
     22 HAH         1.8210   -0.0120    2.2430 ha        1 MR4      0.156500
     23 HOAC        1.8450   -0.1120   -3.0520 ho        1 MR4      0.424000
     24 HAB1        3.9220    0.7830   -3.1980 hc        1 MR4      0.048700
     25 HAB2        3.9130   -1.0330   -3.1630 hc        1 MR4      0.048700
     26 HAB3        5.3220   -0.1190   -2.4890 hc        1 MR4      0.048700
     27 HAI         5.4160   -0.0750   -0.1790 ha        1 MR4      0.156500
     28 HAG         3.6640    0.0590    6.4280 ha        1 MR4      0.152000
     29 HAE         5.7840    0.0740    7.7800 ha        1 MR4      0.137000
     30 HAD         7.9960    0.0410    6.6820 ha        1 MR4      0.136000
     31 HAF         8.2200   -0.0070    4.1930 ha        1 MR4      0.152000
@<TRIPOS>BOND
     1    1    2 1   
     2    1   19 1   
     3    1   20 1   
     4    1   21 1   
     5    2    3 ar  
     6    2    4 ar  
     7    3    9 ar  
     8    3   22 1   
     9    4    5 1   
    10    4    6 ar  
    11    5   23 1   
    12    6    7 1   
    13    6    8 ar  
    14    7   24 1   
    15    7   25 1   
    16    7   26 1   
    17    8    9 ar  
    18    8   27 1   
    19    9   10 1   
    20   10   11 1   
    21   10   18 2   
    22   11   12 1   
    23   12   13 ar  
    24   12   17 ar  
    25   13   14 ar  
    26   13   28 1   
    27   14   15 ar  
    28   14   29 1   
    29   15   16 ar  
    30   15   30 1   
    31   16   17 ar  
    32   16   31 1   
    33   17   18 1   
@<TRIPOS>SUBSTRUCTURE
     1 MR4         1 TEMP              0 ****  ****    0 ROOT
