@<TRIPOS>MOLECULE
MR5
   25    19     1     0     0
SMALL
bcc


@<TRIPOS>ATOM
      1 CAH         2.0200   -0.3490   -1.1010 c1        1 MR5     -0.008000
      2 CAL         3.4060   -0.3710   -1.1010 c1        1 MR5     -0.274000
      3 BR1         4.3580   -0.6490   -2.7350 br        1 MR5      0.074000
      4 CAO         4.1020   -0.1460    0.0770 c1        1 MR5      0.163000
      5 OAA         5.5090   -0.1750    0.0790 o         1 MR5     -0.223000
      6 CAM         3.4120    0.1010    1.2540 c2        1 MR5     -0.213000
      7 BR2         4.3730    0.4600    2.8670 br        1 MR5      0.095000
      8 CAI         2.0260    0.1220    1.2530 c1        1 MR5     -0.023000
      9 CAN         1.3300   -0.1030    0.0760 c1        1 MR5     -0.076000
     10 CAP        -0.0550   -0.0360    0.0660 c1        1 MR5      0.092000
     11 OAK        -0.7650    1.0950   -0.2200 os        1 MR5     -0.134000
     12 CAR        -2.0900    0.7810   -0.1830 c1        1 MR5     -0.009000
     13 CAG        -3.2480    1.5500   -0.4040 c1        1 MR5     -0.108250
     14 CAE        -4.4990    0.9620   -0.3080 c1        1 MR5     -0.108250
     15 CAD        -4.6110   -0.3840    0.0060 c1        1 MR5     -0.108250
     16 CAF        -3.4710   -1.1420    0.2240 c1        1 MR5     -0.108250
     17 CAQ        -2.2000   -0.5460    0.1260 c1        1 MR5     -0.080000
     18 NAJ        -0.9410   -1.0480    0.2790 n1        1 MR5     -0.126000
     19 HAH         1.5300   -0.5080   -1.9300 ha        1 MR5      0.177000
     20 HOAA        5.7880   -1.0150    0.1640 ho        1 MR5      0.240000
     21 HAI         1.5400    0.2960    2.0820 ha        1 MR5      0.173000
     22 HAG        -3.1690    2.4980   -0.6250 ha        1 MR5      0.146500
     23 HAE        -5.3030    1.4960   -0.4610 ha        1 MR5      0.146500
     24 HAD        -5.4930   -0.7980    0.0740 ha        1 MR5      0.146500
     25 HAF        -3.5500   -2.0900    0.4450 ha        1 MR5      0.146500
@<TRIPOS>BOND
     1    1    9 1   
     2    1   19 1   
     3    2    3 1   
     4    2    4 1   
     5    4    6 1   
     6    5   20 1   
     7    6    7 1   
     8    6    8 1   
     9    8   21 1   
    10   10   11 1   
    11   10   18 1   
    12   11   12 1   
    13   12   17 1   
    14   13   14 1   
    15   13   22 1   
    16   14   23 1   
    17   15   16 1   
    18   15   24 1   
    19   16   25 1   
@<TRIPOS>SUBSTRUCTURE
     1 MR5         1 TEMP              0 ****  ****    0 ROOT
