@<TRIPOS>MOLECULE
MR5
   25    27     1     0     0
SMALL
bcc


@<TRIPOS>ATOM
      1 CAH         0.0780   -0.0880   -0.0260 ca        1 MR5     -0.015500
      2 CAL         1.4690   -0.1100    0.0750 ca        1 MR5     -0.103400
      3 BR1         2.4780   -0.1490   -1.5040 br        1 MR5     -0.055600
      4 CAO         2.0820   -0.1030    1.3470 ca        1 MR5      0.208100
      5 OAA         3.4380   -0.1240    1.5190 oh        1 MR5     -0.469100
      6 CAM         1.2860   -0.0730    2.5150 ca        1 MR5     -0.103400
      7 BR2         2.0200   -0.0620    4.2380 br        1 MR5     -0.055600
      8 CAI        -0.1020   -0.0510    2.3930 ca        1 MR5     -0.015500
      9 CAN        -0.7100   -0.0590    1.1310 ca        1 MR5     -0.159900
     10 CAP        -2.1580   -0.0360    1.0170 cc        1 MR5      0.597200
     11 OAK        -2.8760   -0.0060    2.2540 os        1 MR5     -0.312700
     12 CAR        -4.2150    0.0110    1.8690 ca        1 MR5      0.036100
     13 CAG        -5.3470    0.0420    2.6700 ca        1 MR5     -0.113000
     14 CAE        -6.5710    0.0530    2.0000 ca        1 MR5     -0.109000
     15 CAD        -6.6460    0.0350    0.5990 ca        1 MR5     -0.145000
     16 CAF        -5.5090    0.0040   -0.2050 ca        1 MR5     -0.066000
     17 CAQ        -4.2650   -0.0080    0.4320 ca        1 MR5      0.059400
     18 NAJ        -2.9410   -0.0370   -0.0600 nd        1 MR5     -0.553100
     19 HAH        -0.4050   -0.0940   -1.0200 ha        1 MR5      0.175000
     20 HOAA        3.8640   -0.1430    0.6440 ho        1 MR5      0.441000
     21 HAI        -0.7380   -0.0280    3.2960 ha        1 MR5      0.175000
     22 HAG        -5.2800    0.0560    3.7650 ha        1 MR5      0.154000
     23 HAE        -7.5020    0.0770    2.5870 ha        1 MR5      0.139000
     24 HAD        -7.6380    0.0450    0.1210 ha        1 MR5      0.139000
     25 HAF        -5.5830   -0.0100   -1.3020 ha        1 MR5      0.154000
@<TRIPOS>BOND
     1    1    2 ar  
     2    1    9 ar  
     3    1   19 1   
     4    2    3 1   
     5    2    4 ar  
     6    4    5 1   
     7    4    6 ar  
     8    5   20 1   
     9    6    7 1   
    10    6    8 ar  
    11    8    9 ar  
    12    8   21 1   
    13    9   10 1   
    14   10   11 1   
    15   10   18 2   
    16   11   12 1   
    17   12   13 ar  
    18   12   17 ar  
    19   13   14 ar  
    20   13   22 1   
    21   14   15 ar  
    22   14   23 1   
    23   15   16 ar  
    24   15   24 1   
    25   16   17 ar  
    26   16   25 1   
    27   17   18 1   
@<TRIPOS>SUBSTRUCTURE
     1 MR5         1 TEMP              0 ****  ****    0 ROOT
