@<TRIPOS>MOLECULE
MR5
   25    27     1     0     0
SMALL
bcc


@<TRIPOS>ATOM
      1 CAH        -0.2290   -1.2400    0.0970 ca        1 MR5     -0.015500
      2 CAL        -1.6200   -1.1310    0.1180 ca        1 MR5     -0.103400
      3 BR1        -2.6390   -2.7040    0.1700 br        1 MR5     -0.055600
      4 CAO        -2.2250    0.1440    0.0990 ca        1 MR5      0.208100
      5 OAA        -3.5800    0.3240    0.1180 oh        1 MR5     -0.469100
      6 CAM        -1.4230    1.3080    0.0600 ca        1 MR5     -0.103400
      7 BR2        -2.1470    3.0350    0.0340 br        1 MR5     -0.055600
      8 CAI        -0.0360    1.1770    0.0400 ca        1 MR5     -0.015500
      9 CAN         0.5650   -0.0880    0.0590 ca        1 MR5     -0.159900
     10 CAP         2.0130   -0.2100    0.0370 cc        1 MR5      0.597200
     11 OAK         2.7370    1.0220   -0.0010 os        1 MR5     -0.312700
     12 CAR         4.0750    0.6290   -0.0150 ca        1 MR5      0.036100
     13 CAG         5.2110    1.4230   -0.0510 ca        1 MR5     -0.113000
     14 CAE         6.4310    0.7460   -0.0560 ca        1 MR5     -0.109000
     15 CAD         6.4980   -0.6550   -0.0260 ca        1 MR5     -0.145000
     16 CAF         5.3560   -1.4530    0.0100 ca        1 MR5     -0.066000
     17 CAQ         4.1160   -0.8080    0.0160 ca        1 MR5      0.059400
     18 NAJ         2.7890   -1.2920    0.0480 nd        1 MR5     -0.553100
     19 HAH         0.2480   -2.2360    0.1120 ha        1 MR5      0.175000
     20 HOAA       -4.0120   -0.5480    0.1440 ho        1 MR5      0.441000
     21 HAI         0.6060    2.0770    0.0100 ha        1 MR5      0.175000
     22 HAG         5.1510    2.5190   -0.0740 ha        1 MR5      0.154000
     23 HAE         7.3650    1.3270   -0.0840 ha        1 MR5      0.139000
     24 HAD         7.4870   -1.1390   -0.0320 ha        1 MR5      0.139000
     25 HAF         5.4240   -2.5490    0.0330 ha        1 MR5      0.154000
@<TRIPOS>BOND
     1    1    2 ar  
     2    1    9 ar  
     3    1   19 1   
     4    2    3 1   
     5    2    4 ar  
     6    4    5 1   
     7    4    6 ar  
     8    5   20 1   
     9    6    7 1   
    10    6    8 ar  
    11    8    9 ar  
    12    8   21 1   
    13    9   10 1   
    14   10   11 1   
    15   10   18 2   
    16   11   12 1   
    17   12   13 ar  
    18   12   17 ar  
    19   13   14 ar  
    20   13   22 1   
    21   14   15 ar  
    22   14   23 1   
    23   15   16 ar  
    24   15   24 1   
    25   16   17 ar  
    26   16   25 1   
    27   17   18 1   
@<TRIPOS>SUBSTRUCTURE
     1 MR5         1 TEMP              0 ****  ****    0 ROOT
