@<TRIPOS>MOLECULE
MR6
   30    25     1     0     0
SMALL
bcc


@<TRIPOS>ATOM
      1 CAA        -3.3980    0.6520   -1.8280 c3        1 MR6     -0.180000
      2 CAL        -1.8850    0.6240   -1.8360 c2        1 MR6     -0.076000
      3 CAH        -1.1870    0.5730   -0.6410 c2        1 MR6     -0.088000
      4 CAG        -1.1980    0.6550   -3.0390 c1        1 MR6     -0.109000
      5 CAM         0.1870    0.6350   -3.0470 c1        1 MR6     -0.075000
      6 CAB         0.9360    0.6100   -4.3610 c3        1 MR6     -0.180000
      7 CAI         0.8860    0.5850   -1.8510 c1        1 MR6     -0.096000
      8 CAN         0.2000    0.5540   -0.6480 c1        1 MR6     -0.034000
      9 CAO         0.8970    0.4450    0.5450 c1        1 MR6      0.095000
     10 OAK         1.2010   -0.8620    0.8000 os        1 MR6     -0.134000
     11 CAQ         1.2380   -1.0290    2.1520 c1        1 MR6     -0.011000
     12 CAF         1.4590   -2.1630    2.9550 c1        1 MR6     -0.110250
     13 CAD         1.3910   -2.0590    4.3350 c1        1 MR6     -0.110250
     14 CAC         1.1070   -0.8370    4.9250 c1        1 MR6     -0.110250
     15 CAE         0.8890    0.2800    4.1340 c1        1 MR6     -0.110250
     16 CAP         0.9580    0.1750    2.7330 c1        1 MR6     -0.079000
     17 NAJ         0.7480    1.0840    1.7380 n1        1 MR6     -0.131000
     18 HAA1       -3.7150    0.9260   -0.9420 hc        1 MR6      0.086333
     19 HAA2       -3.7430   -0.2410   -2.0370 hc        1 MR6      0.086333
     20 HAA3       -3.7160    1.2910   -2.5000 hc        1 MR6      0.086333
     21 HAH        -1.6710    0.5520    0.2070 ha        1 MR6      0.157000
     22 HAG        -1.6910    0.6630   -3.8830 ha        1 MR6      0.135000
     23 HAB1        1.7740    0.1150   -4.2500 hc        1 MR6      0.086000
     24 HAB2        0.3850    0.1700   -5.0420 hc        1 MR6      0.086000
     25 HAB3        1.1330    1.5270   -4.6430 hc        1 MR6      0.086000
     26 HAI         1.8630    0.5710   -1.8560 ha        1 MR6      0.151000
     27 HAF         1.6590   -3.0230    2.5400 ha        1 MR6      0.144500
     28 HAD         1.5440   -2.8460    4.8920 ha        1 MR6      0.144500
     29 HAC         1.0590   -0.7640    5.8970 ha        1 MR6      0.144500
     30 HAE         0.6890    1.1400    4.5500 ha        1 MR6      0.144500
@<TRIPOS>BOND
     1    1    2 1   
     2    1   18 1   
     3    1   19 1   
     4    1   20 1   
     5    2    3 1   
     6    2    4 1   
     7    3    8 1   
     8    3   21 1   
     9    4   22 1   
    10    5    6 1   
    11    5    7 1   
    12    6   23 1   
    13    6   24 1   
    14    6   25 1   
    15    7   26 1   
    16    9   10 1   
    17    9   17 1   
    18   10   11 1   
    19   11   16 1   
    20   12   13 1   
    21   12   27 1   
    22   13   28 1   
    23   14   15 1   
    24   14   29 1   
    25   15   30 1   
@<TRIPOS>SUBSTRUCTURE
     1 MR6         1 TEMP              0 ****  ****    0 ROOT
