@<TRIPOS>MOLECULE
MR6
   30    32     1     0     0
SMALL
bcc


@<TRIPOS>ATOM
      1 CAA        -0.0310    0.0020   -0.1310 c3        1 MR6     -0.054800
      2 CAL         1.4490    0.0090   -0.0490 ca        1 MR6     -0.082800
      3 CAH         2.0800    0.0090    1.2000 ca        1 MR6     -0.092000
      4 CAG         2.2210    0.0010   -1.2140 ca        1 MR6     -0.109000
      5 CAM         3.6190   -0.0070   -1.1450 ca        1 MR6     -0.082800
      6 CAB         4.4270    0.0000   -2.3870 c3        1 MR6     -0.054800
      7 CAI         4.2470   -0.0090    0.1030 ca        1 MR6     -0.092000
      8 CAN         3.4780    0.0000    1.2740 ca        1 MR6     -0.117900
      9 CAO         4.1310   -0.0000    2.5750 cc        1 MR6      0.600200
     10 OAK         5.5610   -0.0100    2.5500 os        1 MR6     -0.312700
     11 CAQ         5.9260   -0.0080    3.8940 ca        1 MR6      0.034100
     12 CAF         7.1970   -0.0150    4.4490 ca        1 MR6     -0.114000
     13 CAD         7.2570   -0.0110    5.8430 ca        1 MR6     -0.112000
     14 CAC         6.0980   -0.0000    6.6320 ca        1 MR6     -0.146000
     15 CAE         4.8210    0.0070    6.0750 ca        1 MR6     -0.069000
     16 CAP         4.7210    0.0030    4.6810 ca        1 MR6      0.060400
     17 NAJ         3.6150    0.0070    3.8030 nd        1 MR6     -0.558100
     18 HAA1       -0.4810    0.5610    0.7260 hc        1 MR6      0.046867
     19 HAA2       -0.3820    0.4710   -1.0830 hc        1 MR6      0.046867
     20 HAA3       -0.4090   -1.0520   -0.0990 hc        1 MR6      0.046867
     21 HAH         1.4730    0.0170    2.1190 ha        1 MR6      0.154000
     22 HAG         1.7250    0.0010   -2.1970 ha        1 MR6      0.135000
     23 HAB1        3.9010   -0.5460   -3.2090 hc        1 MR6      0.046867
     24 HAB2        4.6010    1.0540   -2.7220 hc        1 MR6      0.046867
     25 HAB3        5.4210   -0.4820   -2.2210 hc        1 MR6      0.046867
     26 HAI         5.3470   -0.0170    0.1680 ha        1 MR6      0.154000
     27 HAF         8.0990   -0.0230    3.8250 ha        1 MR6      0.152000
     28 HAD         8.2420   -0.0160    6.3350 ha        1 MR6      0.137000
     29 HAC         6.2020    0.0030    7.7280 ha        1 MR6      0.137000
     30 HAE         3.9210    0.0150    6.7060 ha        1 MR6      0.152000
@<TRIPOS>BOND
     1    1    2 1   
     2    1   18 1   
     3    1   19 1   
     4    1   20 1   
     5    2    3 ar  
     6    2    4 ar  
     7    3    8 ar  
     8    3   21 1   
     9    4    5 ar  
    10    4   22 1   
    11    5    6 1   
    12    5    7 ar  
    13    6   23 1   
    14    6   24 1   
    15    6   25 1   
    16    7    8 ar  
    17    7   26 1   
    18    8    9 1   
    19    9   10 1   
    20    9   17 2   
    21   10   11 1   
    22   11   12 ar  
    23   11   16 ar  
    24   12   13 ar  
    25   12   27 1   
    26   13   14 ar  
    27   13   28 1   
    28   14   15 ar  
    29   14   29 1   
    30   15   16 ar  
    31   15   30 1   
    32   16   17 1   
@<TRIPOS>SUBSTRUCTURE
     1 MR6         1 TEMP              0 ****  ****    0 ROOT
