@<TRIPOS>MOLECULE
MR6
   30    32     1     0     0
SMALL
bcc


@<TRIPOS>ATOM
      1 CAA         4.1310    2.4690   -0.0020 c3        1 MR6     -0.054800
      2 CAL         3.3150    1.2330    0.0070 ca        1 MR6     -0.082800
      3 CAH         1.9180    1.3180    0.0080 ca        1 MR6     -0.092000
      4 CAG         3.9310   -0.0220    0.0020 ca        1 MR6     -0.109000
      5 CAM         3.1660   -1.1940   -0.0040 ca        1 MR6     -0.082800
      6 CAB         3.8310   -2.5180    0.0060 c3        1 MR6     -0.054800
      7 CAI         1.7720   -1.1070   -0.0060 ca        1 MR6     -0.092000
      8 CAN         1.1480    0.1480    0.0010 ca        1 MR6     -0.117900
      9 CAO        -0.3040    0.2410   -0.0000 cc        1 MR6      0.600200
     10 OAK        -1.0040   -1.0060   -0.0080 os        1 MR6     -0.312700
     11 CAQ        -2.3490   -0.6430   -0.0070 ca        1 MR6      0.034100
     12 CAF        -3.4690   -1.4610   -0.0130 ca        1 MR6     -0.114000
     13 CAD        -4.7030   -0.8090   -0.0100 ca        1 MR6     -0.112000
     14 CAC        -4.7990    0.5900   -0.0020 ca        1 MR6     -0.146000
     15 CAE        -3.6740    1.4120    0.0050 ca        1 MR6     -0.069000
     16 CAP        -2.4200    0.7940    0.0020 ca        1 MR6      0.060400
     17 NAJ        -1.1040    1.3060    0.0060 nd        1 MR6     -0.558100
     18 HAA1        4.2820    2.8180   -1.0550 hc        1 MR6      0.046867
     19 HAA2        3.6240    3.2870    0.5680 hc        1 MR6      0.046867
     20 HAA3        5.1360    2.2900    0.4550 hc        1 MR6      0.046867
     21 HAH         1.4310    2.3060    0.0140 ha        1 MR6      0.154000
     22 HAG         5.0300   -0.0900    0.0020 ha        1 MR6      0.135000
     23 HAB1        4.0560   -2.8230    1.0590 hc        1 MR6      0.046867
     24 HAB2        3.1770   -3.3000   -0.4530 hc        1 MR6      0.046867
     25 HAB3        4.7940   -2.4850   -0.5620 hc        1 MR6      0.046867
     26 HAI         1.1600   -2.0230   -0.0120 ha        1 MR6      0.154000
     27 HAF        -3.3860   -2.5540   -0.0200 ha        1 MR6      0.152000
     28 HAD        -5.6250   -1.4110   -0.0150 ha        1 MR6      0.137000
     29 HAC        -5.7980    1.0530    0.0010 ha        1 MR6      0.137000
     30 HAE        -3.7650    2.5070    0.0110 ha        1 MR6      0.152000
@<TRIPOS>BOND
     1    1    2 1   
     2    1   18 1   
     3    1   19 1   
     4    1   20 1   
     5    2    3 ar  
     6    2    4 ar  
     7    3    8 ar  
     8    3   21 1   
     9    4    5 ar  
    10    4   22 1   
    11    5    6 1   
    12    5    7 ar  
    13    6   23 1   
    14    6   24 1   
    15    6   25 1   
    16    7    8 ar  
    17    7   26 1   
    18    8    9 1   
    19    9   10 1   
    20    9   17 2   
    21   10   11 1   
    22   11   12 ar  
    23   11   16 ar  
    24   12   13 ar  
    25   12   27 1   
    26   13   14 ar  
    27   13   28 1   
    28   14   15 ar  
    29   14   29 1   
    30   15   16 ar  
    31   15   30 1   
    32   16   17 1   
@<TRIPOS>SUBSTRUCTURE
     1 MR6         1 TEMP              0 ****  ****    0 ROOT
