@<TRIPOS>MOLECULE
MR9
   68    72     1     0     0
SMALL
bcc


@<TRIPOS>ATOM
      1 C26        -0.5210    0.2660    0.7160 c3        1 MR9      0.135300
      2 C27         0.9240    0.6020    1.1050 c3        1 MR9      0.121900
      3 O3          1.2460    0.1120    2.4010 os        1 MR9     -0.411600
      4 C28         1.0410   -1.2920    2.5100 c3        1 MR9      0.121900
      5 C29        -0.4020   -1.6780    2.1610 c3        1 MR9      0.135300
      6 N6         -0.8060   -1.1600    0.8560 nh        1 MR9     -0.633000
      7 C20        -2.1620   -1.4970    0.5240 ca        1 MR9      0.059600
      8 C21        -3.2540   -0.9370    1.2110 ca        1 MR9     -0.135000
      9 C22        -4.5630   -1.2660    0.8840 ca        1 MR9     -0.107000
     10 C23        -4.7990   -2.1710   -0.1500 ca        1 MR9     -0.143300
     11 C25        -6.2330   -2.5510   -0.5050 c3        1 MR9      0.688200
     12 F2         -7.1660   -1.5840   -0.2140 f         1 MR9     -0.235967
     13 F3         -6.4420   -2.8260   -1.8340 f         1 MR9     -0.235967
     14 F1         -6.6970   -3.6670    0.1480 f         1 MR9     -0.235967
     15 C24        -3.7480   -2.7450   -0.8580 ca        1 MR9     -0.110000
     16 C19        -2.4090   -2.4260   -0.5400 ca        1 MR9      0.091600
     17 N4         -1.3370   -2.9740   -1.2570 n         1 MR9     -0.461100
     18 C17        -1.3380   -4.1810   -1.9500 c         1 MR9      0.679700
     19 O2         -2.3730   -4.8460   -2.1440 o         1 MR9     -0.583100
     20 C12        -0.0200   -4.6250   -2.4910 ca        1 MR9     -0.150600
     21 C11         1.1630   -4.4690   -1.7670 ca        1 MR9     -0.099000
     22 C13         0.0030   -5.2470   -3.7460 ca        1 MR9     -0.070000
     23 C14         1.2060   -5.6980   -4.2830 ca        1 MR9     -0.137000
     24 C15         2.4100   -5.5460   -3.5840 ca        1 MR9     -0.028300
     25 C16         3.6880   -6.0170   -4.1610 c3        1 MR9     -0.061800
     26 C10         2.3620   -4.9340   -2.3210 ca        1 MR9      0.088100
     27 O1          3.5090   -4.8970   -1.5190 os        1 MR9     -0.359400
     28 C9          4.2350   -3.7120   -1.5190 ca        1 MR9      0.646600
     29 N3          4.1980   -2.8820   -2.5940 nb        1 MR9     -0.711000
     30 C8          5.0030   -1.8060   -2.5580 ca        1 MR9      0.433200
     31 C7          5.8700   -1.5120   -1.4910 ca        1 MR9     -0.277300
     32 C6          5.8870   -2.3680   -0.3900 ca        1 MR9     -0.051000
     33 C5          5.0520   -3.4910   -0.3760 cp        1 MR9     -0.276800
     34 C2          5.0260   -4.3850    0.7920 cp        1 MR9      0.541800
     35 N1          3.8530   -4.5600    1.4450 nb        1 MR9     -0.732000
     36 C3          6.2220   -5.0160    1.1940 ca        1 MR9     -0.409600
     37 C4          6.1410   -5.8720    2.3080 ca        1 MR9      0.465200
     38 N2          5.0110   -6.0950    2.9880 nb        1 MR9     -0.743000
     39 C1          3.8800   -5.4070    2.5440 ca        1 MR9      0.863900
     40 N5          2.7140   -5.5400    3.3190 nh        1 MR9     -0.828900
     41 C18         1.4400   -5.1830    2.7680 c3        1 MR9      0.190100
     42 H261       -0.6810    0.5420   -0.3630 h1        1 MR9      0.047700
     43 H262       -1.2150    0.8950    1.3450 h1        1 MR9      0.047700
     44 H271        1.6450    0.1850    0.3550 h1        1 MR9      0.059450
     45 H272        1.0500    1.7140    1.1860 h1        1 MR9      0.059450
     46 H281        1.7700   -1.8330    1.8510 h1        1 MR9      0.059450
     47 H282        1.2500   -1.5240    3.5870 h1        1 MR9      0.059450
     48 H291       -1.0830   -1.3080    2.9820 h1        1 MR9      0.047700
     49 H292       -0.4770   -2.8000    2.1240 h1        1 MR9      0.047700
     50 H21        -3.0730   -0.2230    2.0310 ha        1 MR9      0.144000
     51 H22        -5.4060   -0.8170    1.4320 ha        1 MR9      0.154000
     52 H24        -3.9750   -3.4570   -1.6730 ha        1 MR9      0.190000
     53 HN4        -0.4520   -2.5290   -1.1300 hn        1 MR9      0.340500
     54 H11         1.1820   -4.0150   -0.7640 ha        1 MR9      0.156000
     55 H13        -0.9420   -5.3850   -4.2970 ha        1 MR9      0.158000
     56 H14         1.2130   -6.1830   -5.2710 ha        1 MR9      0.144000
     57 H161        4.3080   -6.5190   -3.3760 hc        1 MR9      0.057033
     58 H162        4.2670   -5.1430   -4.5560 hc        1 MR9      0.057033
     59 H163        3.5140   -6.7370   -4.9970 hc        1 MR9      0.057033
     60 H8          4.9460   -1.1480   -3.4440 h4        1 MR9      0.029100
     61 H7          6.5110   -0.6220   -1.5250 ha        1 MR9      0.151000
     62 H6          6.5410   -2.1630    0.4710 ha        1 MR9      0.151000
     63 H3          7.1620   -4.8600    0.6550 ha        1 MR9      0.156000
     64 H4          7.0320   -6.4170    2.6730 h4        1 MR9      0.028100
     65 HN5         2.7100   -6.3310    3.9300 hn        1 MR9      0.431800
     66 H181        1.4130   -4.0770    2.5630 h1        1 MR9      0.044700
     67 H182        1.2130   -5.7250    1.8100 h1        1 MR9      0.044700
     68 H183        0.6480   -5.4310    3.5240 h1        1 MR9      0.044700
@<TRIPOS>BOND
     1    1    2 1   
     2    1    6 1   
     3    1   42 1   
     4    1   43 1   
     5    2    3 1   
     6    2   44 1   
     7    2   45 1   
     8    3    4 1   
     9    4    5 1   
    10    4   46 1   
    11    4   47 1   
    12    5    6 1   
    13    5   48 1   
    14    5   49 1   
    15    6    7 1   
    16    7    8 ar  
    17    7   16 ar  
    18    8    9 ar  
    19    8   50 1   
    20    9   10 ar  
    21    9   51 1   
    22   10   11 1   
    23   10   15 ar  
    24   11   12 1   
    25   11   13 1   
    26   11   14 1   
    27   15   16 ar  
    28   15   52 1   
    29   16   17 1   
    30   17   18 1   
    31   17   53 1   
    32   18   19 2   
    33   18   20 1   
    34   20   21 ar  
    35   20   22 ar  
    36   21   26 ar  
    37   21   54 1   
    38   22   23 ar  
    39   22   55 1   
    40   23   24 ar  
    41   23   56 1   
    42   24   25 1   
    43   24   26 ar  
    44   25   57 1   
    45   25   58 1   
    46   25   59 1   
    47   26   27 1   
    48   27   28 1   
    49   28   29 ar  
    50   28   33 ar  
    51   29   30 ar  
    52   30   31 ar  
    53   30   60 1   
    54   31   32 ar  
    55   31   61 1   
    56   32   33 ar  
    57   32   62 1   
    58   33   34 1   
    59   34   35 ar  
    60   34   36 ar  
    61   35   39 ar  
    62   36   37 ar  
    63   36   63 1   
    64   37   38 ar  
    65   37   64 1   
    66   38   39 ar  
    67   39   40 1   
    68   40   41 1   
    69   40   65 1   
    70   41   66 1   
    71   41   67 1   
    72   41   68 1   
@<TRIPOS>SUBSTRUCTURE
     1 MR9         1 TEMP              0 ****  ****    0 ROOT
