@<TRIPOS>MOLECULE
MR9
   68    62     1     0     0
SMALL
bcc


@<TRIPOS>ATOM
      1 C26        -5.4900    0.7390    0.6630 c3        1 MR9     -0.102500
      2 C27        -6.4290   -0.3140    0.0950 c3        1 MR9     -0.025500
      3 O3         -7.5110    0.2540   -0.6170 os        1 MR9     -0.269000
      4 C28        -7.0920    1.1860   -1.5980 c3        1 MR9     -0.025500
      5 C29        -6.1550    2.2420   -1.0350 c3        1 MR9     -0.102500
      6 N6         -5.0660    1.6740   -0.3200 n3        1 MR9     -0.234000
      7 C20        -4.2950    2.7440    0.3220 c2        1 MR9     -0.025000
      8 C21        -4.9520    3.7650    0.9800 c1        1 MR9     -0.133000
      9 C22        -4.2240    4.7470    1.6500 c1        1 MR9     -0.109000
     10 C23        -2.8360    4.7000    1.6560 c1        1 MR9     -0.134000
     11 C25        -2.0230    5.8140    2.3800 c3        1 MR9      0.467000
     12 F2         -2.7930    6.3820    3.3370 f         1 MR9     -0.164333
     13 F3         -0.9180    5.2710    2.9530 f         1 MR9     -0.164333
     14 F1         -1.6550    6.7450    1.4950 f         1 MR9     -0.164333
     15 C24        -2.1770    3.6820    0.9990 c1        1 MR9     -0.115000
     16 C19        -2.9040    2.6970    0.3280 c2        1 MR9      0.103000
     17 N4         -2.2130    1.6140   -0.3240 n         1 MR9     -0.316000
     18 C17        -0.7270    1.6180   -0.3860 c2        1 MR9      0.353000
     19 O2         -0.1170    2.5150    0.1010 o         1 MR9     -0.337000
     20 C12         0.0230    0.5160   -1.1890 c2        1 MR9     -0.123000
     21 C11         1.1330   -0.1140   -0.6300 c2        1 MR9     -0.067000
     22 C13        -0.4780    0.0830   -2.3740 c1        1 MR9     -0.103000
     23 C14         0.1200   -0.9950   -3.0340 c1        1 MR9     -0.132000
     24 C15         1.2110   -1.6150   -2.4850 c1        1 MR9     -0.039000
     25 C16         1.9700   -2.6820   -3.2920 c3        1 MR9     -0.181000
     26 C10         1.7210   -1.1740   -1.2780 c1        1 MR9      0.050000
     27 O1          2.9100   -1.7830   -0.7300 os        1 MR9     -0.149000
     28 C9          2.5740   -2.5170    0.4040 c2        1 MR9      0.140000
     29 N3          1.2680   -2.6080    0.7940 n2        1 MR9     -0.194000
     30 C8          0.9330   -3.3470    1.8810 c1        1 MR9     -0.027000
     31 C7          1.9150   -4.0110    2.5970 c1        1 MR9     -0.124500
     32 C6          3.2210   -3.9210    2.2090 c1        1 MR9     -0.124500
     33 C5          3.5560   -3.1790    1.1170 c1        1 MR9     -0.103000
     34 C2          4.8940   -3.1130    0.6960 c1        1 MR9      0.105000
     35 N1          5.6720   -2.1050    1.1030 n1        1 MR9     -0.226000
     36 C3          5.3710   -4.0220   -0.2080 c1        1 MR9     -0.262000
     37 C4          6.6430   -3.8970   -0.6940 c1        1 MR9     -0.007000
     38 N2          7.4250   -2.8800   -0.2820 n1        1 MR9     -0.211000
     39 C1          6.9510   -1.9800    0.6140 c1        1 MR9      0.143000
     40 N5          7.6870   -0.8400    0.9000 n3        1 MR9     -0.271000
     41 C18         8.9430   -0.6010    0.2280 c3        1 MR9     -0.086000
     42 H261       -4.7050    0.2940    1.0370 h1        1 MR9      0.088250
     43 H262       -5.9490    1.2190    1.3760 h1        1 MR9      0.088250
     44 H271       -6.7800   -0.8490    0.8240 h1        1 MR9      0.095500
     45 H272       -5.9110   -0.9080   -0.5250 h1        1 MR9      0.095500
     46 H281       -7.8970    1.6370   -1.9800 h1        1 MR9      0.095500
     47 H282       -6.6400    0.7140   -2.3000 h1        1 MR9      0.095500
     48 H291       -5.8080    2.7770   -1.7660 h1        1 MR9      0.088250
     49 H292       -6.6570    2.8190   -0.4350 h1        1 MR9      0.088250
     50 H21        -5.9480    3.8000    0.9770 ha        1 MR9      0.144000
     51 H22        -4.6840    5.4570    2.1090 ha        1 MR9      0.154000
     52 H24        -1.2160    3.6520    1.0040 ha        1 MR9      0.191000
     53 HN4        -2.6890    0.9680   -0.7690 hn        1 MR9      0.254000
     54 H11         1.5060    0.2080    0.2520 ha        1 MR9      0.170000
     55 H13        -1.2390    0.5170   -2.7570 ha        1 MR9      0.141000
     56 H14        -0.2430   -1.3060   -3.8900 ha        1 MR9      0.142000
     57 H161        2.2580   -3.4020   -2.6920 hc        1 MR9      0.092333
     58 H162        2.7260   -2.2900   -3.6990 hc        1 MR9      0.092333
     59 H163        1.3730   -3.0550   -3.9930 hc        1 MR9      0.092333
     60 H8         -0.0070   -3.4120    2.1610 ha        1 MR9      0.165000
     61 H7          1.6690   -4.5540    3.3960 ha        1 MR9      0.157000
     62 H6          3.8960   -4.3760    2.7000 ha        1 MR9      0.157000
     63 H3          4.8090   -4.7530   -0.5040 ha        1 MR9      0.162000
     64 H4          6.9850   -4.5490   -1.3420 ha        1 MR9      0.162000
     65 HN5         7.3850   -0.2430    1.5460 hn        1 MR9      0.221000
     66 H181        9.4520    0.0560    0.7220 h1        1 MR9      0.085000
     67 H182        8.7750   -0.2720   -0.6600 h1        1 MR9      0.085000
     68 H183        9.4530   -1.4380    0.1770 h1        1 MR9      0.085000
@<TRIPOS>BOND
     1    1    2 1   
     2    1    6 1   
     3    1   42 1   
     4    1   43 1   
     5    2    3 1   
     6    2   44 1   
     7    2   45 1   
     8    3    4 1   
     9    4    5 1   
    10    4   46 1   
    11    4   47 1   
    12    5    6 1   
    13    5   48 1   
    14    5   49 1   
    15    6    7 1   
    16    7    8 1   
    17    7   16 1   
    18    8   50 1   
    19    9   10 1   
    20    9   51 1   
    21   10   11 1   
    22   11   12 1   
    23   11   13 1   
    24   11   14 1   
    25   15   16 1   
    26   15   52 1   
    27   16   17 1   
    28   17   18 1   
    29   17   53 1   
    30   18   19 1   
    31   18   20 1   
    32   20   21 1   
    33   20   22 1   
    34   21   26 1   
    35   21   54 1   
    36   22   55 1   
    37   23   24 1   
    38   23   56 1   
    39   24   25 1   
    40   25   57 1   
    41   25   58 1   
    42   25   59 1   
    43   26   27 1   
    44   27   28 1   
    45   28   29 1   
    46   28   33 1   
    47   29   30 1   
    48   30   60 1   
    49   31   32 1   
    50   31   61 1   
    51   32   62 1   
    52   34   36 1   
    53   35   39 1   
    54   36   63 1   
    55   37   38 1   
    56   37   64 1   
    57   39   40 1   
    58   40   41 1   
    59   40   65 1   
    60   41   66 1   
    61   41   67 1   
    62   41   68 1   
@<TRIPOS>SUBSTRUCTURE
     1 MR9         1 TEMP              0 ****  ****    0 ROOT
