@<TRIPOS>MOLECULE
MR9
   70    74     1     0     0
SMALL
bcc


@<TRIPOS>ATOM
      1 C26        -0.5710    0.5070    0.3380 c3        1 MR9      0.124300
      2 C27         0.8520    0.4910    0.9110 c3        1 MR9      0.124900
      3 O3          0.8950   -0.1100    2.1970 os        1 MR9     -0.391600
      4 C28         0.3560   -1.4230    2.2080 c3        1 MR9      0.124900
      5 C29        -1.0800   -1.4540    1.6700 c3        1 MR9      0.124300
      6 N6         -1.1720   -0.8300    0.3480 nh        1 MR9     -0.668000
      7 C20        -2.5060   -0.8430   -0.1770 ca        1 MR9      0.143600
      8 C21        -3.5780   -0.1490    0.4090 ca        1 MR9     -0.139000
      9 C22        -4.8580   -0.1970   -0.1420 ca        1 MR9     -0.017000
     10 C23        -5.0900   -0.9470   -1.2950 ca        1 MR9     -0.152300
     11 C25        -6.5010   -1.0230   -1.8910 c3        1 MR9      0.693200
     12 F2         -7.2550    0.0990   -1.6660 f         1 MR9     -0.213633
     13 F3         -6.5130   -1.1980   -3.2520 f         1 MR9     -0.213633
     14 F1         -7.2440   -2.0620   -1.3930 f         1 MR9     -0.213633
     15 C24        -4.0540   -1.6470   -1.9090 ca        1 MR9     -0.041000
     16 C19        -2.7620   -1.5950   -1.3610 ca        1 MR9     -0.049400
     17 N4         -1.6760   -2.3130   -2.0300 n4        1 MR9     -0.538200
     18 C17        -1.7670   -3.8330   -1.9250 c         1 MR9      0.571700
     19 O2         -2.8800   -4.3230   -1.8380 o         1 MR9     -0.387100
     20 C12        -0.4710   -4.5180   -2.0230 ca        1 MR9     -0.205600
     21 C11         0.6060   -4.1840   -1.1940 ca        1 MR9     -0.075000
     22 C13        -0.3590   -5.5610   -2.9560 ca        1 MR9     -0.048000
     23 C14         0.8460   -6.2420   -3.0890 ca        1 MR9     -0.122000
     24 C15         1.9530   -5.9150   -2.2930 ca        1 MR9     -0.000300
     25 C16         3.2220   -6.6540   -2.4650 c3        1 MR9     -0.073800
     26 C10         1.8040   -4.8920   -1.3350 ca        1 MR9      0.088100
     27 O1          2.8580   -4.6850   -0.4390 os        1 MR9     -0.367400
     28 C9          3.5440   -3.4750   -0.5160 ca        1 MR9      0.656600
     29 N3          2.9930   -2.4100   -1.1530 nb        1 MR9     -0.735000
     30 C8          3.7120   -1.2740   -1.1810 ca        1 MR9      0.459200
     31 C7          4.9860   -1.1400   -0.5960 ca        1 MR9     -0.248300
     32 C6          5.5360   -2.2400    0.0570 ca        1 MR9     -0.031000
     33 C5          4.8170   -3.4460    0.1120 cp        1 MR9     -0.313800
     34 C2          5.4130   -4.6020    0.7920 cp        1 MR9      0.546800
     35 N1          4.7670   -5.1670    1.8490 nb        1 MR9     -0.656000
     36 C3          6.6740   -5.0790    0.3560 ca        1 MR9     -0.298600
     37 C4          7.2430   -6.1650    1.0480 ca        1 MR9      0.465200
     38 N2          6.6380   -6.7500    2.1010 nb        1 MR9     -0.657000
     39 C1          5.4250   -6.2080    2.4490 ca        1 MR9      0.696900
     40 N5          4.7490   -6.8260    3.6340 n4        1 MR9     -0.733700
     41 C18         4.1930   -8.1610    3.3030 c3        1 MR9      0.086100
     42 H261       -0.5320    0.8660   -0.7270 h1        1 MR9      0.062200
     43 H262       -1.1900    1.2400    0.9330 h1        1 MR9      0.062200
     44 H271        1.5540   -0.0460    0.2180 h1        1 MR9      0.061700
     45 H272        1.2050    1.5440    1.0830 h1        1 MR9      0.061700
     46 H281        0.3630   -1.7200    3.2910 h1        1 MR9      0.061700
     47 H282        1.0150   -2.1100    1.6130 h1        1 MR9      0.061700
     48 H291       -1.7540   -0.9390    2.4150 h1        1 MR9      0.062200
     49 H292       -1.4140   -2.5240    1.5770 h1        1 MR9      0.062200
     50 H21        -3.4090    0.4480    1.3230 ha        1 MR9      0.177000
     51 H22        -5.6880    0.3610    0.3310 ha        1 MR9      0.191000
     52 H24        -4.2700   -2.2440   -2.8150 ha        1 MR9      0.179000
     53 HN4        -0.7690   -2.0110   -1.6410 hn        1 MR9      0.473300
     54 H11         0.5240   -3.3980   -0.4250 ha        1 MR9      0.162000
     55 H13        -1.2240   -5.8420   -3.5810 ha        1 MR9      0.172000
     56 H14         0.9360   -7.0520   -3.8330 ha        1 MR9      0.177000
     57 H161        3.1060   -7.7040   -2.0900 hc        1 MR9      0.069367
     58 H162        3.4990   -6.7030   -3.5500 hc        1 MR9      0.069367
     59 H163        4.0560   -6.1670   -1.9050 hc        1 MR9      0.069367
     60 H8          3.2380   -0.4240   -1.7090 h4        1 MR9      0.043100
     61 H7          5.5300   -0.1850   -0.6580 ha        1 MR9      0.181000
     62 H6          6.5290   -2.1680    0.5300 ha        1 MR9      0.164000
     63 H3          7.1910   -4.6140   -0.4970 ha        1 MR9      0.198000
     64 H4          8.2260   -6.5960    0.7620 h4        1 MR9      0.082100
     65 HN5         5.4440   -6.9170    4.3900 hn        1 MR9      0.477800
     66 H181        3.6710   -8.5650    4.2130 hx        1 MR9      0.116367
     67 H182        3.4630   -8.0620    2.4550 hx        1 MR9      0.116367
     68 H183        5.0250   -8.8560    3.0050 hx        1 MR9      0.116367
     69 H42        -1.6960   -2.0690   -3.0290 hn        1 MR9      0.473300
     70 H52         3.9940   -6.2010    3.9520 hn        1 MR9      0.477800
@<TRIPOS>BOND
     1    1    2 1   
     2    1    6 1   
     3    1   42 1   
     4    1   43 1   
     5    2    3 1   
     6    2   44 1   
     7    2   45 1   
     8    3    4 1   
     9    4    5 1   
    10    4   46 1   
    11    4   47 1   
    12    5    6 1   
    13    5   48 1   
    14    5   49 1   
    15    6    7 1   
    16    7    8 ar  
    17    7   16 ar  
    18    8    9 ar  
    19    8   50 1   
    20    9   10 ar  
    21    9   51 1   
    22   10   11 1   
    23   10   15 ar  
    24   11   12 1   
    25   11   13 1   
    26   11   14 1   
    27   15   16 ar  
    28   15   52 1   
    29   16   17 1   
    30   17   18 1   
    31   17   53 1   
    32   17   69 1   
    33   18   19 2   
    34   18   20 1   
    35   20   21 ar  
    36   20   22 ar  
    37   21   26 ar  
    38   21   54 1   
    39   22   23 ar  
    40   22   55 1   
    41   23   24 ar  
    42   23   56 1   
    43   24   25 1   
    44   24   26 ar  
    45   25   57 1   
    46   25   58 1   
    47   25   59 1   
    48   26   27 1   
    49   27   28 1   
    50   28   29 ar  
    51   28   33 ar  
    52   29   30 ar  
    53   30   31 ar  
    54   30   60 1   
    55   31   32 ar  
    56   31   61 1   
    57   32   33 ar  
    58   32   62 1   
    59   33   34 1   
    60   34   35 ar  
    61   34   36 ar  
    62   35   39 ar  
    63   36   37 ar  
    64   36   63 1   
    65   37   38 ar  
    66   37   64 1   
    67   38   39 ar  
    68   39   40 1   
    69   40   41 1   
    70   40   65 1   
    71   40   70 1   
    72   41   66 1   
    73   41   67 1   
    74   41   68 1   
@<TRIPOS>SUBSTRUCTURE
     1 MR9         1 TEMP              0 ****  ****    0 ROOT
