@<TRIPOS>MOLECULE
MR9
   68    72     1     0     0
SMALL
bcc


@<TRIPOS>ATOM
      1 C26        -0.5200    0.2680    0.7040 c3        1 MR9      0.135300
      2 C27         0.9250    0.6060    1.0930 c3        1 MR9      0.121900
      3 O3          1.2460    0.1220    2.3920 os        1 MR9     -0.411600
      4 C28         1.0400   -1.2810    2.5070 c3        1 MR9      0.121900
      5 C29        -0.4020   -1.6690    2.1600 c3        1 MR9      0.135300
      6 N6         -0.8050   -1.1570    0.8520 nh        1 MR9     -0.633000
      7 C20        -2.1610   -1.4950    0.5210 ca        1 MR9      0.059600
      8 C21        -3.2530   -0.9330    1.2050 ca        1 MR9     -0.135000
      9 C22        -4.5620   -1.2640    0.8800 ca        1 MR9     -0.107000
     10 C23        -4.7980   -2.1720   -0.1510 ca        1 MR9     -0.143300
     11 C25        -6.2320   -2.5530   -0.5050 c3        1 MR9      0.688200
     12 F2         -7.1650   -1.5860   -0.2160 f         1 MR9     -0.235967
     13 F3         -6.4410   -2.8320   -1.8330 f         1 MR9     -0.235967
     14 F1         -6.6950   -3.6680    0.1510 f         1 MR9     -0.235967
     15 C24        -3.7470   -2.7470   -0.8570 ca        1 MR9     -0.110000
     16 C19        -2.4080   -2.4280   -0.5410 ca        1 MR9      0.092600
     17 N4         -1.3360   -2.9770   -1.2570 ns        1 MR9     -0.461100
     18 C17        -1.3370   -4.1850   -1.9480 c         1 MR9      0.679700
     19 O2         -2.3720   -4.8500   -2.1410 o         1 MR9     -0.583100
     20 C12        -0.0190   -4.6300   -2.4890 ca        1 MR9     -0.150600
     21 C11         1.1640   -4.4730   -1.7650 ca        1 MR9     -0.099000
     22 C13         0.0040   -5.2530   -3.7430 ca        1 MR9     -0.070000
     23 C14         1.2070   -5.7040   -4.2800 ca        1 MR9     -0.138000
     24 C15         2.4110   -5.5510   -3.5810 ca        1 MR9     -0.028300
     25 C16         3.6890   -6.0230   -4.1570 c3        1 MR9     -0.061800
     26 C10         2.3630   -4.9390   -2.3170 ca        1 MR9      0.088100
     27 O1          3.5100   -4.9020   -1.5150 os        1 MR9     -0.359400
     28 C9          4.2370   -3.7170   -1.5170 ca        1 MR9      0.646600
     29 N3          4.2010   -2.8890   -2.5930 nb        1 MR9     -0.711000
     30 C8          5.0070   -1.8140   -2.5580 ca        1 MR9      0.433200
     31 C7          5.8730   -1.5170   -1.4910 ca        1 MR9     -0.277300
     32 C6          5.8880   -2.3710   -0.3890 ca        1 MR9     -0.051000
     33 C5          5.0530   -3.4940   -0.3730 cp        1 MR9     -0.276800
     34 C2          5.0240   -4.3860    0.7970 cp        1 MR9      0.541800
     35 N1          3.8500   -4.5590    1.4480 nb        1 MR9     -0.732000
     36 C3          6.2200   -5.0170    1.2010 ca        1 MR9     -0.409600
     37 C4          6.1360   -5.8700    2.3170 ca        1 MR9      0.465200
     38 N2          5.0050   -6.0910    2.9960 nb        1 MR9     -0.743000
     39 C1          3.8750   -5.4040    2.5490 ca        1 MR9      0.863900
     40 N5          2.7070   -5.5340    3.3220 nu        1 MR9     -0.828900
     41 C18         1.4350   -5.1770    2.7680 c3        1 MR9      0.190100
     42 H261       -0.6790    0.5390   -0.3760 h1        1 MR9      0.047700
     43 H262       -1.2140    0.9000    1.3300 h1        1 MR9      0.047700
     44 H271        1.0510    1.7180    1.1690 h1        1 MR9      0.059450
     45 H272        1.6470    0.1850    0.3450 h1        1 MR9      0.059450
     46 H281        1.7700   -1.8260    1.8510 h1        1 MR9      0.059450
     47 H282        1.2500   -1.5080    3.5860 h1        1 MR9      0.059450
     48 H291       -1.0830   -1.2950    2.9780 h1        1 MR9      0.047700
     49 H292       -0.4780   -2.7910    2.1280 h1        1 MR9      0.047700
     50 H21        -3.0720   -0.2170    2.0240 ha        1 MR9      0.144000
     51 H22        -5.4050   -0.8130    1.4270 ha        1 MR9      0.154000
     52 H24        -3.9740   -3.4620   -1.6700 ha        1 MR9      0.190000
     53 HN4        -0.4500   -2.5320   -1.1300 hn        1 MR9      0.340500
     54 H11         1.1830   -4.0190   -0.7620 ha        1 MR9      0.156000
     55 H13        -0.9410   -5.3910   -4.2940 ha        1 MR9      0.158000
     56 H14         1.2140   -6.1900   -5.2680 ha        1 MR9      0.144000
     57 H161        4.2670   -5.1490   -4.5550 hc        1 MR9      0.057033
     58 H162        4.3100   -6.5220   -3.3710 hc        1 MR9      0.057033
     59 H163        3.5150   -6.7450   -4.9910 hc        1 MR9      0.057033
     60 H8          4.9520   -1.1570   -3.4460 h4        1 MR9      0.029100
     61 H7          6.5160   -0.6280   -1.5260 ha        1 MR9      0.151000
     62 H6          6.5420   -2.1660    0.4730 ha        1 MR9      0.151000
     63 H3          7.1600   -4.8630    0.6630 ha        1 MR9      0.156000
     64 H4          7.0260   -6.4150    2.6840 h4        1 MR9      0.028100
     65 HN5         2.7020   -6.3240    3.9340 hn        1 MR9      0.431800
     66 H181        1.2090   -5.7210    1.8110 h1        1 MR9      0.044700
     67 H182        1.4090   -4.0720    2.5610 h1        1 MR9      0.044700
     68 H183        0.6420   -5.4220    3.5230 h1        1 MR9      0.044700
@<TRIPOS>BOND
     1    1    2 1   
     2    1    6 1   
     3    1   42 1   
     4    1   43 1   
     5    2    3 1   
     6    2   44 1   
     7    2   45 1   
     8    3    4 1   
     9    4    5 1   
    10    4   46 1   
    11    4   47 1   
    12    5    6 1   
    13    5   48 1   
    14    5   49 1   
    15    6    7 1   
    16    7    8 ar  
    17    7   16 ar  
    18    8    9 ar  
    19    8   50 1   
    20    9   10 ar  
    21    9   51 1   
    22   10   11 1   
    23   10   15 ar  
    24   11   12 1   
    25   11   13 1   
    26   11   14 1   
    27   15   16 ar  
    28   15   52 1   
    29   16   17 1   
    30   17   18 1   
    31   17   53 1   
    32   18   19 2   
    33   18   20 1   
    34   20   21 ar  
    35   20   22 ar  
    36   21   26 ar  
    37   21   54 1   
    38   22   23 ar  
    39   22   55 1   
    40   23   24 ar  
    41   23   56 1   
    42   24   25 1   
    43   24   26 ar  
    44   25   57 1   
    45   25   58 1   
    46   25   59 1   
    47   26   27 1   
    48   27   28 1   
    49   28   29 ar  
    50   28   33 ar  
    51   29   30 ar  
    52   30   31 ar  
    53   30   60 1   
    54   31   32 ar  
    55   31   61 1   
    56   32   33 ar  
    57   32   62 1   
    58   33   34 1   
    59   34   35 ar  
    60   34   36 ar  
    61   35   39 ar  
    62   36   37 ar  
    63   36   63 1   
    64   37   38 ar  
    65   37   64 1   
    66   38   39 ar  
    67   39   40 1   
    68   40   41 1   
    69   40   65 1   
    70   41   66 1   
    71   41   67 1   
    72   41   68 1   
@<TRIPOS>SUBSTRUCTURE
     1 MR9         1 TEMP              0 ****  ****    0 ROOT
