@<TRIPOS>MOLECULE
MR9
   68    72     1     0     0
SMALL
bcc


@<TRIPOS>ATOM
      1 C26        -3.5520   -5.5430   -0.5220 c3        1 MR9      0.135300
      2 C27        -4.8610   -5.9070   -1.2330 c3        1 MR9      0.121900
      3 O3         -5.9830   -5.7730   -0.3690 os        1 MR9     -0.411600
      4 C28        -6.0880   -4.4630    0.1750 c3        1 MR9      0.121900
      5 C29        -4.8120   -4.0610    0.9260 c3        1 MR9      0.135300
      6 N6         -3.6180   -4.2240    0.1010 nh        1 MR9     -0.634000
      7 C20        -2.4130   -3.8690    0.7970 ca        1 MR9      0.061600
      8 C21        -1.9050   -4.6520    1.8490 ca        1 MR9     -0.136000
      9 C22        -0.7390   -4.3010    2.5170 ca        1 MR9     -0.106000
     10 C23        -0.0560   -3.1480    2.1350 ca        1 MR9     -0.144300
     11 C25         1.2160   -2.7470    2.8750 c3        1 MR9      0.688200
     12 F2          1.9080   -3.7990    3.4260 f         1 MR9     -0.235967
     13 F3          2.1500   -2.1000    2.1040 f         1 MR9     -0.235967
     14 F1          1.0060   -1.8970    3.9340 f         1 MR9     -0.235967
     15 C24        -0.5210   -2.3470    1.0980 ca        1 MR9     -0.107000
     16 C19        -1.7060   -2.6840    0.4060 ca        1 MR9      0.090600
     17 N4         -2.1750   -1.9050   -0.6610 n         1 MR9     -0.461100
     18 C17        -1.9600   -0.5400   -0.8360 c         1 MR9      0.679700
     19 O2         -1.1600    0.1090   -0.1370 o         1 MR9     -0.584100
     20 C12        -2.7200    0.1070   -1.9450 ca        1 MR9     -0.148600
     21 C11        -4.0400   -0.2420   -2.2380 ca        1 MR9     -0.100000
     22 C13        -2.0850    1.1190   -2.6780 ca        1 MR9     -0.070000
     23 C14        -2.7600    1.7700   -3.7050 ca        1 MR9     -0.137000
     24 C15        -4.0830    1.4370   -4.0250 ca        1 MR9     -0.030300
     25 C16        -4.8030    2.1440   -5.1060 c3        1 MR9     -0.057800
     26 C10        -4.7050    0.4290   -3.2700 ca        1 MR9      0.089100
     27 O1         -6.0670    0.1670   -3.4590 os        1 MR9     -0.358400
     28 C9         -6.3890   -0.9770   -4.1810 ca        1 MR9      0.643600
     29 N3         -5.5280   -1.4680   -5.1100 nb        1 MR9     -0.709000
     30 C8         -5.9550   -2.5150   -5.8380 ca        1 MR9      0.433200
     31 C7         -7.2230   -3.1060   -5.6940 ca        1 MR9     -0.277300
     32 C6         -8.0880   -2.5980   -4.7250 ca        1 MR9     -0.051000
     33 C5         -7.6790   -1.5210   -3.9310 cp        1 MR9     -0.275800
     34 C2         -8.5580   -0.9970   -2.8730 cp        1 MR9      0.541800
     35 N1         -8.1140   -1.0250   -1.5950 nb        1 MR9     -0.732000
     36 C3         -9.8300   -0.4990   -3.2270 ca        1 MR9     -0.409600
     37 C4        -10.6250    0.0020   -2.1800 ca        1 MR9      0.465200
     38 N2        -10.2400    0.0110   -0.8990 nb        1 MR9     -0.743000
     39 C1         -8.9810   -0.5300   -0.6300 ca        1 MR9      0.863900
     40 N5         -8.6130   -0.6350    0.7230 nh        1 MR9     -0.828900
     41 C18        -7.2380   -0.8290    1.0810 c3        1 MR9      0.190100
     42 H261       -3.3210   -6.3510    0.2320 h1        1 MR9      0.047700
     43 H262       -2.7190   -5.5240   -1.2780 h1        1 MR9      0.047700
     44 H271       -5.0090   -5.2690   -2.1440 h1        1 MR9      0.059700
     45 H272       -4.8540   -6.9920   -1.5180 h1        1 MR9      0.059700
     46 H281       -6.9500   -4.5230    0.8890 h1        1 MR9      0.059700
     47 H282       -6.3160   -3.7300   -0.6430 h1        1 MR9      0.059700
     48 H291       -4.8870   -2.9760    1.2130 h1        1 MR9      0.047700
     49 H292       -4.7450   -4.6700    1.8740 h1        1 MR9      0.047700
     50 H21        -2.4440   -5.5630    2.1590 ha        1 MR9      0.144000
     51 H22        -0.3560   -4.9270    3.3380 ha        1 MR9      0.153000
     52 H24         0.0460   -1.4390    0.8220 ha        1 MR9      0.189000
     53 HN4        -2.8570   -2.3330   -1.2510 hn        1 MR9      0.340500
     54 H11        -4.5840   -1.0100   -1.6670 ha        1 MR9      0.156000
     55 H13        -1.0490    1.3980   -2.4230 ha        1 MR9      0.158000
     56 H14        -2.2500    2.5610   -4.2780 ha        1 MR9      0.144000
     57 H161       -5.5060    1.4480   -5.6280 hc        1 MR9      0.055367
     58 H162       -5.4020    2.9850   -4.6750 hc        1 MR9      0.055367
     59 H163       -4.0890    2.5640   -5.8560 hc        1 MR9      0.055367
     60 H8         -5.2310   -2.8940   -6.5830 h4        1 MR9      0.029100
     61 H7         -7.5170   -3.9520   -6.3270 ha        1 MR9      0.151000
     62 H6         -9.0830   -3.0430   -4.5710 ha        1 MR9      0.151000
     63 H3        -10.1720   -0.4870   -4.2660 ha        1 MR9      0.156000
     64 H4        -11.6270    0.4260   -2.3790 h4        1 MR9      0.028100
     65 HN5        -9.1390   -0.0540    1.3420 hn        1 MR9      0.431800
     66 H181       -6.8850   -1.8270    0.7010 h1        1 MR9      0.044700
     67 H182       -7.1630   -0.8200    2.2010 h1        1 MR9      0.044700
     68 H183       -6.5640   -0.0330    0.6630 h1        1 MR9      0.044700
@<TRIPOS>BOND
     1    1    2 1   
     2    1    6 1   
     3    1   42 1   
     4    1   43 1   
     5    2    3 1   
     6    2   44 1   
     7    2   45 1   
     8    3    4 1   
     9    4    5 1   
    10    4   46 1   
    11    4   47 1   
    12    5    6 1   
    13    5   48 1   
    14    5   49 1   
    15    6    7 1   
    16    7    8 ar  
    17    7   16 ar  
    18    8    9 ar  
    19    8   50 1   
    20    9   10 ar  
    21    9   51 1   
    22   10   11 1   
    23   10   15 ar  
    24   11   12 1   
    25   11   13 1   
    26   11   14 1   
    27   15   16 ar  
    28   15   52 1   
    29   16   17 1   
    30   17   18 1   
    31   17   53 1   
    32   18   19 2   
    33   18   20 1   
    34   20   21 ar  
    35   20   22 ar  
    36   21   26 ar  
    37   21   54 1   
    38   22   23 ar  
    39   22   55 1   
    40   23   24 ar  
    41   23   56 1   
    42   24   25 1   
    43   24   26 ar  
    44   25   57 1   
    45   25   58 1   
    46   25   59 1   
    47   26   27 1   
    48   27   28 1   
    49   28   29 ar  
    50   28   33 ar  
    51   29   30 ar  
    52   30   31 ar  
    53   30   60 1   
    54   31   32 ar  
    55   31   61 1   
    56   32   33 ar  
    57   32   62 1   
    58   33   34 1   
    59   34   35 ar  
    60   34   36 ar  
    61   35   39 ar  
    62   36   37 ar  
    63   36   63 1   
    64   37   38 ar  
    65   37   64 1   
    66   38   39 ar  
    67   39   40 1   
    68   40   41 1   
    69   40   65 1   
    70   41   66 1   
    71   41   67 1   
    72   41   68 1   
@<TRIPOS>SUBSTRUCTURE
     1 MR9         1 TEMP              0 ****  ****    0 ROOT
