@<TRIPOS>MOLECULE
MRA
   38    33     1     0     0
SMALL
bcc


@<TRIPOS>ATOM
      1 C1         -3.8840   -0.0330   -1.5980 c1        1 MRA     -0.136000
      2 C2         -2.5670    0.0700   -1.1730 c1        1 MRA      0.097000
      3 C3         -1.7360   -1.0380   -1.2180 c1        1 MRA      0.019000
      4 C4         -2.2200   -2.2480   -1.6880 c2        1 MRA     -0.130000
      5 C5         -3.5370   -2.3510   -2.1140 c1        1 MRA     -0.109000
      6 C6         -4.3680   -1.2440   -2.0680 c1        1 MRA      0.052000
      7 C7         -5.7780   -1.3360   -2.6070 c1        1 MRA     -0.138000
      8 C8         -6.8880   -1.4080   -3.0310 c1        1 MRA     -0.176000
      9 N1         -0.3850   -0.9290   -0.7990 n2        1 MRA     -0.276000
     10 C9          0.3590    0.2410   -1.1020 c2        1 MRA      0.144000
     11 C10         0.9900    0.9420   -0.0870 c2        1 MRA     -0.198000
     12 C11         1.7590    2.0560   -0.3890 c1        1 MRA     -0.048000
     13 C12         1.8950    2.4680   -1.7050 c1        1 MRA     -0.198000
     14 C13         1.2650    1.7670   -2.7190 c1        1 MRA      0.121000
     15 C14         0.4970    0.6530   -2.4190 c1        1 MRA     -0.016000
     16 F1         -0.0760   -0.0510   -3.4040 f         1 MRA     -0.085000
     17 F2          1.3850    2.1740   -3.9900 f         1 MRA     -0.084000
     18 C15         0.9010    0.4490    1.3400 c2        1 MRA      0.309000
     19 O1          0.2770   -0.5610    1.5960 o         1 MRA     -0.335000
     20 N2          1.5780    1.1470    2.3750 n         1 MRA     -0.193000
     21 O2          2.1540    0.4530    3.4040 os        1 MRA     -0.203000
     22 C16         3.5560    0.5470    3.3170 c3        1 MRA     -0.028000
     23 C17         4.1850   -0.2720    4.4230 c3        1 MRA     -0.026000
     24 O3          3.3860   -1.4050    4.6820 oh        1 MRA     -0.329000
     25 F3         -2.1090    1.2310   -0.6870 f         1 MRA     -0.095000
     26 H1         -4.4680    0.7460   -1.5660 ha        1 MRA      0.160000
     27 H4         -1.6340   -3.0300   -1.7210 ha        1 MRA      0.147000
     28 H5         -3.8770   -3.2020   -2.4440 ha        1 MRA      0.148000
     29 H8         -7.7990   -1.4670   -3.3780 DU        1 MRA      0.228000
     30 HN1         0.0040   -1.6080   -0.3320 hn        1 MRA      0.259000
     31 H11         2.2030    2.5500    0.3260 ha        1 MRA      0.156000
     32 H12         2.4360    3.2530   -1.9170 ha        1 MRA      0.161000
     33 HN2         1.6120    2.0570    2.3640 hn        1 MRA      0.221000
     34 H161        3.8530    0.2040    2.4480 h1        1 MRA      0.107000
     35 H162        3.8270    1.4830    3.4090 h1        1 MRA      0.107000
     36 H171        4.2520    0.2740    5.2360 h1        1 MRA      0.082000
     37 H172        5.0780   -0.5590    4.1480 h1        1 MRA      0.082000
     38 HO3         3.8750   -2.0250    5.0890 ho        1 MRA      0.203000
@<TRIPOS>BOND
     1    1    6 1   
     2    1   26 1   
     3    2    3 1   
     4    2   25 1   
     5    3    4 1   
     6    4    5 1   
     7    4   27 1   
     8    5   28 1   
     9    6    7 1   
    10    7    8 1   
    11    9   10 1   
    12    9   30 1   
    13   10   11 1   
    14   10   15 1   
    15   11   12 1   
    16   11   18 1   
    17   12   31 1   
    18   13   14 1   
    19   13   32 1   
    20   14   17 1   
    21   15   16 1   
    22   18   19 1   
    23   18   20 1   
    24   20   21 1   
    25   20   33 1   
    26   21   22 1   
    27   22   23 1   
    28   22   34 1   
    29   22   35 1   
    30   23   24 1   
    31   23   36 1   
    32   23   37 1   
    33   24   38 1   
@<TRIPOS>SUBSTRUCTURE
     1 MRA         1 TEMP              0 ****  ****    0 ROOT
