@<TRIPOS>MOLECULE
MRA
   38    39     1     0     0
SMALL
bcc


@<TRIPOS>ATOM
      1 C1          2.7050   -2.7160   -0.6750 ca        1 MRA     -0.110000
      2 C2          1.7830   -1.7840   -1.1680 ca        1 MRA      0.073900
      3 C3          1.4910   -0.5890   -0.4370 ca        1 MRA      0.137600
      4 C4          2.1530   -0.3990    0.7930 ca        1 MRA     -0.165000
      5 C5          3.0680   -1.3280    1.2710 ca        1 MRA     -0.083000
      6 C6          3.3540   -2.4940    0.5460 ca        1 MRA      0.014000
      7 C7          4.2820   -3.4320    1.0370 cg        1 MRA     -0.126000
      8 C8          5.0720   -4.2290    1.4550 c1        1 MRA     -0.129500
      9 N1          0.5960    0.3430   -0.9810 nh        1 MRA     -0.630000
     10 C9          0.1570    1.4770   -0.2850 ca        1 MRA      0.181600
     11 C10        -1.2160    1.6700    0.0190 ca        1 MRA     -0.194600
     12 C11        -1.6660    2.8560    0.6040 ca        1 MRA     -0.067000
     13 C12        -0.7820    3.8730    0.9350 ca        1 MRA     -0.170000
     14 C13         0.5860    3.7110    0.6690 ca        1 MRA      0.132900
     15 C14         1.0640    2.5260    0.0510 ca        1 MRA      0.067900
     16 F1          2.3850    2.4290   -0.2190 f         1 MRA     -0.107900
     17 F2          1.4620    4.6900    0.9860 f         1 MRA     -0.115900
     18 C15        -2.2080    0.6080   -0.3150 c         1 MRA      0.621700
     19 O1         -2.2570    0.0620   -1.4290 o         1 MRA     -0.553100
     20 N2         -3.1900    0.3400    0.6880 n         1 MRA     -0.347400
     21 O2         -3.8090   -0.8420    0.5710 os        1 MRA     -0.279900
     22 C16        -4.9970   -0.8230   -0.2720 c3        1 MRA      0.084400
     23 C17        -5.5640   -2.2330   -0.1540 c3        1 MRA      0.125400
     24 O3         -6.1570   -2.4540    1.1080 oh        1 MRA     -0.596800
     25 F3          1.1630   -2.0350   -2.3490 f         1 MRA     -0.136900
     26 H1          2.9130   -3.6250   -1.2610 ha        1 MRA      0.159000
     27 H4          1.9580    0.5100    1.3840 ha        1 MRA      0.143000
     28 H5          3.5740   -1.1450    2.2320 ha        1 MRA      0.146000
     29 H8          5.7720   -4.9340    1.8240 ha        1 MRA      0.168500
     30 HN1        -0.0690   -0.0400   -1.6310 hn        1 MRA      0.465800
     31 H11        -2.7420    2.9980    0.8010 ha        1 MRA      0.159000
     32 H12        -1.1370    4.8060    1.3970 ha        1 MRA      0.164000
     33 HN2        -2.8140    0.3960    1.6290 hn        1 MRA      0.303500
     34 H161       -5.7220   -0.0610    0.1090 h1        1 MRA      0.066200
     35 H162       -4.6950   -0.5960   -1.3260 h1        1 MRA      0.066200
     36 H171       -6.3990   -2.3590   -0.8940 h1        1 MRA      0.062200
     37 H172       -4.7600   -2.9920   -0.3480 h1        1 MRA      0.062200
     38 HO3        -5.4610   -2.3520    1.7690 ho        1 MRA      0.407000
@<TRIPOS>BOND
     1    1    2 ar  
     2    1    6 ar  
     3    1   26 1   
     4    2    3 ar  
     5    2   25 1   
     6    3    4 ar  
     7    3    9 1   
     8    4    5 ar  
     9    4   27 1   
    10    5    6 ar  
    11    5   28 1   
    12    6    7 1   
    13    7    8 3   
    14    8   29 1   
    15    9   10 1   
    16    9   30 1   
    17   10   11 ar  
    18   10   15 ar  
    19   11   12 ar  
    20   11   18 1   
    21   12   13 ar  
    22   12   31 1   
    23   13   14 ar  
    24   13   32 1   
    25   14   15 ar  
    26   14   17 1   
    27   15   16 1   
    28   18   19 2   
    29   18   20 1   
    30   20   21 1   
    31   20   33 1   
    32   21   22 1   
    33   22   23 1   
    34   22   34 1   
    35   22   35 1   
    36   23   24 1   
    37   23   36 1   
    38   23   37 1   
    39   24   38 1   
@<TRIPOS>SUBSTRUCTURE
     1 MRA         1 TEMP              0 ****  ****    0 ROOT
