@<TRIPOS>MOLECULE
MRA
   40    41     1     0     0
SMALL
bcc


@<TRIPOS>ATOM
      1 C1         -0.1150    1.1920    1.2950 ca        1 MRA     -0.128000
      2 C2          1.2800    1.1590    1.2000 ca        1 MRA      0.149900
      3 C3          1.9750   -0.0770    1.3000 ca        1 MRA     -0.130400
      4 C4          1.2460   -1.2610    1.5260 ca        1 MRA     -0.062000
      5 C5         -0.1380   -1.2180    1.6240 ca        1 MRA     -0.100000
      6 C6         -0.8350    0.0010    1.5040 ca        1 MRA      0.174000
      7 C7         -2.2330    0.0310    1.5920 cg        1 MRA     -0.240000
      8 C8         -3.4310    0.0470    1.6620 c1        1 MRA      0.047500
      9 N1          3.4300   -0.1440    1.1250 n4        1 MRA     -0.497800
     10 C9          4.1890    0.2360    2.3260 ca        1 MRA      0.004600
     11 C10         4.7400    1.5370    2.4950 ca        1 MRA     -0.171600
     12 C11         5.4550    1.8390    3.6570 ca        1 MRA     -0.029000
     13 C12         5.6450    0.8930    4.6630 ca        1 MRA     -0.115000
     14 C13         5.1160   -0.3970    4.5220 ca        1 MRA      0.213900
     15 C14         4.3800   -0.7320    3.3370 ca        1 MRA      0.128900
     16 F1          3.8920   -1.9810    3.1990 f         1 MRA     -0.078900
     17 F2          5.2860   -1.3290    5.4670 f         1 MRA     -0.042900
     18 C15         4.6430    2.5260    1.4130 c         1 MRA      0.596700
     19 O1          4.7090    2.3230    0.2080 o         1 MRA     -0.415100
     20 N2          4.3830    3.9820    1.7880 n4        1 MRA     -0.445300
     21 O2          5.5320    4.5080    2.3070 os        1 MRA     -0.230100
     22 C16         5.5870    5.9570    2.4730 c3        1 MRA      0.096400
     23 C17         5.5010    6.6980    1.1500 c3        1 MRA      0.087400
     24 O3          4.1740    6.5260    0.6750 oh        1 MRA     -0.668800
     25 F3          1.9740    2.3110    1.0060 f         1 MRA     -0.170900
     26 H1         -0.6460    2.1540    1.1980 ha        1 MRA      0.195000
     27 H4          1.7620   -2.2330    1.6290 ha        1 MRA      0.174000
     28 H5         -0.7030   -2.1540    1.7930 ha        1 MRA      0.197000
     29 H8         -4.4960    0.0600    1.7250 ha        1 MRA      0.202500
     30 HN1         3.6800   -1.1220    0.8880 hn        1 MRA      0.485300
     31 H11         5.9140    2.8380    3.7890 ha        1 MRA      0.192000
     32 H12         6.2200    1.1480    5.5740 ha        1 MRA      0.218000
     33 HN2         4.1010    4.5070    0.9220 hn        1 MRA      0.489300
     34 H161        4.7880    6.2800    3.1910 h1        1 MRA      0.123200
     35 H162        6.6150    6.0540    2.9310 h1        1 MRA      0.123200
     36 H171        5.7350    7.7830    1.3250 h1        1 MRA      0.090200
     37 H172        6.2220    6.2740    0.3990 h1        1 MRA      0.090200
     38 HO3         3.9870    7.2250    0.0330 ho        1 MRA      0.469000
     39 H121        3.6970    0.4570    0.3270 hn        1 MRA      0.485300
     40 H22         3.6220    4.0380    2.4850 hn        1 MRA      0.489300
@<TRIPOS>BOND
     1    1    2 ar  
     2    1    6 ar  
     3    1   26 1   
     4    2    3 ar  
     5    2   25 1   
     6    3    4 ar  
     7    3    9 1   
     8    4    5 ar  
     9    4   27 1   
    10    5    6 ar  
    11    5   28 1   
    12    6    7 1   
    13    7    8 3   
    14    8   29 1   
    15    9   10 1   
    16    9   30 1   
    17    9   39 1   
    18   10   11 ar  
    19   10   15 ar  
    20   11   12 ar  
    21   11   18 1   
    22   12   13 ar  
    23   12   31 1   
    24   13   14 ar  
    25   13   32 1   
    26   14   15 ar  
    27   14   17 1   
    28   15   16 1   
    29   18   19 2   
    30   18   20 1   
    31   20   21 1   
    32   20   33 1   
    33   20   40 1   
    34   21   22 1   
    35   22   23 1   
    36   22   34 1   
    37   22   35 1   
    38   23   24 1   
    39   23   36 1   
    40   23   37 1   
    41   24   38 1   
@<TRIPOS>SUBSTRUCTURE
     1 MRA         1 TEMP              0 ****  ****    0 ROOT
