@<TRIPOS>MOLECULE
MRC
   78    79     1     0     0
SMALL
bcc


@<TRIPOS>ATOM
      1 C1         -0.6450    0.0610   -0.7120 c         1 MRC      0.633300
      2 C2          0.7470    0.0280   -1.1640 ce        1 MRC     -0.224200
      3 C3          1.7940    0.0030   -0.3180 c2        1 MRC     -0.027400
      4 C4          3.1890   -0.0580   -0.8430 c3        1 MRC     -0.055200
      5 C5          3.9900    1.1920   -0.4740 c3        1 MRC      0.150100
      6 C6          5.1850    0.8750    0.4420 c3        1 MRC      0.123100
      7 C7          6.0560    2.1360    0.6020 c3        1 MRC      0.103100
      8 C8          6.4330    2.7550   -0.7480 c3        1 MRC     -0.118700
      9 C9          7.4230    1.8930   -1.5170 c3        1 MRC     -0.077400
     10 C10         8.2430    2.6970   -2.4770 cx        1 MRC      0.052100
     11 C11         8.5550    2.1800   -3.8430 cx        1 MRC      0.091100
     12 C12         9.8070    2.5990   -4.5720 c3        1 MRC     -0.060700
     13 C13         9.8920    1.9150   -5.9470 c3        1 MRC      0.145100
     14 C14        10.8650    2.6310   -6.8670 c3        1 MRC     -0.132100
     15 C15         1.6360    0.0050    1.1550 c3        1 MRC     -0.082900
     16 C16         5.1540    2.9640   -1.5590 c3        1 MRC      0.126400
     17 C1'       -12.0320    0.1720   -5.5450 c         1 MRC      0.907600
     18 O1P       -12.8190    0.9580   -6.1470 o         1 MRC     -0.853300
     19 O1Q       -12.4160   -0.7400   -4.7560 o         1 MRC     -0.853300
     20 C2'       -10.5240    0.3260   -5.8110 c3        1 MRC     -0.194400
     21 C3'        -9.7330    0.2840   -4.5260 c3        1 MRC     -0.065400
     22 C4'        -8.2410    0.2480   -4.7830 c3        1 MRC     -0.078400
     23 C5'        -7.4560    0.2260   -3.4880 c3        1 MRC     -0.079400
     24 C6'        -5.9650    0.1830   -3.7440 c3        1 MRC     -0.078400
     25 C7'        -5.1830    0.1640   -2.4480 c3        1 MRC     -0.078400
     26 C8'        -3.6930    0.1220   -2.7110 c3        1 MRC     -0.085400
     27 C9'        -2.9310    0.1070   -1.3990 c3        1 MRC      0.140400
     28 O1A        -1.5350    0.0730   -1.7510 os        1 MRC     -0.436900
     29 O1B        -1.0950    0.0800    0.4410 o         1 MRC     -0.562000
     30 O5          4.4120    1.7630   -1.7140 os        1 MRC     -0.397600
     31 O7          7.1900    1.7340    1.3590 oh        1 MRC     -0.608800
     32 O6          5.9120   -0.2090   -0.1070 oh        1 MRC     -0.590800
     33 O10         7.5750    3.2140   -3.6410 os        1 MRC     -0.399600
     34 C17        11.0340    2.2550   -3.7530 c3        1 MRC     -0.091100
     35 O13         8.5800    1.9170   -6.4990 oh        1 MRC     -0.592800
     36 H2          0.8820    0.0270   -2.2580 ha        1 MRC      0.159000
     37 H41         3.6990   -0.9660   -0.4220 hc        1 MRC      0.083200
     38 H42         3.1910   -0.1650   -1.9620 hc        1 MRC      0.083200
     39 H5          3.3440    1.9410    0.0690 h1        1 MRC      0.046700
     40 H6          4.8020    0.5730    1.4590 h1        1 MRC      0.049700
     41 H7          5.4760    2.8980    1.1970 h1        1 MRC      0.044700
     42 H8          6.8960    3.7630   -0.5550 hc        1 MRC      0.052700
     43 H91         6.8520    1.0870   -2.0540 hc        1 MRC      0.073200
     44 H92         8.1220    1.3860   -0.7980 hc        1 MRC      0.073200
     45 H10         8.9210    3.4350   -2.0000 h1        1 MRC      0.076700
     46 H11         8.1180    1.2200   -4.1840 h1        1 MRC      0.107700
     47 H12         9.7650    3.7120   -4.7370 hc        1 MRC      0.075700
     48 H13        10.2180    0.8430   -5.8090 h1        1 MRC      0.031700
     49 H141       10.5200    3.6760   -7.0560 hc        1 MRC      0.044367
     50 H142       11.8820    2.6620   -6.4110 hc        1 MRC      0.044367
     51 H143       10.9300    2.0980   -7.8460 hc        1 MRC      0.044367
     52 H151        2.6250    0.0080    1.6730 hc        1 MRC      0.058700
     53 H152        1.0560   -0.8980    1.4790 hc        1 MRC      0.058700
     54 H153        1.0490    0.9020    1.4800 hc        1 MRC      0.058700
     55 H161        5.4040    3.2640   -2.6140 h1        1 MRC      0.065200
     56 H162        4.5140    3.7460   -1.0700 h1        1 MRC      0.065200
     57 H2'1      -10.3390    1.2880   -6.3510 hc        1 MRC      0.018700
     58 H2'2      -10.2080   -0.5120   -6.4820 hc        1 MRC      0.018700
     59 H3'1       -9.9840    1.1820   -3.9040 hc        1 MRC      0.044200
     60 H3'2      -10.0470   -0.6220   -3.9410 hc        1 MRC      0.044200
     61 H4'1       -7.9410    1.1440   -5.3880 hc        1 MRC      0.026700
     62 H4'2       -7.9860   -0.6600   -5.3900 hc        1 MRC      0.026700
     63 H5'1       -7.7070    1.1360   -2.8820 hc        1 MRC      0.037200
     64 H5'2       -7.7610   -0.6670   -2.8820 hc        1 MRC      0.037200
     65 H6'1       -5.7140   -0.7290   -4.3480 hc        1 MRC      0.036200
     66 H6'2       -5.6620    1.0750   -4.3530 hc        1 MRC      0.036200
     67 H7'1       -5.4850   -0.7290   -1.8400 hc        1 MRC      0.040700
     68 H7'2       -5.4350    1.0760   -1.8450 hc        1 MRC      0.040700
     69 H8'1       -3.3810    1.0140   -3.3140 hc        1 MRC      0.052700
     70 H8'2       -3.4300   -0.7900   -3.3060 hc        1 MRC      0.052700
     71 H9'1       -3.1280    1.0270   -0.7900 h1        1 MRC      0.050200
     72 H9'2       -3.1710   -0.7990   -0.7850 h1        1 MRC      0.050200
     73 HO7         7.8230    2.4610    1.3270 ho        1 MRC      0.409000
     74 HO6         6.7500   -0.2520    0.3730 ho        1 MRC      0.418000
     75 H171       11.1040    1.1530   -3.5860 hc        1 MRC      0.038033
     76 H172       11.9610    2.5950   -4.2740 hc        1 MRC      0.038033
     77 H173       10.9840    2.7600   -2.7580 hc        1 MRC      0.038033
     78 HO13        8.6620    1.6320   -7.4170 ho        1 MRC      0.401000
@<TRIPOS>BOND
     1    1    2 1   
     2    1   28 1   
     3    1   29 2   
     4    2    3 2   
     5    2   36 1   
     6    3    4 1   
     7    3   15 1   
     8    4    5 1   
     9    4   37 1   
    10    4   38 1   
    11    5    6 1   
    12    5   30 1   
    13    5   39 1   
    14    6    7 1   
    15    6   32 1   
    16    6   40 1   
    17    7    8 1   
    18    7   31 1   
    19    7   41 1   
    20    8    9 1   
    21    8   16 1   
    22    8   42 1   
    23    9   10 1   
    24    9   43 1   
    25    9   44 1   
    26   10   11 1   
    27   10   33 1   
    28   10   45 1   
    29   11   12 1   
    30   11   33 1   
    31   11   46 1   
    32   12   13 1   
    33   12   34 1   
    34   12   47 1   
    35   13   14 1   
    36   13   35 1   
    37   13   48 1   
    38   14   49 1   
    39   14   50 1   
    40   14   51 1   
    41   15   52 1   
    42   15   53 1   
    43   15   54 1   
    44   16   30 1   
    45   16   55 1   
    46   16   56 1   
    47   17   18 1   
    48   17   19 1   
    49   17   20 1   
    50   20   21 1   
    51   20   57 1   
    52   20   58 1   
    53   21   22 1   
    54   21   59 1   
    55   21   60 1   
    56   22   23 1   
    57   22   61 1   
    58   22   62 1   
    59   23   24 1   
    60   23   63 1   
    61   23   64 1   
    62   24   25 1   
    63   24   65 1   
    64   24   66 1   
    65   25   26 1   
    66   25   67 1   
    67   25   68 1   
    68   26   27 1   
    69   26   69 1   
    70   26   70 1   
    71   27   28 1   
    72   27   71 1   
    73   27   72 1   
    74   31   73 1   
    75   32   74 1   
    76   34   75 1   
    77   34   76 1   
    78   34   77 1   
    79   35   78 1   
@<TRIPOS>SUBSTRUCTURE
     1 MRC         1 TEMP              0 ****  ****    0 ROOT
