@<TRIPOS>MOLECULE
MRC
   78    79     1     0     0
SMALL
bcc


@<TRIPOS>ATOM
      1 C1         -0.6430    0.0150   -0.7380 c         1 MRC      0.633300
      2 C2          0.7490   -0.0050   -1.1930 ce        1 MRC     -0.224200
      3 C3          1.7980   -0.0500   -0.3510 c2        1 MRC     -0.027400
      4 C4          3.1920   -0.0960   -0.8800 c3        1 MRC     -0.055200
      5 C5          3.9910    1.1460   -0.4820 c3        1 MRC      0.150100
      6 C6          5.1870    0.8090    0.4260 c3        1 MRC      0.123100
      7 C7          6.0570    2.0670    0.6150 c3        1 MRC      0.103100
      8 C8          6.4330    2.7170   -0.7200 c3        1 MRC     -0.118700
      9 C9          7.4240    1.8740   -1.5080 c3        1 MRC     -0.077400
     10 C10         8.2440    2.7010   -2.4500 cx        1 MRC      0.052100
     11 C11         8.5570    2.2160   -3.8260 cx        1 MRC      0.091100
     12 C12         9.8100    2.6520   -4.5450 c3        1 MRC     -0.060700
     13 C13         9.8960    1.9990   -5.9340 c3        1 MRC      0.145100
     14 C14        10.8700    2.7370   -6.8370 c3        1 MRC     -0.132100
     15 C15         1.6420   -0.0850    1.1220 c3        1 MRC     -0.082900
     16 C16         5.1540    2.9430   -1.5260 c3        1 MRC      0.126400
     17 C1'       -12.0420    0.2210   -5.5380 c         1 MRC      0.907600
     18 O1P       -12.8320    1.0190   -6.1200 o         1 MRC     -0.853300
     19 O1Q       -12.4220   -0.7120   -4.7720 o         1 MRC     -0.853300
     20 C2'       -10.5350    0.3850   -5.8040 c3        1 MRC     -0.194400
     21 C3'        -9.7400    0.3120   -4.5240 c3        1 MRC     -0.065400
     22 C4'        -8.2480    0.2860   -4.7850 c3        1 MRC     -0.078400
     23 C5'        -7.4600    0.2340   -3.4930 c3        1 MRC     -0.079400
     24 C6'        -5.9700    0.2000   -3.7540 c3        1 MRC     -0.078400
     25 C7'        -5.1840    0.1510   -2.4610 c3        1 MRC     -0.078400
     26 C8'        -3.6950    0.1190   -2.7270 c3        1 MRC     -0.085400
     27 C9'        -2.9300    0.0740   -1.4190 c3        1 MRC      0.140400
     28 O1A        -1.5350    0.0510   -1.7740 os        1 MRC     -0.436900
     29 O1B        -1.0900    0.0040    0.4160 o         1 MRC     -0.562000
     30 O5          4.4130    1.7460   -1.7090 os        1 MRC     -0.397600
     31 O7          7.1910    1.6490    1.3630 oh        1 MRC     -0.608800
     32 O6          5.9150   -0.2620   -0.1470 oh        1 MRC     -0.590800
     33 O10         7.5760    3.2430   -3.6010 os        1 MRC     -0.399600
     34 C17        11.0370    2.2910   -3.7320 c3        1 MRC     -0.091100
     35 O13         8.5850    2.0140   -6.4880 oh        1 MRC     -0.592800
     36 H2          0.8810    0.0210   -2.2880 ha        1 MRC      0.159000
     37 H41         3.7040   -1.0140   -0.4820 hc        1 MRC      0.083200
     38 H42         3.1910   -0.1760   -2.0010 hc        1 MRC      0.083200
     39 H5          3.3440    1.8810    0.0780 h1        1 MRC      0.046700
     40 H6          4.8040    0.4830    1.4360 h1        1 MRC      0.049700
     41 H7          5.4750    2.8140    1.2280 h1        1 MRC      0.044700
     42 H8          6.8940    3.7200   -0.5040 hc        1 MRC      0.052700
     43 H91         6.8540    1.0800   -2.0640 hc        1 MRC      0.073700
     44 H92         8.1230    1.3510   -0.8010 hc        1 MRC      0.073700
     45 H10         8.9210    3.4290   -1.9550 h1        1 MRC      0.076700
     46 H11         8.1220    1.2620   -4.1900 h1        1 MRC      0.107700
     47 H12         9.7660    3.7690   -4.6850 hc        1 MRC      0.075700
     48 H13        10.2230    0.9250   -5.8210 h1        1 MRC      0.031700
     49 H141       11.8860    2.7590   -6.3790 hc        1 MRC      0.044367
     50 H142       10.5250    3.7860   -7.0020 hc        1 MRC      0.044367
     51 H143       10.9360    2.2270   -7.8280 hc        1 MRC      0.044367
     52 H151        2.6330   -0.0940    1.6380 hc        1 MRC      0.058700
     53 H152        1.0650   -0.9960    1.4250 hc        1 MRC      0.058700
     54 H153        1.0550    0.8040    1.4700 hc        1 MRC      0.058700
     55 H161        5.4040    3.2680   -2.5740 h1        1 MRC      0.065200
     56 H162        4.5130    3.7140   -1.0200 h1        1 MRC      0.065200
     57 H2'1      -10.3530    1.3600   -6.3210 hc        1 MRC      0.018700
     58 H2'2      -10.2180   -0.4360   -6.4970 hc        1 MRC      0.018700
     59 H3'1      -10.0500   -0.6080   -3.9600 hc        1 MRC      0.044200
     60 H3'2       -9.9920    1.1940   -3.8780 hc        1 MRC      0.044200
     61 H4'1       -7.9940   -0.6060   -5.4150 hc        1 MRC      0.026700
     62 H4'2       -7.9520    1.1980   -5.3680 hc        1 MRC      0.026700
     63 H5'1       -7.7610   -0.6750   -2.9090 hc        1 MRC      0.037200
     64 H5'2       -7.7120    1.1280   -2.8640 hc        1 MRC      0.037200
     65 H6'1       -5.7180   -0.6960   -4.3800 hc        1 MRC      0.036200
     66 H6'2       -5.6700    1.1080   -4.3410 hc        1 MRC      0.036200
     67 H7'1       -5.4370    1.0470   -1.8340 hc        1 MRC      0.040700
     68 H7'2       -5.4830   -0.7570   -1.8740 hc        1 MRC      0.040700
     69 H8'1       -3.3870    1.0260   -3.3100 hc        1 MRC      0.052700
     70 H8'2       -3.4320   -0.7770   -3.3460 hc        1 MRC      0.052700
     71 H9'1       -3.1670   -0.8480   -0.8260 h1        1 MRC      0.050200
     72 H9'2       -3.1270    0.9780   -0.7860 h1        1 MRC      0.050200
     73 HO7         7.8230    2.3780    1.3480 ho        1 MRC      0.409000
     74 HO6         6.7530   -0.3140    0.3320 ho        1 MRC      0.418000
     75 H171       11.9640    2.6440   -4.2450 hc        1 MRC      0.038033
     76 H172       10.9850    2.7730   -2.7260 hc        1 MRC      0.038033
     77 H173       11.1080    1.1860   -3.5910 hc        1 MRC      0.038033
     78 HO13        8.6680    1.7500   -7.4120 ho        1 MRC      0.401000
@<TRIPOS>BOND
     1    1    2 1   
     2    1   28 1   
     3    1   29 2   
     4    2    3 2   
     5    2   36 1   
     6    3    4 1   
     7    3   15 1   
     8    4    5 1   
     9    4   37 1   
    10    4   38 1   
    11    5    6 1   
    12    5   30 1   
    13    5   39 1   
    14    6    7 1   
    15    6   32 1   
    16    6   40 1   
    17    7    8 1   
    18    7   31 1   
    19    7   41 1   
    20    8    9 1   
    21    8   16 1   
    22    8   42 1   
    23    9   10 1   
    24    9   43 1   
    25    9   44 1   
    26   10   11 1   
    27   10   33 1   
    28   10   45 1   
    29   11   12 1   
    30   11   33 1   
    31   11   46 1   
    32   12   13 1   
    33   12   34 1   
    34   12   47 1   
    35   13   14 1   
    36   13   35 1   
    37   13   48 1   
    38   14   49 1   
    39   14   50 1   
    40   14   51 1   
    41   15   52 1   
    42   15   53 1   
    43   15   54 1   
    44   16   30 1   
    45   16   55 1   
    46   16   56 1   
    47   17   18 1   
    48   17   19 1   
    49   17   20 1   
    50   20   21 1   
    51   20   57 1   
    52   20   58 1   
    53   21   22 1   
    54   21   59 1   
    55   21   60 1   
    56   22   23 1   
    57   22   61 1   
    58   22   62 1   
    59   23   24 1   
    60   23   63 1   
    61   23   64 1   
    62   24   25 1   
    63   24   65 1   
    64   24   66 1   
    65   25   26 1   
    66   25   67 1   
    67   25   68 1   
    68   26   27 1   
    69   26   69 1   
    70   26   70 1   
    71   27   28 1   
    72   27   71 1   
    73   27   72 1   
    74   31   73 1   
    75   32   74 1   
    76   34   75 1   
    77   34   76 1   
    78   34   77 1   
    79   35   78 1   
@<TRIPOS>SUBSTRUCTURE
     1 MRC         1 TEMP              0 ****  ****    0 ROOT
