@<TRIPOS>MOLECULE
MRC
   78    76     1     0     0
SMALL
bcc


@<TRIPOS>ATOM
      1 C1          1.3870    0.7410   -2.9240 c1        1 MRC      0.338000
      2 C2          2.9010    0.9490   -2.9310 c1        1 MRC     -0.228000
      3 C3          3.5580    1.2460   -1.7620 c1        1 MRC      0.007000
      4 C4          2.7650    1.3700   -0.4350 c2        1 MRC     -0.186000
      5 C5          3.0730    2.6900    0.2100 c3        1 MRC      0.045000
      6 C6          1.8080    3.2370    0.8420 c3        1 MRC     -0.034000
      7 C7          1.3760    2.4400    2.0320 c3        1 MRC     -0.002000
      8 C8          2.4790    2.2570    3.0180 c3        1 MRC     -0.126000
      9 C9          2.0070    1.2620    4.1300 c3        1 MRC     -0.147000
     10 C10         2.1670    1.6540    5.0050 cx        1 MRC     -0.051000
     11 C11         1.5630    1.7270    5.4500 cx        1 MRC     -0.035000
     12 C12         1.7490    1.6170    6.5760 c3        1 MRC     -0.093000
     13 C13         0.3360    1.2030    7.3270 c3        1 MRC      0.031000
     14 C14         0.5330    1.2180    8.7990 c3        1 MRC     -0.246000
     15 C15         5.0720    1.4540   -1.7700 c3        1 MRC     -0.204000
     16 C16         3.7480    1.7130    2.3730 c3        1 MRC     -0.024000
     17 C1'        -7.7930   -6.4230   -5.1630 c1        1 MRC      0.327000
     18 O1P        -8.8690   -5.8200   -4.9040 os        1 MRC     -0.589000
     19 O1Q        -7.6020   -7.5930   -4.7230 o         1 MRC     -0.586000
     20 C2'        -6.7230   -5.7430   -6.0090 c3        1 MRC     -0.223000
     21 C3'        -5.8770   -4.8340   -5.1250 c3        1 MRC     -0.144000
     22 C4'        -4.7560   -4.2110   -5.9600 c3        1 MRC     -0.157000
     23 C5'        -4.1580   -3.0240   -5.2030 c3        1 MRC     -0.158000
     24 C6'        -2.7810   -2.6810   -5.7940 c3        1 MRC     -0.157000
     25 C7'        -2.2660   -1.3750   -5.1680 c3        1 MRC     -0.157000
     26 C8'        -0.7240   -1.4040   -5.1110 c3        1 MRC     -0.164000
     27 C9'        -0.2100   -0.1020   -4.4750 c3        1 MRC     -0.010000
     28 O1A         0.8270   -0.4030   -3.5500 os        1 MRC     -0.277000
     29 O1B         0.6550    1.6080   -2.4770 o         1 MRC     -0.376000
     30 O5          4.1670    2.5010    1.1970 os        1 MRC     -0.279000
     31 O7          0.9240    1.1360    1.5860 oh        1 MRC     -0.327000
     32 O6          0.7560    3.2180   -0.1330 oh        1 MRC     -0.322000
     33 O10         1.8670    2.3490    5.1190 os        1 MRC     -0.270000
     34 C17         2.3000    3.0840    7.1960 c3        1 MRC     -0.207000
     35 O13        -0.0380   -0.0340    6.9350 oh        1 MRC     -0.332000
     36 H2          3.4020    0.8710   -3.7690 ha        1 MRC      0.154000
     37 H41         1.8040    1.3140   -0.6220 ha        1 MRC      0.139500
     38 H42         3.0240    0.6420    0.1690 ha        1 MRC      0.139500
     39 H5          3.3790    3.3200   -0.4860 h1        1 MRC      0.117000
     40 H6          1.9680    4.1700    1.1220 h1        1 MRC      0.089000
     41 H7          0.6290    2.9040    2.4730 h1        1 MRC      0.099000
     42 H8          2.6810    3.1250    3.4330 hc        1 MRC      0.097000
     43 H91         1.0400    1.0790    4.0210 hc        1 MRC      0.109000
     44 H92         2.5170    0.4110    4.0510 hc        1 MRC      0.109000
     45 H10         3.0270    1.4770    5.4740 h1        1 MRC      0.120000
     46 H11         0.7070    1.4150    5.0640 h1        1 MRC      0.152000
     47 H12         2.4270    0.9140    6.7330 hc        1 MRC      0.109000
     48 H13        -0.3650    1.8480    7.0840 h1        1 MRC      0.081000
     49 H141        0.2790    2.1040    9.1560 hc        1 MRC      0.082333
     50 H142       -0.0310    0.5230    9.2140 hc        1 MRC      0.082333
     51 H143        1.4790    1.0400    9.0070 hc        1 MRC      0.082333
     52 H151        5.2720    2.4090   -1.6520 hc        1 MRC      0.095667
     53 H152        5.4760    0.9420   -1.0360 hc        1 MRC      0.095667
     54 H153        5.4410    1.1450   -2.6270 hc        1 MRC      0.095667
     55 H161        4.4740    1.7260    3.0390 h1        1 MRC      0.099500
     56 H162        3.5890    0.7840    2.0940 h1        1 MRC      0.099500
     57 H2'1       -7.1520   -5.2090   -6.7120 hc        1 MRC      0.058000
     58 H2'2       -6.1490   -6.4260   -6.4220 hc        1 MRC      0.058000
     59 H3'1       -5.4860   -5.3620   -4.3910 hc        1 MRC      0.083500
     60 H3'2       -6.4420   -4.1230   -4.7520 hc        1 MRC      0.083500
     61 H4'1       -4.0560   -4.8830   -6.1220 hc        1 MRC      0.066000
     62 H4'2       -5.1200   -3.9030   -6.8190 hc        1 MRC      0.066000
     63 H5'1       -4.0580   -3.2590   -4.2520 hc        1 MRC      0.077000
     64 H5'2       -4.7540   -2.2480   -5.2880 hc        1 MRC      0.077000
     65 H6'1       -2.1500   -3.4090   -5.5990 hc        1 MRC      0.075500
     66 H6'2       -2.8610   -2.5680   -6.7670 hc        1 MRC      0.075500
     67 H7'1       -2.6260   -1.2840   -4.2570 hc        1 MRC      0.080500
     68 H7'2       -2.5610   -0.6110   -5.7150 hc        1 MRC      0.080500
     69 H8'1       -0.3630   -1.4880   -6.0250 hc        1 MRC      0.091000
     70 H8'2       -0.4300   -2.1710   -4.5710 hc        1 MRC      0.091000
     71 H9'1        0.1390    0.4910   -5.1780 h1        1 MRC      0.090000
     72 H9'2       -0.9470    0.3450   -4.0050 h1        1 MRC      0.090000
     73 HO7         0.0300    1.1330    1.5290 ho        1 MRC      0.225000
     74 HO6         0.1780    3.8820    0.0370 ho        1 MRC      0.208000
     75 H171        1.6500    3.7950    6.9860 hc        1 MRC      0.080000
     76 H172        2.4010    3.0110    8.1690 hc        1 MRC      0.080000
     77 H173        3.1730    3.3060    6.7910 hc        1 MRC      0.080000
     78 HO13       -0.8560   -0.2090    7.2430 ho        1 MRC      0.201000
@<TRIPOS>BOND
     1    1   28 1   
     2    1   29 1   
     3    2    3 1   
     4    2   36 1   
     5    3   15 1   
     6    4    5 1   
     7    4   37 1   
     8    4   38 1   
     9    5    6 1   
    10    5   30 1   
    11    5   39 1   
    12    6    7 1   
    13    6   32 1   
    14    6   40 1   
    15    7    8 1   
    16    7   31 1   
    17    7   41 1   
    18    8    9 1   
    19    8   16 1   
    20    8   42 1   
    21    9   10 1   
    22    9   43 1   
    23    9   44 1   
    24   10   11 1   
    25   10   33 1   
    26   10   45 1   
    27   11   12 1   
    28   11   33 1   
    29   11   46 1   
    30   12   13 1   
    31   12   34 1   
    32   12   47 1   
    33   13   14 1   
    34   13   35 1   
    35   13   48 1   
    36   14   49 1   
    37   14   50 1   
    38   14   51 1   
    39   15   52 1   
    40   15   53 1   
    41   15   54 1   
    42   16   30 1   
    43   16   55 1   
    44   16   56 1   
    45   17   19 1   
    46   17   20 1   
    47   20   21 1   
    48   20   57 1   
    49   20   58 1   
    50   21   22 1   
    51   21   59 1   
    52   21   60 1   
    53   22   23 1   
    54   22   61 1   
    55   22   62 1   
    56   23   24 1   
    57   23   63 1   
    58   23   64 1   
    59   24   25 1   
    60   24   65 1   
    61   24   66 1   
    62   25   26 1   
    63   25   67 1   
    64   25   68 1   
    65   26   27 1   
    66   26   69 1   
    67   26   70 1   
    68   27   28 1   
    69   27   71 1   
    70   27   72 1   
    71   31   73 1   
    72   32   74 1   
    73   34   75 1   
    74   34   76 1   
    75   34   77 1   
    76   35   78 1   
@<TRIPOS>SUBSTRUCTURE
     1 MRC         1 TEMP              0 ****  ****    0 ROOT
