@<TRIPOS>MOLECULE
MRC
   78    79     1     0     0
SMALL
bcc


@<TRIPOS>ATOM
      1 C1         -2.4090   -1.0850   -1.4430 c         1 MRC      0.636300
      2 C2         -1.5650   -1.3700   -0.2810 ce        1 MRC     -0.227200
      3 C3         -1.9990   -1.4440    0.9900 c2        1 MRC     -0.022400
      4 C4         -1.0270   -1.7480    2.0850 c3        1 MRC     -0.060200
      5 C5         -0.2080   -0.5150    2.4590 c3        1 MRC      0.110100
      6 C6         -1.0110    0.5080    3.2740 c3        1 MRC      0.078100
      7 C7         -0.0850    1.6510    3.7310 c3        1 MRC      0.117100
      8 C8          1.2070    1.1510    4.3940 c3        1 MRC     -0.122700
      9 C9          1.0220    0.6970    5.8330 c3        1 MRC     -0.071400
     10 C10         2.2870    0.8370    6.6260 cx        1 MRC      0.069100
     11 C11         2.5610   -0.0520    7.7910 cx        1 MRC      0.071100
     12 C12         3.4420    0.4050    8.9240 c3        1 MRC     -0.098700
     13 C13         4.0340   -0.8060    9.6680 c3        1 MRC      0.145100
     14 C14         5.3810   -0.4570   10.2760 c3        1 MRC     -0.126100
     15 C15        -3.4040   -1.2650    1.4180 c3        1 MRC     -0.093900
     16 C16         1.8230    0.0340    3.5530 c3        1 MRC      0.120400
     17 C1'        -0.9640    1.1890  -13.5200 c         1 MRC      0.907600
     18 O1P        -0.5560    2.1150  -14.2790 o         1 MRC     -0.852800
     19 O1Q        -1.8830    0.3770  -13.8320 o         1 MRC     -0.852800
     20 C2'        -0.2820    1.0350  -12.1480 c3        1 MRC     -0.194400
     21 C3'        -1.2980    0.8390  -11.0500 c3        1 MRC     -0.065400
     22 C4'        -0.6410    0.5030   -9.7270 c3        1 MRC     -0.078400
     23 C5'        -1.6650    0.3300   -8.6270 c3        1 MRC     -0.079400
     24 C6'        -1.0070   -0.0090   -7.3060 c3        1 MRC     -0.078400
     25 C7'        -2.0310   -0.1730   -6.2040 c3        1 MRC     -0.078400
     26 C8'        -1.3640   -0.5020   -4.8860 c3        1 MRC     -0.085400
     27 C9'        -2.4040   -0.6510   -3.7930 c3        1 MRC      0.140400
     28 O1A        -1.6720   -0.9360   -2.5860 os        1 MRC     -0.439900
     29 O1B        -3.6370   -0.9680   -1.5270 o         1 MRC     -0.553000
     30 O5          0.8870   -0.9940    3.2460 os        1 MRC     -0.416600
     31 O7         -0.7800    2.5600    4.5610 oh        1 MRC     -0.591800
     32 O6         -1.6650   -0.0700    4.3890 oh        1 MRC     -0.600800
     33 O10         3.2310   -0.2460    6.5310 os        1 MRC     -0.419600
     34 C17         2.6540    1.2780    9.8770 c3        1 MRC     -0.087100
     35 O13         4.1500   -1.9430    8.8300 oh        1 MRC     -0.597800
     36 H2         -0.4990   -1.5250   -0.5250 ha        1 MRC      0.153000
     37 H41        -0.3180   -2.5570    1.7620 hc        1 MRC      0.073700
     38 H42        -1.5710   -2.1190    2.9940 hc        1 MRC      0.073700
     39 H5          0.1860   -0.0150    1.5310 h1        1 MRC      0.059700
     40 H6         -1.8500    0.9310    2.6510 h1        1 MRC      0.097700
     41 H7          0.2010    2.2600    2.8250 h1        1 MRC      0.077700
     42 H8          1.9260    2.0200    4.3930 hc        1 MRC      0.069700
     43 H91         0.6850   -0.3740    5.8500 hc        1 MRC      0.062200
     44 H92         0.2350    1.3210    6.3350 hc        1 MRC      0.062200
     45 H10         2.7570    1.8410    6.5800 h1        1 MRC      0.090700
     46 H11         1.8600   -0.8700    8.0530 h1        1 MRC      0.104700
     47 H12         4.2920    1.0060    8.4930 hc        1 MRC      0.064700
     48 H13         3.3210   -1.1430   10.4750 h1        1 MRC      0.071700
     49 H141        5.7780   -1.3350   10.8400 hc        1 MRC      0.043033
     50 H142        6.1150   -0.1910    9.4780 hc        1 MRC      0.043033
     51 H143        5.2760    0.4080   10.9730 hc        1 MRC      0.043033
     52 H151       -3.9930   -0.6740    0.6720 hc        1 MRC      0.066367
     53 H152       -3.8900   -2.2690    1.5250 hc        1 MRC      0.066367
     54 H153       -3.4460   -0.7470    2.4100 hc        1 MRC      0.066367
     55 H161        2.2450    0.4550    2.6020 h1        1 MRC      0.066200
     56 H162        2.6270   -0.4990    4.1320 h1        1 MRC      0.066200
     57 H2'1        0.3450    1.9380  -11.9430 hc        1 MRC      0.018700
     58 H2'2        0.3980    0.1480  -12.2030 hc        1 MRC      0.018700
     59 H3'1       -2.0010    0.0170  -11.3520 hc        1 MRC      0.044200
     60 H3'2       -1.9110    1.7720  -10.9370 hc        1 MRC      0.044200
     61 H4'1        0.0780    1.3170   -9.4460 hc        1 MRC      0.026700
     62 H4'2       -0.0430   -0.4410   -9.8350 hc        1 MRC      0.026700
     63 H5'1       -2.3840   -0.4830   -8.9090 hc        1 MRC      0.037700
     64 H5'2       -2.2620    1.2740   -8.5180 hc        1 MRC      0.037700
     65 H6'1       -0.2830    0.8020   -7.0290 hc        1 MRC      0.036200
     66 H6'2       -0.4160   -0.9570   -7.4140 hc        1 MRC      0.036200
     67 H7'1       -2.7510   -0.9890   -6.4780 hc        1 MRC      0.041200
     68 H7'2       -2.6270    0.7720   -6.1010 hc        1 MRC      0.041200
     69 H8'1       -0.6410    0.3090   -4.6060 hc        1 MRC      0.052200
     70 H8'2       -0.7770   -1.4520   -4.9770 hc        1 MRC      0.052200
     71 H9'1       -3.1080   -1.5000   -3.9950 h1        1 MRC      0.051700
     72 H9'2       -2.9950    0.2890   -3.6440 h1        1 MRC      0.051700
     73 HO7        -1.3630    2.0430    5.1360 ho        1 MRC      0.415000
     74 HO6        -1.0320   -0.6660    4.8140 ho        1 MRC      0.413000
     75 H171        1.7770    0.7230   10.2890 hc        1 MRC      0.040367
     76 H172        3.3030    1.6000   10.7270 hc        1 MRC      0.040367
     77 H173        2.2810    2.1870    9.3470 hc        1 MRC      0.040367
     78 HO13        4.6030   -1.6680    8.0230 ho        1 MRC      0.411000
@<TRIPOS>BOND
     1    1    2 1   
     2    1   28 1   
     3    1   29 2   
     4    2    3 2   
     5    2   36 1   
     6    3    4 1   
     7    3   15 1   
     8    4    5 1   
     9    4   37 1   
    10    4   38 1   
    11    5    6 1   
    12    5   30 1   
    13    5   39 1   
    14    6    7 1   
    15    6   32 1   
    16    6   40 1   
    17    7    8 1   
    18    7   31 1   
    19    7   41 1   
    20    8    9 1   
    21    8   16 1   
    22    8   42 1   
    23    9   10 1   
    24    9   43 1   
    25    9   44 1   
    26   10   11 1   
    27   10   33 1   
    28   10   45 1   
    29   11   12 1   
    30   11   33 1   
    31   11   46 1   
    32   12   13 1   
    33   12   34 1   
    34   12   47 1   
    35   13   14 1   
    36   13   35 1   
    37   13   48 1   
    38   14   49 1   
    39   14   50 1   
    40   14   51 1   
    41   15   52 1   
    42   15   53 1   
    43   15   54 1   
    44   16   30 1   
    45   16   55 1   
    46   16   56 1   
    47   17   18 1   
    48   17   19 1   
    49   17   20 1   
    50   20   21 1   
    51   20   57 1   
    52   20   58 1   
    53   21   22 1   
    54   21   59 1   
    55   21   60 1   
    56   22   23 1   
    57   22   61 1   
    58   22   62 1   
    59   23   24 1   
    60   23   63 1   
    61   23   64 1   
    62   24   25 1   
    63   24   65 1   
    64   24   66 1   
    65   25   26 1   
    66   25   67 1   
    67   25   68 1   
    68   26   27 1   
    69   26   69 1   
    70   26   70 1   
    71   27   28 1   
    72   27   71 1   
    73   27   72 1   
    74   31   73 1   
    75   32   74 1   
    76   34   75 1   
    77   34   76 1   
    78   34   77 1   
    79   35   78 1   
@<TRIPOS>SUBSTRUCTURE
     1 MRC         1 TEMP              0 ****  ****    0 ROOT
