@<TRIPOS>MOLECULE
MRD
   22    21     1     0     0
SMALL
bcc


@<TRIPOS>ATOM
      1 C1         -0.8000   -0.8130   -2.2910 c3        1 MRD     -0.105600
      2 C2         -0.1130   -0.0690   -1.1480 c3        1 MRD      0.158800
      3 O2          1.2460   -0.4980   -1.1770 oh        1 MRD     -0.609800
      4 CM         -0.2050    1.4340   -1.3760 c3        1 MRD     -0.105600
      5 C3         -0.7650   -0.4770    0.1780 c3        1 MRD     -0.140400
      6 C4         -0.1720    0.2040    1.4060 c3        1 MRD      0.135100
      7 O4          1.2280   -0.0170    1.5080 oh        1 MRD     -0.607800
      8 C5         -0.8800   -0.2650    2.6650 c3        1 MRD     -0.127100
      9 H1C1       -0.2960   -0.5700   -3.2560 hc        1 MRD      0.043867
     10 H1C2       -0.7350   -1.9150   -2.1250 hc        1 MRD      0.043867
     11 H1C3       -1.8710   -0.5100   -2.3460 hc        1 MRD      0.043867
     12 H2          1.7360    0.0640   -0.5610 ho        1 MRD      0.417000
     13 HMC1       -1.2640    1.7720   -1.2880 hc        1 MRD      0.043867
     14 HMC2        0.4150    1.9830   -0.6280 hc        1 MRD      0.043867
     15 HMC3        0.1720    1.6840   -2.3970 hc        1 MRD      0.043867
     16 H3C1       -0.6550   -1.5880    0.2920 hc        1 MRD      0.055200
     17 H3C2       -1.8580   -0.2380    0.1310 hc        1 MRD      0.055200
     18 H4         -0.2560    1.3250    1.3130 h1        1 MRD      0.074700
     19 HA          1.3670   -0.9720    1.5270 ho        1 MRD      0.406000
     20 H5C1       -0.4060    0.2010    3.5620 hc        1 MRD      0.044033
     21 H5C2       -1.9560    0.0240    2.6300 hc        1 MRD      0.044033
     22 H5C3       -0.8090   -1.3750    2.7640 hc        1 MRD      0.044033
@<TRIPOS>BOND
     1    1    2 1   
     2    1    9 1   
     3    1   10 1   
     4    1   11 1   
     5    2    3 1   
     6    2    4 1   
     7    2    5 1   
     8    3   12 1   
     9    4   13 1   
    10    4   14 1   
    11    4   15 1   
    12    5    6 1   
    13    5   16 1   
    14    5   17 1   
    15    6    7 1   
    16    6    8 1   
    17    6   18 1   
    18    7   19 1   
    19    8   20 1   
    20    8   21 1   
    21    8   22 1   
@<TRIPOS>SUBSTRUCTURE
     1 MRD         1 TEMP              0 ****  ****    0 ROOT
