@<TRIPOS>MOLECULE
MRD
   22    21     1     0     0
SMALL
bcc


@<TRIPOS>ATOM
      1 C1         -0.0110    0.0590    0.0300 c3        1 MRD     -0.124600
      2 C2          1.5110   -0.0140   -0.0750 c3        1 MRD      0.148800
      3 O2          2.0490   -0.5960    1.1140 oh        1 MRD     -0.595800
      4 CM          1.9030   -0.8570   -1.2820 c3        1 MRD     -0.124600
      5 C3          2.0790    1.4060   -0.1560 c3        1 MRD     -0.066400
      6 C4          3.6040    1.4530   -0.1540 c3        1 MRD      0.142100
      7 O4          3.9550    2.5710    0.6610 oh        1 MRD     -0.602800
      8 C5          4.1800    1.6270   -1.5490 c3        1 MRD     -0.132100
      9 H1C1       -0.3020    0.6210    0.9490 hc        1 MRD      0.043200
     10 H1C2       -0.4300    0.5780   -0.8630 hc        1 MRD      0.043200
     11 H1C3       -0.4440   -0.9680    0.0870 hc        1 MRD      0.043200
     12 H2          1.6570   -1.4730    1.1960 ho        1 MRD      0.398000
     13 HMC1        3.0060   -1.0320   -1.2820 hc        1 MRD      0.043200
     14 HMC2        1.6170   -0.3340   -2.2250 hc        1 MRD      0.043200
     15 HMC3        1.3870   -1.8460   -1.2480 hc        1 MRD      0.043200
     16 H3C1        1.7080    1.9850    0.7320 hc        1 MRD      0.063700
     17 H3C2        1.6800    1.8930   -1.0820 hc        1 MRD      0.063700
     18 H4          4.0120    0.5140    0.3180 h1        1 MRD      0.053700
     19 HA          4.9170    2.5910    0.7020 ho        1 MRD      0.396000
     20 H5C1        3.8810    2.6160   -1.9700 hc        1 MRD      0.040700
     21 H5C2        3.8070    0.8200   -2.2230 hc        1 MRD      0.040700
     22 H5C3        5.2950    1.5810   -1.5150 hc        1 MRD      0.040700
@<TRIPOS>BOND
     1    1    2 1   
     2    1    9 1   
     3    1   10 1   
     4    1   11 1   
     5    2    3 1   
     6    2    4 1   
     7    2    5 1   
     8    3   12 1   
     9    4   13 1   
    10    4   14 1   
    11    4   15 1   
    12    5    6 1   
    13    5   16 1   
    14    5   17 1   
    15    6    7 1   
    16    6    8 1   
    17    6   18 1   
    18    7   19 1   
    19    8   20 1   
    20    8   21 1   
    21    8   22 1   
@<TRIPOS>SUBSTRUCTURE
     1 MRD         1 TEMP              0 ****  ****    0 ROOT
