@<TRIPOS>MOLECULE
MRD
   22    21     1     0     0
SMALL
bcc


@<TRIPOS>ATOM
      1 C1         -2.1240   -0.8290    0.1540 c3        1 MRD     -0.124600
      2 C2         -0.6110   -0.8290    0.1540 c3        1 MRD      0.148800
      3 O2         -0.1420   -0.8290    1.4810 oh        1 MRD     -0.613800
      4 CM         -0.1070   -2.0640   -0.5590 c3        1 MRD     -0.124600
      5 C3         -0.1070    0.4070   -0.5590 c3        1 MRD     -0.108400
      6 C4          0.9870    1.0510    0.2620 c3        1 MRD      0.156100
      7 O4          0.4170    1.7120    1.3660 oh        1 MRD     -0.609800
      8 C5          1.7360    2.0500   -0.5910 c3        1 MRD     -0.094100
      9 H1C1       -2.4490   -0.7080   -0.7580 hc        1 MRD      0.044033
     10 H1C2       -2.4490   -0.0990    0.7150 hc        1 MRD      0.044033
     11 H1C3       -2.4490   -1.6790    0.5060 hc        1 MRD      0.044033
     12 H2         -0.4680   -1.5340    1.9100 ho        1 MRD      0.406000
     13 HMC1       -0.4870   -2.8590   -0.1400 hc        1 MRD      0.044033
     14 HMC2       -0.3750   -2.0300   -1.4970 hc        1 MRD      0.044033
     15 HMC3        0.8670   -2.0990   -0.5000 hc        1 MRD      0.044033
     16 H3C1       -0.8420    1.0380   -0.6750 hc        1 MRD      0.059200
     17 H3C2        0.2480    0.1560   -1.4330 hc        1 MRD      0.059200
     18 H4          1.6050    0.3650    0.5770 h1        1 MRD      0.032700
     19 HA          1.0610    1.9840    1.9140 ho        1 MRD      0.420000
     20 H5C1        1.1350    2.7760   -0.8460 hc        1 MRD      0.042367
     21 H5C2        2.4870    2.4120   -0.0850 hc        1 MRD      0.042367
     22 H5C3        2.0680    1.6060   -1.3950 hc        1 MRD      0.042367
@<TRIPOS>BOND
     1    1    2 1   
     2    1    9 1   
     3    1   10 1   
     4    1   11 1   
     5    2    3 1   
     6    2    4 1   
     7    2    5 1   
     8    3   12 1   
     9    4   13 1   
    10    4   14 1   
    11    4   15 1   
    12    5    6 1   
    13    5   16 1   
    14    5   17 1   
    15    6    7 1   
    16    6    8 1   
    17    6   18 1   
    18    7   19 1   
    19    8   20 1   
    20    8   21 1   
    21    8   22 1   
@<TRIPOS>SUBSTRUCTURE
     1 MRD         1 TEMP              0 ****  ****    0 ROOT
