@<TRIPOS>MOLECULE
MRD
   22    21     1     0     0
SMALL
bcc


@<TRIPOS>ATOM
      1 C1          0.5440   -0.1500   -0.9100 c3        1 MRD     -0.122100
      2 C2          1.4880    0.0440    0.2720 c3        1 MRD      0.153800
      3 O2          0.7120    0.3340    1.4430 oh        1 MRD     -0.605800
      4 CM          2.3140   -1.2150    0.5000 c3        1 MRD     -0.122100
      5 C3          2.3800    1.2780    0.1080 c3        1 MRD     -0.068400
      6 C4          3.2370    1.2780   -1.1530 c3        1 MRD      0.141100
      7 O4          4.3890    0.4840   -0.8770 oh        1 MRD     -0.603800
      8 C5          3.6400    2.6960   -1.5260 c3        1 MRD     -0.131100
      9 H1C1        0.0780    0.8220   -1.1960 hc        1 MRD      0.044367
     10 H1C2        1.0950   -0.5660   -1.7860 hc        1 MRD      0.044367
     11 H1C3       -0.2690   -0.8650   -0.6340 hc        1 MRD      0.044367
     12 H2          0.2100   -0.4620    1.6470 ho        1 MRD      0.398000
     13 HMC1        2.8610   -1.1370    1.4710 hc        1 MRD      0.044367
     14 HMC2        3.0620   -1.3320   -0.3210 hc        1 MRD      0.044367
     15 HMC3        1.6540   -2.1130    0.5290 hc        1 MRD      0.044367
     16 H3C1        3.0500    1.3480    1.0050 hc        1 MRD      0.066200
     17 H3C2        1.7210    2.1860    0.0970 hc        1 MRD      0.066200
     18 H4          2.6780    0.8120   -2.0130 h1        1 MRD      0.033700
     19 HA          4.9860    0.5890   -1.6270 ho        1 MRD      0.398000
     20 H5C1        4.1940    3.1740   -0.6830 hc        1 MRD      0.043700
     21 H5C2        2.7340    3.3050   -1.7550 hc        1 MRD      0.043700
     22 H5C3        4.3020    2.6860   -2.4250 hc        1 MRD      0.043700
@<TRIPOS>BOND
     1    1    2 1   
     2    1    9 1   
     3    1   10 1   
     4    1   11 1   
     5    2    3 1   
     6    2    4 1   
     7    2    5 1   
     8    3   12 1   
     9    4   13 1   
    10    4   14 1   
    11    4   15 1   
    12    5    6 1   
    13    5   16 1   
    14    5   17 1   
    15    6    7 1   
    16    6    8 1   
    17    6   18 1   
    18    7   19 1   
    19    8   20 1   
    20    8   21 1   
    21    8   22 1   
@<TRIPOS>SUBSTRUCTURE
     1 MRD         1 TEMP              0 ****  ****    0 ROOT
