@<TRIPOS>MOLECULE
MRE
   34    35     1     0     0
SMALL
bcc


@<TRIPOS>ATOM
      1 C1          0.1870    0.0810   -0.0640 ca        1 MRE      0.121400
      2 C2          1.5980    0.1370   -0.0650 ca        1 MRE     -0.098600
      3 C3          2.2660    0.0370    1.1600 ca        1 MRE     -0.105000
      4 C4          1.5710   -0.1310    2.3540 ca        1 MRE     -0.159000
      5 C5          0.1790   -0.2020    2.3440 ca        1 MRE     -0.153000
      6 C6         -0.5150   -0.1010    1.1420 ca        1 MRE     -0.152000
      7 C1'        -1.5800   -0.3370   -3.2060 ca        1 MRE      0.105400
      8 C2'        -2.9460   -0.5410   -3.4620 ca        1 MRE     -0.103000
      9 C3'        -3.4440   -0.4260   -4.7550 ca        1 MRE     -0.161500
     10 C4'        -2.5930   -0.1010   -5.8320 ca        1 MRE      0.089600
     11 C5'        -1.2240    0.1080   -5.5630 ca        1 MRE     -0.161500
     12 C6'        -0.7210   -0.0060   -4.2730 ca        1 MRE     -0.103000
     13 C           2.4410    0.3050   -1.3280 c         1 MRE      0.916200
     14 CHX        -4.1070    1.0020   -7.3540 c3        1 MRE      0.170600
     15 CHZ        -2.1790   -0.1530   -8.2260 c3        1 MRE      0.170600
     16 N1         -0.5170    0.3350   -1.2950 ne        1 MRE     -0.152400
     17 N1'        -1.0330   -0.5980   -1.8970 nf        1 MRE     -0.186400
     18 OXT         2.0030   -0.1360   -2.4280 o         1 MRE     -0.827800
     19 O           3.5630    0.8680   -1.1910 o         1 MRE     -0.827800
     20 N10        -3.1390   -0.0530   -7.1520 nh        1 MRE     -0.634000
     21 H6         -1.6130   -0.1630    1.1410 ha        1 MRE      0.116000
     22 H3          3.3670    0.1090    1.1480 ha        1 MRE      0.154000
     23 H4          2.1170   -0.2080    3.3050 ha        1 MRE      0.108000
     24 H5         -0.3750   -0.3400    3.2820 ha        1 MRE      0.106000
     25 H2'        -3.6340   -0.7970   -2.6420 ha        1 MRE      0.168000
     26 H6'         0.3600    0.1510   -4.0690 ha        1 MRE      0.168000
     27 H3'        -4.5160   -0.5990   -4.9300 ha        1 MRE      0.126000
     28 H5'        -0.5260    0.3690   -6.3730 ha        1 MRE      0.126000
     29 HHX1       -3.6360    2.0200   -7.4490 h1        1 MRE      0.029700
     30 HHX2       -4.6730    0.7860   -8.2980 h1        1 MRE      0.029700
     31 HHX3       -4.8260    1.0210   -6.4940 h1        1 MRE      0.029700
     32 HHZ1       -1.4870   -1.0120   -8.0250 h1        1 MRE      0.029700
     33 HHZ2       -1.5660    0.7790   -8.3700 h1        1 MRE      0.029700
     34 HHZ3       -2.7410   -0.3540   -9.1770 h1        1 MRE      0.029700
@<TRIPOS>BOND
     1    1    2 ar  
     2    1    6 ar  
     3    1   16 1   
     4    2    3 ar  
     5    2   13 1   
     6    3    4 ar  
     7    3   22 1   
     8    4    5 ar  
     9    4   23 1   
    10    5    6 ar  
    11    5   24 1   
    12    6   21 1   
    13    7    8 ar  
    14    7   12 ar  
    15    7   17 1   
    16    8    9 ar  
    17    8   25 1   
    18    9   10 ar  
    19    9   27 1   
    20   10   11 ar  
    21   10   20 1   
    22   11   12 ar  
    23   11   28 1   
    24   12   26 1   
    25   13   18 1   
    26   13   19 1   
    27   14   20 1   
    28   14   29 1   
    29   14   30 1   
    30   14   31 1   
    31   15   20 1   
    32   15   32 1   
    33   15   33 1   
    34   15   34 1   
    35   16   17 2   
@<TRIPOS>SUBSTRUCTURE
     1 MRE         1 TEMP              0 ****  ****    0 ROOT
