@<TRIPOS>MOLECULE
MRE
   35    36     1     0     0
SMALL
bcc


@<TRIPOS>ATOM
      1 C1          0.2980    0.2790   -0.0760 ca        1 MRE      0.095400
      2 C2          1.5260   -0.4150   -0.0900 ca        1 MRE     -0.092600
      3 C3          2.1670   -0.6470    1.1320 ca        1 MRE     -0.098000
      4 C4          1.6020   -0.2280    2.3330 ca        1 MRE     -0.138000
      5 C5          0.3780    0.4430    2.3330 ca        1 MRE     -0.144000
      6 C6         -0.2810    0.6970    1.1340 ca        1 MRE     -0.138000
      7 C1'        -1.5210    0.1430   -3.2080 ca        1 MRE      0.203400
      8 C2'        -2.8270    0.5280   -3.5690 ca        1 MRE     -0.111000
      9 C3'        -3.2240    0.5020   -4.9000 ca        1 MRE     -0.106000
     10 C4'        -2.3130    0.0980   -5.8890 ca        1 MRE     -0.112400
     11 C5'        -0.9970   -0.2720   -5.5440 ca        1 MRE     -0.106000
     12 C6'        -0.6030   -0.2440   -4.2180 ca        1 MRE     -0.111000
     13 C           2.1980   -0.9040   -1.3690 c         1 MRE      0.919200
     14 CHX        -3.8100   -0.9300   -7.5200 c3        1 MRE      0.090100
     15 CHZ        -3.0920    1.3980   -7.8040 c3        1 MRE      0.090100
     16 N1         -0.2770    0.6450   -1.3470 ne        1 MRE     -0.119400
     17 N1'        -1.1560   -0.0480   -1.8370 nf        1 MRE     -0.182400
     18 OXT         1.4700   -1.3160   -2.3240 o         1 MRE     -0.828800
     19 O           3.4540   -0.8880   -1.4070 o         1 MRE     -0.828800
     20 N10        -2.7140    0.0510   -7.3050 n4        1 MRE     -0.534800
     21 H6         -1.2450    1.2260    1.1420 ha        1 MRE      0.120000
     22 H3          3.1420   -1.1630    1.1110 ha        1 MRE      0.162000
     23 H4          2.1190   -0.4220    3.2830 ha        1 MRE      0.123000
     24 H5         -0.0710    0.7710    3.2810 ha        1 MRE      0.121000
     25 H2'        -3.5470    0.8460   -2.7980 ha        1 MRE      0.210500
     26 H6'         0.4330   -0.5510   -3.9230 ha        1 MRE      0.210500
     27 H3'        -4.2520    0.8010   -5.1590 ha        1 MRE      0.138000
     28 H5'        -0.2670   -0.5840   -6.3080 ha        1 MRE      0.138000
     29 HHX1       -4.7180   -0.6080   -6.9450 hx        1 MRE      0.097367
     30 HHX2       -4.0490   -0.9840   -8.6140 hx        1 MRE      0.097367
     31 HHX3       -3.4780   -1.9360   -7.1460 hx        1 MRE      0.097367
     32 HHZ1       -2.2330    2.1030   -7.6370 hx        1 MRE      0.097367
     33 HHZ2       -3.3330    1.3340   -8.8970 hx        1 MRE      0.097367
     34 HHZ3       -3.9860    1.7700   -7.2370 hx        1 MRE      0.097367
     35 H101       -1.8930   -0.2680   -7.8410 hn        1 MRE      0.447800
@<TRIPOS>BOND
     1    1    2 ar  
     2    1    6 ar  
     3    1   16 1   
     4    2    3 ar  
     5    2   13 1   
     6    3    4 ar  
     7    3   22 1   
     8    4    5 ar  
     9    4   23 1   
    10    5    6 ar  
    11    5   24 1   
    12    6   21 1   
    13    7    8 ar  
    14    7   12 ar  
    15    7   17 1   
    16    8    9 ar  
    17    8   25 1   
    18    9   10 ar  
    19    9   27 1   
    20   10   11 ar  
    21   10   20 1   
    22   11   12 ar  
    23   11   28 1   
    24   12   26 1   
    25   13   18 1   
    26   13   19 1   
    27   14   20 1   
    28   14   29 1   
    29   14   30 1   
    30   14   31 1   
    31   15   20 1   
    32   15   32 1   
    33   15   33 1   
    34   15   34 1   
    35   16   17 2   
    36   20   35 1   
@<TRIPOS>SUBSTRUCTURE
     1 MRE         1 TEMP              0 ****  ****    0 ROOT
