@<TRIPOS>MOLECULE
MRE
   34    35     1     0     0
SMALL
bcc


@<TRIPOS>ATOM
      1 C1         16.1560   13.2740   22.2630 ca        1 MRE      0.120400
      2 C2         16.4710   13.7290   23.5610 ca        1 MRE     -0.104600
      3 C3         15.6790   14.7390   24.1220 ca        1 MRE     -0.103000
      4 C4         14.6040   15.2880   23.4290 ca        1 MRE     -0.160000
      5 C5         14.2950   14.8260   22.1500 ca        1 MRE     -0.153000
      6 C6         15.0600   13.8220   21.5670 ca        1 MRE     -0.147000
      7 C1'        17.9720   10.2840   21.2910 ca        1 MRE      0.109400
      8 C2'        17.5990    9.3020   20.3600 ca        1 MRE     -0.106000
      9 C3'        18.5260    8.3650   19.9160 ca        1 MRE     -0.160000
     10 C4'        19.8560    8.3850   20.3860 ca        1 MRE      0.085600
     11 C5'        20.2220    9.3810   21.3150 ca        1 MRE     -0.160000
     12 C6'        19.3000   10.3180   21.7620 ca        1 MRE     -0.106000
     13 C          17.6330   13.2000   24.4010 c         1 MRE      0.915200
     14 CHX        21.0690    7.4210   18.5360 c3        1 MRE      0.170600
     15 CHZ        21.9230    7.1670   20.7760 c3        1 MRE      0.170600
     16 N1         17.0170   12.3480   21.5730 ne        1 MRE     -0.159400
     17 N1'        16.9890   11.1620   21.8750 nf        1 MRE     -0.175400
     18 OXT        17.5090   13.2850   25.6550 o         1 MRE     -0.827300
     19 O          18.6570   12.7380   23.8260 o         1 MRE     -0.827300
     20 N10        20.7580    7.3660   19.9470 nh        1 MRE     -0.633000
     21 H6         14.8040   13.4610   20.5600 ha        1 MRE      0.116000
     22 H3         15.9250   15.0710   25.1440 ha        1 MRE      0.155000
     23 H4         13.9960   16.0790   23.8890 ha        1 MRE      0.108000
     24 H5         13.4450   15.2520   21.6000 ha        1 MRE      0.106000
     25 H2'        16.5690    9.2600   19.9770 ha        1 MRE      0.168500
     26 H6'        19.5900   11.0950   22.5020 ha        1 MRE      0.168500
     27 H3'        18.2060    7.5990   19.1940 ha        1 MRE      0.125500
     28 H5'        21.2500    9.4340   21.7040 ha        1 MRE      0.125500
     29 HHX1       21.7820    8.2510   18.2730 h1        1 MRE      0.029200
     30 HHX2       21.5380    6.4460   18.2390 h1        1 MRE      0.029200
     31 HHX3       20.1250    7.5650   17.9500 h1        1 MRE      0.029200
     32 HHZ1       22.4010    6.1970   20.4770 h1        1 MRE      0.029200
     33 HHZ2       22.6910    7.9840   20.6760 h1        1 MRE      0.029200
     34 HHZ3       21.6060    7.1010   21.8490 h1        1 MRE      0.029200
@<TRIPOS>BOND
     1    1    2 ar  
     2    1    6 ar  
     3    1   16 1   
     4    2    3 ar  
     5    2   13 1   
     6    3    4 ar  
     7    3   22 1   
     8    4    5 ar  
     9    4   23 1   
    10    5    6 ar  
    11    5   24 1   
    12    6   21 1   
    13    7    8 ar  
    14    7   12 ar  
    15    7   17 1   
    16    8    9 ar  
    17    8   25 1   
    18    9   10 ar  
    19    9   27 1   
    20   10   11 ar  
    21   10   20 1   
    22   11   12 ar  
    23   11   28 1   
    24   12   26 1   
    25   13   18 1   
    26   13   19 1   
    27   14   20 1   
    28   14   29 1   
    29   14   30 1   
    30   14   31 1   
    31   15   20 1   
    32   15   32 1   
    33   15   33 1   
    34   15   34 1   
    35   16   17 2   
@<TRIPOS>SUBSTRUCTURE
     1 MRE         1 TEMP              0 ****  ****    0 ROOT
