@<TRIPOS>MOLECULE
MRE
   34    29     1     0     0
SMALL
bcc


@<TRIPOS>ATOM
      1 C1         -0.2640   -2.8080    0.0600 cg        1 MRE     -0.030500
      2 C2          0.9900   -3.2920    0.3050 cg        1 MRE     -0.044200
      3 C3          1.5000   -3.2820    1.6000 c1        1 MRE     -0.050500
      4 C4          0.7560   -2.7930    2.6170 c1        1 MRE     -0.084250
      5 C5         -0.5130   -2.3020    2.3750 c1        1 MRE     -0.084250
      6 C6         -1.0200   -2.3110    1.0960 c1        1 MRE     -0.076000
      7 C1'        -0.8330   -0.5590   -1.4800 ch        1 MRE     -0.030500
      8 C2'        -1.6610    0.0270   -0.5430 c1        1 MRE     -0.076000
      9 C3'        -1.4290    1.3700   -0.1210 c1        1 MRE     -0.067500
     10 C4'        -0.3850    2.0800   -0.6440 c1        1 MRE      0.035800
     11 C5'         0.4750    1.4810   -1.6120 c1        1 MRE     -0.084250
     12 C6'         0.2480    0.1730   -2.0230 c1        1 MRE     -0.084250
     13 C           1.7550   -3.9290   -0.7780 c         1 MRE      0.863800
     14 CHX         0.4160    3.6700    1.1070 c3        1 MRE      0.160100
     15 CHZ        -0.4190    4.4730   -1.1590 c3        1 MRE      0.160100
     16 N1         -0.8540   -2.9880   -1.2300 ne        1 MRE     -0.035500
     17 N1'        -1.1310   -1.9520   -1.9760 nf        1 MRE     -0.035500
     18 OXT         1.2500   -4.8840   -1.4240 o         1 MRE     -0.823300
     19 O           2.8980   -3.6400   -0.9460 o         1 MRE     -0.823300
     20 N10        -0.1680    3.3900   -0.2420 n3        1 MRE     -0.598200
     21 H6         -1.8830   -1.9770    0.9310 ha        1 MRE      0.065000
     22 H3          2.4390   -3.6540    1.7840 ha        1 MRE      0.091500
     23 H4          1.1290   -2.7870    3.5560 ha        1 MRE      0.084000
     24 H5         -1.0940   -1.9970    3.1480 ha        1 MRE      0.084000
     25 H2'        -2.4200   -0.4430   -0.2260 ha        1 MRE      0.065000
     26 H6'         0.9030   -0.2870   -2.7620 ha        1 MRE      0.084000
     27 H3'        -2.0540    1.8010    0.4650 ha        1 MRE      0.071500
     28 H5'         1.1380    2.0040   -2.0440 ha        1 MRE      0.084000
     29 HHX1        1.1980    3.1430    1.2280 h1        1 MRE      0.029367
     30 HHX2       -0.2460    3.4440    1.8060 h1        1 MRE      0.029367
     31 HHX3        0.6590    4.6620    1.1750 h1        1 MRE      0.029367
     32 HHZ1       -1.2400    4.3790   -1.5170 h1        1 MRE      0.029367
     33 HHZ2        0.2260    4.4580   -1.8480 h1        1 MRE      0.029367
     34 HHZ3       -0.3660    5.3320   -0.6770 h1        1 MRE      0.029367
@<TRIPOS>BOND
     1    1    6 3   
     2    1   16 1   
     3    2    3 3   
     4    2   13 1   
     5    3   22 1   
     6    4    5 3   
     7    4   23 1   
     8    5   24 1   
     9    6   21 1   
    10    7    8 3   
    11    7   17 1   
    12    8   25 1   
    13    9   10 3   
    14    9   27 1   
    15   10   20 1   
    16   11   12 3   
    17   11   28 1   
    18   12   26 1   
    19   13   18 1   
    20   13   19 1   
    21   14   20 1   
    22   14   29 1   
    23   14   30 1   
    24   14   31 1   
    25   15   20 1   
    26   15   32 1   
    27   15   33 1   
    28   15   34 1   
    29   16   17 2   
@<TRIPOS>SUBSTRUCTURE
     1 MRE         1 TEMP              0 ****  ****    0 ROOT
