@<TRIPOS>MOLECULE
MRE
   34    35     1     0     0
SMALL
bcc


@<TRIPOS>ATOM
      1 C1          0.1970    0.0970   -0.0660 ca        1 MRE      0.121400
      2 C2          1.6070    0.1470   -0.0700 ca        1 MRE     -0.098600
      3 C3          2.2780    0.0480    1.1540 ca        1 MRE     -0.105000
      4 C4          1.5840   -0.1150    2.3500 ca        1 MRE     -0.159000
      5 C5          0.1920   -0.1800    2.3420 ca        1 MRE     -0.153000
      6 C6         -0.5040   -0.0800    1.1420 ca        1 MRE     -0.152000
      7 C1'        -1.5790   -0.3230   -3.2030 ca        1 MRE      0.105400
      8 C2'        -2.9460   -0.5210   -3.4550 ca        1 MRE     -0.103000
      9 C3'        -3.4470   -0.4080   -4.7470 ca        1 MRE     -0.161500
     10 C4'        -2.5970   -0.0890   -5.8270 ca        1 MRE      0.089600
     11 C5'        -1.2260    0.1150   -5.5620 ca        1 MRE     -0.161500
     12 C6'        -0.7220    0.0020   -4.2730 ca        1 MRE     -0.103000
     13 C           2.4480    0.3100   -1.3350 c         1 MRE      0.916200
     14 CHX        -4.1100    1.0150   -7.3490 c3        1 MRE      0.170600
     15 CHZ        -2.1890   -0.1490   -8.2220 c3        1 MRE      0.170600
     16 N1         -0.5090    0.3510   -1.2960 ne        1 MRE     -0.152400
     17 N1'        -1.0300   -0.5820   -1.8940 nf        1 MRE     -0.186400
     18 OXT         2.0070   -0.1320   -2.4330 o         1 MRE     -0.827800
     19 O           3.5730    0.8680   -1.2020 o         1 MRE     -0.827800
     20 N10        -3.1460   -0.0430   -7.1470 nh        1 MRE     -0.634000
     21 H6         -1.6020   -0.1370    1.1430 ha        1 MRE      0.116000
     22 H3          3.3780    0.1160    1.1400 ha        1 MRE      0.154000
     23 H4          2.1320   -0.1910    3.3000 ha        1 MRE      0.108000
     24 H5         -0.3610   -0.3140    3.2820 ha        1 MRE      0.106000
     25 H2'        -3.6330   -0.7730   -2.6330 ha        1 MRE      0.168000
     26 H6'         0.3610    0.1550   -4.0720 ha        1 MRE      0.168000
     27 H3'        -4.5200   -0.5780   -4.9190 ha        1 MRE      0.126000
     28 H5'        -0.5300    0.3710   -6.3740 ha        1 MRE      0.126000
     29 HHX1       -4.6800    0.7980   -8.2910 h1        1 MRE      0.029700
     30 HHX2       -3.6370    2.0310   -7.4470 h1        1 MRE      0.029700
     31 HHX3       -4.8270    1.0390   -6.4870 h1        1 MRE      0.029700
     32 HHZ1       -1.5000   -1.0100   -8.0210 h1        1 MRE      0.029700
     33 HHZ2       -2.7540   -0.3500   -9.1710 h1        1 MRE      0.029700
     34 HHZ3       -1.5730    0.7800   -8.3700 h1        1 MRE      0.029700
@<TRIPOS>BOND
     1    1    2 ar  
     2    1    6 ar  
     3    1   16 1   
     4    2    3 ar  
     5    2   13 1   
     6    3    4 ar  
     7    3   22 1   
     8    4    5 ar  
     9    4   23 1   
    10    5    6 ar  
    11    5   24 1   
    12    6   21 1   
    13    7    8 ar  
    14    7   12 ar  
    15    7   17 1   
    16    8    9 ar  
    17    8   25 1   
    18    9   10 ar  
    19    9   27 1   
    20   10   11 ar  
    21   10   20 1   
    22   11   12 ar  
    23   11   28 1   
    24   12   26 1   
    25   13   18 1   
    26   13   19 1   
    27   14   20 1   
    28   14   29 1   
    29   14   30 1   
    30   14   31 1   
    31   15   20 1   
    32   15   32 1   
    33   15   33 1   
    34   15   34 1   
    35   16   17 2   
@<TRIPOS>SUBSTRUCTURE
     1 MRE         1 TEMP              0 ****  ****    0 ROOT
