@<TRIPOS>MOLECULE
MRG
   45    47     1     0     0
SMALL
bcc


@<TRIPOS>ATOM
      1 P           2.8720   -0.6710    4.9180 p5        1 MRG      1.430800
      2 OP1         2.5580   -1.9000    5.6700 o         1 MRG     -0.842500
      3 OP2         2.0410    0.6000    5.5290 oh        1 MRG     -0.786400
      4 O5'         2.1380   -0.7660    3.4420 os        1 MRG     -0.579200
      5 N9          3.0710    2.4470   -0.8980 nh        1 MRG     -0.126600
      6 C4          2.1250    2.6450   -1.9250 cc        1 MRG      0.000500
      7 N3          1.4770    1.7380   -2.7330 nc        1 MRG     -0.568300
      8 C2          0.6220    2.2720   -3.6170 cd        1 MRG      0.478800
      9 N1          0.3660    3.6530   -3.7500 n         1 MRG     -0.473400
     10 C6          1.0180    4.6220   -2.9550 c         1 MRG      0.725700
     11 O6          0.7210    5.8160   -3.1850 o         1 MRG     -0.701500
     12 C5          1.9460    4.0850   -1.9810 cd        1 MRG     -0.027600
     13 N7          2.7480    4.7050   -1.0400 nf        1 MRG     -0.614000
     14 C8          3.4250    3.7200   -0.3850 c1        1 MRG      0.050400
     15 N2         -0.1270    1.4120   -4.5270 nh        1 MRG     -0.762200
     16 C21        -1.2390    0.7660   -3.8440 c3        1 MRG      0.153800
     17 C22        -2.0330   -0.1750   -4.7510 c3        1 MRG     -0.084400
     18 C23        -2.7150    0.5640   -5.8700 c3        1 MRG      0.026700
     19 S24        -3.7430   -0.4740   -6.8790 sh        1 MRG     -0.428900
     20 C2'         4.8190    1.2240    0.4230 c3        1 MRG     -0.139400
     21 C5'         2.3840    0.2680    2.5390 c3        1 MRG      0.186400
     22 C4'         3.1310   -0.2710    1.3090 c3        1 MRG      0.086100
     23 O4'         2.6020    0.3310    0.1190 os        1 MRG     -0.441600
     24 C1'         3.5990    1.1700   -0.5240 c3        1 MRG      0.270800
     25 C3'         4.6460    0.0140    1.3440 c3        1 MRG      0.099100
     26 O3'         5.3930   -1.0960    0.8670 oh        1 MRG     -0.607800
     27 OP3         4.2120   -0.0820    4.6910 o         1 MRG     -0.842500
     28 H1         -0.2780    3.9650   -4.4380 hn        1 MRG      0.308500
     29 H8          2.5050    1.4190    5.3960 ho        1 MRG      0.423000
     30 H21         0.4950    0.7150   -4.9010 hn        1 MRG      0.367800
     31 H211       -1.9210    1.5810   -3.4700 h1        1 MRG      0.053700
     32 H212       -0.9020    0.1710   -2.9450 h1        1 MRG      0.053700
     33 H221       -1.3610   -0.9690   -5.1690 hc        1 MRG      0.045200
     34 H222       -2.8000   -0.6880   -4.1100 hc        1 MRG      0.045200
     35 H231       -1.9620    0.9890   -6.5800 h1        1 MRG      0.080700
     36 H232       -3.3210    1.4090   -5.4620 h1        1 MRG      0.080700
     37 H24        -4.4760   -1.0430   -5.9390 hs        1 MRG      0.199800
     38 H2'         4.8210    2.1740    1.0170 hc        1 MRG      0.079700
     39 H2''        5.7660    1.1620   -0.1610 hc        1 MRG      0.079700
     40 H5'         1.3920    0.6760    2.1920 h1        1 MRG      0.038200
     41 H5''        2.9760    1.0880    3.0300 h1        1 MRG      0.038200
     42 H4'         2.9300   -1.3730    1.2080 h1        1 MRG      0.066700
     43 H1'         3.8630    0.6060   -1.4730 h2        1 MRG      0.028700
     44 H3'         5.0230    0.1830    2.3920 h1        1 MRG      0.147700
     45 HO3'        5.0240   -1.3290    0.0060 ho        1 MRG      0.380000
@<TRIPOS>BOND
     1    1    2 1   
     2    1    3 1   
     3    1    4 1   
     4    1   27 1   
     5    3   29 1   
     6    4   21 1   
     7    5    6 1   
     8    5   14 2   
     9    5   24 1   
    10    6    7 1   
    11    6   12 2   
    12    7    8 2   
    13    8    9 1   
    14    8   15 1   
    15    9   10 1   
    16    9   28 1   
    17   10   11 2   
    18   10   12 1   
    19   12   13 1   
    20   13   14 2   
    21   15   16 1   
    22   15   30 1   
    23   16   17 1   
    24   16   31 1   
    25   16   32 1   
    26   17   18 1   
    27   17   33 1   
    28   17   34 1   
    29   18   19 1   
    30   18   35 1   
    31   18   36 1   
    32   19   37 1   
    33   20   24 1   
    34   20   25 1   
    35   20   38 1   
    36   20   39 1   
    37   21   22 1   
    38   21   40 1   
    39   21   41 1   
    40   22   23 1   
    41   22   25 1   
    42   22   42 1   
    43   23   24 1   
    44   24   43 1   
    45   25   26 1   
    46   25   44 1   
    47   26   45 1   
@<TRIPOS>SUBSTRUCTURE
     1 MRG         1 TEMP              0 ****  ****    0 ROOT
