@<TRIPOS>MOLECULE
MRG
   45    42     1     0     0
SMALL
bcc


@<TRIPOS>ATOM
      1 P          -6.7360   -2.2860   -2.7810 p3        1 MRG      2.524000
      2 OP1        -6.2960   -1.8440   -4.1570 o         1 MRG     -1.251500
      3 OP2        -6.7870   -3.7970   -2.7290 os        1 MRG     -1.245000
      4 O5'        -5.6820   -1.7410   -1.6760 os        1 MRG     -0.715000
      5 N9         -0.2280   -1.1750   -0.8690 n2        1 MRG     -0.135000
      6 C4          1.0260   -1.0570   -0.3480 c1        1 MRG     -0.011000
      7 N3          1.5690   -0.2080    0.7070 n1        1 MRG     -0.182000
      8 C2          2.9810   -0.2550    1.0180 c1        1 MRG      0.141000
      9 N1          3.8420   -1.1290    0.2960 n2        1 MRG     -0.327000
     10 C6          3.3230   -1.9430   -0.7150 c2        1 MRG      0.388000
     11 O6          4.0520   -2.7080   -1.3160 o         1 MRG     -0.366000
     12 C5          1.8520   -1.8760   -1.0570 c2        1 MRG     -0.212000
     13 N7          1.1150   -2.4940   -2.0070 n2        1 MRG     -0.106000
     14 C8         -0.1750   -2.0600   -1.8910 c1        1 MRG     -0.033000
     15 N2          3.5010    0.5190    2.1210 n3        1 MRG     -0.255000
     16 C21         3.4890    1.9660    2.0590 c3        1 MRG     -0.078000
     17 C22         4.4770    2.5330    3.0900 c3        1 MRG     -0.156000
     18 C23         4.2890    4.0750    3.1950 c3        1 MRG     -0.246000
     19 S24         5.5550    4.7560    4.2290 sh        1 MRG     -0.039000
     20 C2'        -1.9320    0.4240   -0.7110 c3        1 MRG     -0.207000
     21 C5'        -4.2980   -2.0760   -1.8260 c3        1 MRG      0.079000
     22 C4'        -3.4680   -1.3070   -0.7800 c3        1 MRG     -0.058000
     23 O4'        -2.4340   -1.9580   -0.4870 os        1 MRG     -0.290000
     24 C1'        -1.3530   -0.8840   -0.2100 c2        1 MRG      0.161000
     25 C3'        -2.9650    0.0880   -1.3940 c3        1 MRG      0.047000
     26 O3'        -4.0230    1.1160   -1.2550 oh        1 MRG     -0.401000
     27 OP3        -8.1130   -1.7230   -2.4860 o         1 MRG     -1.251500
     28 H1          4.7330   -1.1580    0.4930 hn        1 MRG      0.240000
     29 H8         -0.9110   -2.2950   -2.4800 DU        1 MRG      0.255000
     30 H21         3.8100    0.0950    2.8720 hn        1 MRG      0.186000
     31 H211        2.5900    2.2930    2.2570 h1        1 MRG      0.087500
     32 H212        3.7510    2.2570    1.1630 h1        1 MRG      0.087500
     33 H221        4.3090    2.1220    3.9630 hc        1 MRG      0.101500
     34 H222        5.3910    2.3350    2.8080 hc        1 MRG      0.101500
     35 H231        3.4070    4.2710    3.5830 h1        1 MRG      0.104500
     36 H232        4.3480    4.4730    2.3010 h1        1 MRG      0.104500
     37 H24         5.5180    5.9390    4.1710 hs        1 MRG      0.026000
     38 H2'        -2.1930    0.9910    0.0430 hc        1 MRG      0.093000
     39 H2''       -1.2850    0.8870   -1.2800 hc        1 MRG      0.093000
     40 H5'        -4.0000   -1.8300   -2.7210 h1        1 MRG      0.035000
     41 H5''       -4.1790   -3.0370   -1.6950 h1        1 MRG      0.035000
     42 H4'        -4.0010   -1.1490    0.0180 h1        1 MRG      0.122000
     43 H1'        -1.1750   -0.8260    0.7500 h4        1 MRG      0.105000
     44 H3'        -2.7260   -0.0230   -2.3290 h1        1 MRG      0.147000
     45 HO3'       -3.9680    1.6940   -1.9350 ho        1 MRG      0.301000
@<TRIPOS>BOND
     1    1    2 1   
     2    1    4 1   
     3    1   27 1   
     4    4   21 1   
     5    5    6 1   
     6    5   14 1   
     7    6   12 1   
     8    7    8 1   
     9    8   15 1   
    10    9   10 1   
    11    9   28 1   
    12   10   11 1   
    13   10   12 1   
    14   12   13 1   
    15   13   14 1   
    16   15   16 1   
    17   15   30 1   
    18   16   17 1   
    19   16   31 1   
    20   16   32 1   
    21   17   18 1   
    22   17   33 1   
    23   17   34 1   
    24   18   19 1   
    25   18   35 1   
    26   18   36 1   
    27   19   37 1   
    28   20   24 1   
    29   20   25 1   
    30   20   38 1   
    31   20   39 1   
    32   21   22 1   
    33   21   40 1   
    34   21   41 1   
    35   22   23 1   
    36   22   25 1   
    37   22   42 1   
    38   23   24 1   
    39   24   43 1   
    40   25   26 1   
    41   25   44 1   
    42   26   45 1   
@<TRIPOS>SUBSTRUCTURE
     1 MRG         1 TEMP              0 ****  ****    0 ROOT
