@<TRIPOS>MOLECULE
MRI
   32    34     1     0     0
SMALL
bcc


@<TRIPOS>ATOM
      1 OAB        -0.0960    0.5220    0.1650 oh        1 MRI     -0.495100
      2 CAM         1.2650    0.3030    0.1260 cc        1 MRI     -0.076100
      3 CAN         2.0100    0.3670    1.4000 c         1 MRI      0.585900
      4 OAD         1.4090    0.5880    2.4620 o         1 MRI     -0.542100
      5 CAI         3.4410    0.1430    1.2590 ca        1 MRI     -0.281600
      6 CAO         4.3320    0.1650    2.3620 ca        1 MRI      0.246100
      7 OAC         3.7860    0.4120    3.5900 oh        1 MRI     -0.453100
      8 CAS         5.7030   -0.0540    2.1990 ca        1 MRI     -0.299000
      9 CAR         6.2000   -0.3020    0.9080 ca        1 MRI      0.224100
     10 OAF         7.5510   -0.5100    0.8130 oh        1 MRI     -0.487100
     11 CAP         5.3610   -0.3340   -0.2090 ca        1 MRI     -0.293000
     12 CAJ         3.9880   -0.1090   -0.0130 ca        1 MRI      0.227100
     13 OAA         3.2390   -0.1500   -1.1690 os        1 MRI     -0.190200
     14 CAK         1.8630    0.0410   -1.0690 cd        1 MRI      0.152900
     15 CAL         1.2180   -0.0630   -2.3710 ca        1 MRI     -0.119800
     16 CAT         0.1090    0.7420   -2.6670 ca        1 MRI     -0.015000
     17 CAV        -0.5310    0.6650   -3.8980 ca        1 MRI     -0.256000
     18 CAW        -0.0600   -0.2380   -4.8640 ca        1 MRI      0.181100
     19 OAG        -0.6390   -0.3680   -6.1020 oh        1 MRI     -0.493100
     20 CAU         1.0430   -1.0620   -4.6040 ca        1 MRI     -0.261000
     21 CAQ         1.6740   -0.9680   -3.3570 ca        1 MRI      0.195100
     22 OAE         2.7510   -1.7560   -3.0420 oh        1 MRI     -0.478100
     23 H1         -0.3500    0.5620    1.1040 ho        1 MRI      0.444000
     24 H2          4.4990    0.3970    4.2480 ho        1 MRI      0.426000
     25 H3          6.3910   -0.0370    3.0540 ha        1 MRI      0.160000
     26 H4          7.7690   -0.6700   -0.1190 ho        1 MRI      0.430000
     27 H5          5.7440   -0.5300   -1.2180 ha        1 MRI      0.162000
     28 H6         -0.2640    1.4440   -1.9010 ha        1 MRI      0.163000
     29 H7         -1.4000    1.3020   -4.1120 ha        1 MRI      0.141000
     30 H8         -1.3880    0.2450   -6.1480 ho        1 MRI      0.426000
     31 H9          1.3960   -1.7650   -5.3700 ha        1 MRI      0.155000
     32 H10         2.9290   -2.3370   -3.7980 ho        1 MRI      0.422000
@<TRIPOS>BOND
     1    1    2 1   
     2    1   23 1   
     3    2    3 1   
     4    2   14 2   
     5    3    4 2   
     6    3    5 1   
     7    5    6 ar  
     8    5   12 ar  
     9    6    7 1   
    10    6    8 ar  
    11    7   24 1   
    12    8    9 ar  
    13    8   25 1   
    14    9   10 1   
    15    9   11 ar  
    16   10   26 1   
    17   11   12 ar  
    18   11   27 1   
    19   12   13 1   
    20   13   14 1   
    21   14   15 1   
    22   15   16 ar  
    23   15   21 ar  
    24   16   17 ar  
    25   16   28 1   
    26   17   18 ar  
    27   17   29 1   
    28   18   19 1   
    29   18   20 ar  
    30   19   30 1   
    31   20   21 ar  
    32   20   31 1   
    33   21   22 1   
    34   22   32 1   
@<TRIPOS>SUBSTRUCTURE
     1 MRI         1 TEMP              0 ****  ****    0 ROOT
