@<TRIPOS>MOLECULE
MRK
   35    35     1     0     0
SMALL
bcc


@<TRIPOS>ATOM
      1 S1         -2.8660    0.9850   -2.0840 s         1 MRK     -0.112900
      2 C2          2.3200   -2.0120    4.9480 c2        1 MRK     -0.360100
      3 C3          1.4500   -1.1730    4.4420 c1        1 MRK      0.288500
      4 N4          0.6400   -0.3020    4.1050 n2        1 MRK     -0.687800
      5 C5         -2.9380    0.8550   -0.6360 c1        1 MRK      0.510300
      6 N6         -3.1900    0.7680    0.5690 ne        1 MRK     -0.685800
      7 C7         -2.5260    0.6130    1.7880 c         1 MRK      0.831100
      8 O8         -1.2920    0.4280    1.7960 o         1 MRK     -0.615100
      9 C9         -2.8250    1.1810    4.2220 ca        1 MRK      0.283600
     10 C10        -3.3610    0.6610    3.0040 ca        1 MRK     -0.262600
     11 C11        -4.6670    0.1630    2.9790 ca        1 MRK      0.050000
     12 C12        -5.4770    0.1090    4.1100 ca        1 MRK     -0.193100
     13 C13        -4.9270    0.5790    5.3290 ca        1 MRK      0.257900
     14 F14        -5.6450    0.5310    6.4740 f         1 MRK     -0.125900
     15 C15        -3.6350    1.1070    5.3860 ca        1 MRK     -0.289000
     16 S16        -7.0970   -0.4100    3.9500 ss        1 MRK     -0.007100
     17 N17        -7.1520   -2.8780    5.1490 na        1 MRK      0.135600
     18 C18        -7.0990   -2.0460    4.0090 cc        1 MRK     -0.200300
     19 N19        -7.0020   -2.9020    2.8620 na        1 MRK     -0.240300
     20 C20        -7.1270   -4.2080    3.2920 cc        1 MRK     -0.059100
     21 C21        -7.1620   -4.2280    4.6870 cd        1 MRK     -0.315100
     22 N23        -1.6090    1.8170    4.2850 nv        1 MRK     -0.824200
     23 H2          2.0030   -2.8900    5.5230 ha        1 MRK      0.150500
     24 H3          3.3990   -1.8610    4.8300 ha        1 MRK      0.150500
     25 HN6         0.2180   -0.3410    3.1970 hn        1 MRK      0.456400
     26 H11        -5.0840   -0.2200    2.0310 ha        1 MRK      0.154000
     27 H15        -3.2520    1.4730    6.3510 ha        1 MRK      0.155000
     28 H20        -7.3310   -2.5770    1.9860 hn        1 MRK      0.295700
     29 H21        -7.1410   -5.0570    2.6030 h4        1 MRK      0.176000
     30 H221       -7.1800   -5.0630    5.3820 h4        1 MRK      0.186000
     31 H222       -7.1410   -1.4330    6.6580 h4        1 MRK      0.029800
     32 H223       -7.1850   -3.2590    7.1990 h4        1 MRK      0.029800
     33 H231       -0.9830    1.7100    3.5180 hn        1 MRK      0.433300
     34 H232       -1.1820    1.8920    5.1790 hn        1 MRK      0.433300
     35 C22        -7.1620   -2.5020    6.4080 c2        1 MRK     -0.027900
@<TRIPOS>BOND
     1    1    5 2   
     2    2    3 2   
     3    2   23 1   
     4    2   24 1   
     5    3    4 2   
     6    4   25 1   
     7    5    6 2   
     8    6    7 1   
     9    7    8 2   
    10    7   10 1   
    11    9   10 ar  
    12    9   15 ar  
    13    9   22 1   
    14   10   11 ar  
    15   11   12 ar  
    16   11   26 1   
    17   12   13 ar  
    18   12   16 1   
    19   13   14 1   
    20   13   15 ar  
    21   15   27 1   
    22   16   18 1   
    23   17   18 1   
    24   17   21 1   
    25   17   35 2   
    26   18   19 2   
    27   19   20 1   
    28   19   28 1   
    29   20   21 2   
    30   20   29 1   
    31   21   30 1   
    32   22   33 1   
    33   22   34 1   
    34   31   35 1   
    35   32   35 1   
@<TRIPOS>SUBSTRUCTURE
     1 MRK         1 TEMP              0 ****  ****    0 ROOT
