@<TRIPOS>MOLECULE
MRK
   35    37     1     0     0
SMALL
bcc


@<TRIPOS>ATOM
      1 S1          0.1690    1.0090   -4.9760 ss        1 MRK      0.022700
      2 C2          1.1670    0.3560   -6.1340 cc        1 MRK     -0.318400
      3 C3          1.7400   -0.8280   -5.6900 cd        1 MRK      0.354200
      4 N4          1.3850   -1.2210   -4.4180 nd        1 MRK     -0.689000
      5 C5          0.5240   -0.3060   -3.9000 cc        1 MRK      0.481300
      6 N6         -0.0210   -0.4220   -2.6210 n         1 MRK     -0.520400
      7 C7         -0.8800    0.5200   -2.0670 c         1 MRK      0.693700
      8 O8         -1.2440    1.5090   -2.7390 o         1 MRK     -0.615100
      9 C9         -2.6840    0.5430   -0.3050 ca        1 MRK      0.295600
     10 C10        -1.3310    0.2730   -0.6760 ca        1 MRK     -0.266600
     11 C11        -0.4270   -0.1780    0.2840 ca        1 MRK      0.025000
     12 C12        -0.7970   -0.4340    1.6050 ca        1 MRK     -0.157100
     13 C13        -2.1440   -0.1840    1.9740 ca        1 MRK      0.282900
     14 F14        -2.5670   -0.4080    3.2340 f         1 MRK     -0.106900
     15 C15        -3.0650    0.3010    1.0400 ca        1 MRK     -0.292000
     16 S16         0.3770   -1.1080    2.6260 ss        1 MRK     -0.153200
     17 N17         1.9610    0.1300    4.4640 na        1 MRK     -0.180900
     18 C18         0.7610    0.1330    3.7240 cc        1 MRK      0.440800
     19 N19         0.0170    1.2320    4.0240 nd        1 MRK     -0.662000
     20 C20         0.7400    1.9410    4.9740 cd        1 MRK      0.300200
     21 C21         1.9410    1.2690    5.2700 cc        1 MRK     -0.254600
     22 N23        -3.6190    0.9620   -1.2160 nh        1 MRK     -0.842200
     23 H2          1.3430    0.8040   -7.1090 h4        1 MRK      0.181000
     24 H3          2.4350   -1.4630   -6.2510 h4        1 MRK      0.042100
     25 HN6         0.2260   -1.2280   -2.0870 hn        1 MRK      0.342500
     26 H11         0.6320   -0.3320    0.0090 ha        1 MRK      0.151000
     27 H15        -4.0970    0.4970    1.3700 ha        1 MRK      0.157000
     28 H20         0.3690    2.8770    5.3880 h4        1 MRK      0.042100
     29 H21         2.7470    1.5050    5.9600 h4        1 MRK      0.177000
     30 H221        2.7270   -1.6530    5.2710 h1        1 MRK      0.058033
     31 H222        2.9510   -1.4170    3.4700 h1        1 MRK      0.058033
     32 H223        3.9580   -0.4480    4.6590 h1        1 MRK      0.058033
     33 H231       -4.4890    1.2890   -0.8700 hn        1 MRK      0.438800
     34 H232       -3.3060    1.3360   -2.0840 hn        1 MRK      0.438800
     35 C22         2.9470   -0.8970    4.4680 c3        1 MRK      0.018600
@<TRIPOS>BOND
     1    1    2 1   
     2    1    5 1   
     3    2    3 2   
     4    2   23 1   
     5    3    4 1   
     6    3   24 1   
     7    4    5 2   
     8    5    6 1   
     9    6    7 1   
    10    6   25 1   
    11    7    8 2   
    12    7   10 1   
    13    9   10 ar  
    14    9   15 ar  
    15    9   22 1   
    16   10   11 ar  
    17   11   12 ar  
    18   11   26 1   
    19   12   13 ar  
    20   12   16 1   
    21   13   14 1   
    22   13   15 ar  
    23   15   27 1   
    24   16   18 1   
    25   17   18 1   
    26   17   21 1   
    27   17   35 1   
    28   18   19 2   
    29   19   20 1   
    30   20   21 2   
    31   20   28 1   
    32   21   29 1   
    33   22   33 1   
    34   22   34 1   
    35   30   35 1   
    36   31   35 1   
    37   32   35 1   
@<TRIPOS>SUBSTRUCTURE
     1 MRK         1 TEMP              0 ****  ****    0 ROOT
