@<TRIPOS>MOLECULE
MRK
   35    35     1     0     0
SMALL
bcc


@<TRIPOS>ATOM
      1 S1         -2.8650    0.9840   -2.0830 s         1 MRK     -0.112900
      2 C2          2.3280   -2.0080    4.9460 c2        1 MRK     -0.360100
      3 C3          1.4550   -1.1720    4.4410 c1        1 MRK      0.288500
      4 N4          0.6420   -0.3030    4.1060 n2        1 MRK     -0.687800
      5 C5         -2.9370    0.8530   -0.6350 c1        1 MRK      0.510300
      6 N6         -3.1900    0.7670    0.5700 ne        1 MRK     -0.685800
      7 C7         -2.5260    0.6110    1.7880 c         1 MRK      0.831100
      8 O8         -1.2920    0.4250    1.7980 o         1 MRK     -0.615100
      9 C9         -2.8250    1.1800    4.2230 ca        1 MRK      0.283600
     10 C10        -3.3610    0.6590    3.0050 ca        1 MRK     -0.262600
     11 C11        -4.6680    0.1630    2.9800 ca        1 MRK      0.050000
     12 C12        -5.4770    0.1080    4.1100 ca        1 MRK     -0.193100
     13 C13        -4.9280    0.5790    5.3290 ca        1 MRK      0.257900
     14 F14        -5.6460    0.5310    6.4740 f         1 MRK     -0.125900
     15 C15        -3.6360    1.1070    5.3860 ca        1 MRK     -0.289000
     16 S16        -7.0980   -0.4090    3.9500 ss        1 MRK     -0.007100
     17 N17        -7.1540   -2.8780    5.1490 na        1 MRK      0.135600
     18 C18        -7.1010   -2.0450    4.0090 cc        1 MRK     -0.200300
     19 N19        -7.0040   -2.9010    2.8620 na        1 MRK     -0.240300
     20 C20        -7.1300   -4.2070    3.2910 cc        1 MRK     -0.059100
     21 C21        -7.1650   -4.2270    4.6860 cd        1 MRK     -0.315100
     22 N23        -1.6090    1.8150    4.2860 nh        1 MRK     -0.824200
     23 H2          2.0150   -2.8880    5.5210 ha        1 MRK      0.150500
     24 H3          3.4070   -1.8540    4.8250 ha        1 MRK      0.150500
     25 HN6         0.2180   -0.3430    3.1990 hn        1 MRK      0.456400
     26 H11        -5.0850   -0.2210    2.0310 ha        1 MRK      0.154000
     27 H15        -3.2530    1.4720    6.3510 ha        1 MRK      0.155000
     28 H20        -7.3330   -2.5760    1.9860 hn        1 MRK      0.295700
     29 H21        -7.1440   -5.0560    2.6030 h4        1 MRK      0.176000
     30 H221       -7.1840   -5.0620    5.3810 h4        1 MRK      0.186000
     31 H222       -7.1440   -1.4320    6.6580 h4        1 MRK      0.029800
     32 H223       -7.1890   -3.2580    7.1990 h4        1 MRK      0.029800
     33 H231       -0.9830    1.7080    3.5190 hn        1 MRK      0.433300
     34 H232       -1.1830    1.8900    5.1810 hn        1 MRK      0.433300
     35 C22        -7.1660   -2.5010    6.4070 c2        1 MRK     -0.027900
@<TRIPOS>BOND
     1    1    5 2   
     2    2    3 2   
     3    2   23 1   
     4    2   24 1   
     5    3    4 2   
     6    4   25 1   
     7    5    6 2   
     8    6    7 1   
     9    7    8 2   
    10    7   10 1   
    11    9   10 ar  
    12    9   15 ar  
    13    9   22 1   
    14   10   11 ar  
    15   11   12 ar  
    16   11   26 1   
    17   12   13 ar  
    18   12   16 1   
    19   13   14 1   
    20   13   15 ar  
    21   15   27 1   
    22   16   18 1   
    23   17   18 1   
    24   17   21 1   
    25   17   35 2   
    26   18   19 2   
    27   19   20 1   
    28   19   28 1   
    29   20   21 2   
    30   20   29 1   
    31   21   30 1   
    32   22   33 1   
    33   22   34 1   
    34   31   35 1   
    35   32   35 1   
@<TRIPOS>SUBSTRUCTURE
     1 MRK         1 TEMP              0 ****  ****    0 ROOT
