@<TRIPOS>MOLECULE
MRK
   35    29     1     0     0
SMALL
bcc


@<TRIPOS>ATOM
      1 S1          5.2780   -1.2550   -1.7180 ss        1 MRK      0.583000
      2 C2          6.3900   -1.9400   -2.5220 c1        1 MRK     -0.482000
      3 C3          5.8350   -2.3340   -3.7990 c1        1 MRK     -0.126000
      4 N4          4.3280   -1.9000   -3.8370 n2        1 MRK     -0.137000
      5 C5          4.0080   -1.2570   -2.5900 c1        1 MRK     -0.196000
      6 N6          2.7340   -0.6750   -2.2370 n2        1 MRK     -0.292000
      7 C7          1.7890   -1.4320   -1.4820 c2        1 MRK      0.347000
      8 O8          2.0570   -2.5650   -1.1370 o         1 MRK     -0.319000
      9 C9         -0.5920   -0.7340   -1.9170 c1        1 MRK      0.176000
     10 C10         0.4870   -0.7920   -1.0380 c2        1 MRK     -0.239000
     11 C11         0.3280   -0.3880    0.2840 c2        1 MRK      0.038000
     12 C12        -0.9080    0.0730    0.7260 c1        1 MRK     -0.375000
     13 C13        -1.9830    0.1300   -0.1530 c1        1 MRK      0.237000
     14 F14        -3.2000    0.4580    0.3010 f         1 MRK     -0.075000
     15 C15        -1.8230   -0.2740   -1.4750 c1        1 MRK     -0.279000
     16 S16        -1.1500    0.4570    2.4650 ss        1 MRK      0.405000
     17 N17        -3.0330    2.0240    3.8040 n2        1 MRK     -0.138000
     18 C18        -2.6330    1.3910    2.6640 c2        1 MRK     -0.236000
     19 N19        -3.6150    1.5230    1.7460 n2        1 MRK     -0.138000
     20 C20        -4.6120    2.2270    2.3030 c1        1 MRK     -0.165500
     21 C21        -4.2450    2.5370    3.5860 c1        1 MRK     -0.165500
     22 C22        -2.3030    2.0690    5.0510 c2        1 MRK     -0.080000
     23 N23        -0.4280   -1.1540   -3.2950 n3        1 MRK     -0.357000
     24 H2          7.3140   -2.0860   -2.2240 DU        1 MRK      0.180000
     25 H3          6.3190   -2.7940   -4.5170 DU        1 MRK      0.180000
     26 HN6         2.5610    0.2000   -2.4390 hn        1 MRK      0.241000
     27 H11         1.0800   -0.4280    0.8980 ha        1 MRK      0.161000
     28 H15        -2.5810   -0.2340   -2.0930 ha        1 MRK      0.156000
     29 H20        -5.4510    2.4740    1.8710 DU        1 MRK      0.180000
     30 H21        -4.7750    3.0420    4.2250 DU        1 MRK      0.180000
     31 H221       -1.9150    2.9650    5.1720 ha        1 MRK      0.097000
     32 H222       -1.5850    1.4010    5.0340 ha        1 MRK      0.097000
     33 H223       -2.9160    1.8740    5.7980 ha        1 MRK      0.097000
     34 H231       -1.1290   -1.0790   -3.8830 hn        1 MRK      0.221500
     35 H232        0.3700   -1.5240   -3.5740 hn        1 MRK      0.221500
@<TRIPOS>BOND
     1    1    2 1   
     2    1    5 1   
     3    2    3 1   
     4    3    4 1   
     5    4    5 1   
     6    6    7 1   
     7    6   26 1   
     8    7    8 1   
     9    7   10 1   
    10    9   10 1   
    11    9   23 1   
    12   10   11 1   
    13   11   12 1   
    14   11   27 1   
    15   12   16 1   
    16   13   14 1   
    17   13   15 1   
    18   15   28 1   
    19   16   18 1   
    20   17   18 1   
    21   17   21 1   
    22   18   19 1   
    23   19   20 1   
    24   20   21 1   
    25   22   31 1   
    26   22   32 1   
    27   22   33 1   
    28   23   34 1   
    29   23   35 1   
@<TRIPOS>SUBSTRUCTURE
     1 MRK         1 TEMP              0 ****  ****    0 ROOT
