@<TRIPOS>MOLECULE
MRK
   35    35     1     0     0
SMALL
bcc


@<TRIPOS>ATOM
      1 S1         -3.1810    1.6580   -1.8730 s         1 MRK     -0.112900
      2 C2          2.3350   -2.2290    4.4370 c2        1 MRK     -0.360100
      3 C3          1.4600   -1.3200    4.0830 c1        1 MRK      0.288500
      4 N4          0.6560   -0.4000    3.8990 n2        1 MRK     -0.687800
      5 C5         -3.1690    1.3600   -0.4480 c1        1 MRK      0.510300
      6 N6         -3.3510    1.1370    0.7520 ne        1 MRK     -0.685800
      7 C7         -2.6190    0.8300    1.9010 c         1 MRK      0.831100
      8 O8         -1.3910    0.6270    1.8120 o         1 MRK     -0.615100
      9 C9         -2.7600    1.1140    4.3990 ca        1 MRK      0.283600
     10 C10        -3.3780    0.7470    3.1640 ca        1 MRK     -0.262600
     11 C11        -4.6940    0.2750    3.1630 ca        1 MRK      0.050000
     12 C12        -5.4360    0.1010    4.3270 ca        1 MRK     -0.193100
     13 C13        -4.8050    0.4180    5.5560 ca        1 MRK      0.257900
     14 F14        -5.4540    0.2460    6.7300 f         1 MRK     -0.125900
     15 C15        -3.5010    0.9170    5.5940 ca        1 MRK     -0.289000
     16 S16        -7.0740   -0.3720    4.2090 ss        1 MRK     -0.007100
     17 N17        -7.1100   -2.9630    5.1150 na        1 MRK      0.135600
     18 C18        -7.1080   -2.0030    4.0780 cc        1 MRK     -0.200300
     19 N19        -7.0980   -2.7210    2.8360 na        1 MRK     -0.240300
     20 C20        -7.2250   -4.0660    3.1180 cc        1 MRK     -0.059100
     21 C21        -7.1770   -4.2490    4.5010 cd        1 MRK     -0.315100
     22 N23        -1.5280    1.7200    4.4600 nh        1 MRK     -0.824200
     23 H2          2.0290   -3.1620    4.9240 ha        1 MRK      0.150500
     24 H3          3.4090   -2.0870    4.2720 ha        1 MRK      0.150500
     25 HN6         0.1810   -0.3240    3.0190 hn        1 MRK      0.456400
     26 H11        -5.1760    0.0110    2.2040 ha        1 MRK      0.154000
     27 H15        -3.0530    1.1610    6.5690 ha        1 MRK      0.155000
     28 H20        -7.4720   -2.2910    2.0250 hn        1 MRK      0.295700
     29 H21        -7.2980   -4.8280    2.3380 h4        1 MRK      0.176000
     30 H221       -7.1710   -5.1590    5.0950 h4        1 MRK      0.186000
     31 H222       -6.9790   -1.7030    6.7780 h4        1 MRK      0.029800
     32 H223       -7.0290   -3.5790    7.1050 h4        1 MRK      0.029800
     33 H231       -0.9520    1.6940    3.6490 hn        1 MRK      0.433300
     34 H232       -1.0480    1.6840    5.3290 hn        1 MRK      0.433300
     35 C22        -7.0380   -2.7350    6.4070 c2        1 MRK     -0.027900
@<TRIPOS>BOND
     1    1    5 2   
     2    2    3 2   
     3    2   23 1   
     4    2   24 1   
     5    3    4 2   
     6    4   25 1   
     7    5    6 2   
     8    6    7 1   
     9    7    8 2   
    10    7   10 1   
    11    9   10 ar  
    12    9   15 ar  
    13    9   22 1   
    14   10   11 ar  
    15   11   12 ar  
    16   11   26 1   
    17   12   13 ar  
    18   12   16 1   
    19   13   14 1   
    20   13   15 ar  
    21   15   27 1   
    22   16   18 1   
    23   17   18 1   
    24   17   21 1   
    25   17   35 2   
    26   18   19 2   
    27   19   20 1   
    28   19   28 1   
    29   20   21 2   
    30   20   29 1   
    31   21   30 1   
    32   22   33 1   
    33   22   34 1   
    34   31   35 1   
    35   32   35 1   
@<TRIPOS>SUBSTRUCTURE
     1 MRK         1 TEMP              0 ****  ****    0 ROOT
