@<TRIPOS>MOLECULE
MRM
   21    21     1     0     0
SMALL
bcc


@<TRIPOS>ATOM
      1 NB         -1.6170   -1.3580   -0.7000 n3        1 MRM     -0.901800
      2 CM1        -0.1360   -1.3170   -0.7590 c3        1 MRM      0.177500
      3 CM2         0.4020   -1.3310    0.6280 c3        1 MRM     -0.077400
      4 CM5         0.2760   -0.1220   -1.5030 c3        1 MRM     -0.077400
      5 CM3         0.1050   -0.0420    1.3760 c3        1 MRM      0.103000
      6 NM          0.5110    1.1420    0.6300 n         1 MRM     -0.513800
      7 CM4        -0.0200    1.1620   -0.7460 c3        1 MRM      0.103000
      8 C           0.7640    2.3630    1.3190 c         1 MRM      1.007600
      9 O           0.6990    3.4630    0.7020 o         1 MRM     -0.839300
     10 OXT         1.1260    2.3390    2.5250 o         1 MRM     -0.839300
     11 HNB1       -1.9610   -1.4550   -1.5640 hn        1 MRM      0.331800
     12 HNB2       -1.8800   -2.0610   -0.1880 hn        1 MRM      0.331800
     13 HM1         0.1900   -2.1230   -1.2390 h1        1 MRM     -0.031300
     14 HM21        1.3810   -1.4600    0.5900 hc        1 MRM      0.024200
     15 HM22        0.0030   -2.0770    1.1130 hc        1 MRM      0.024200
     16 HM51       -0.2040   -0.1020   -2.3680 hc        1 MRM      0.024200
     17 HM52        1.2530   -0.1740   -1.6780 hc        1 MRM      0.024200
     18 HM31       -0.8630    0.0080    1.5520 h1        1 MRM      0.032200
     19 HM32        0.5900   -0.0560    2.2460 h1        1 MRM      0.032200
     20 HM41       -0.9980    1.2920   -0.7090 h1        1 MRM      0.032200
     21 HM42        0.3780    1.9080   -1.2260 h1        1 MRM      0.032200
@<TRIPOS>BOND
     1    1    2 1   
     2    1   11 1   
     3    1   12 1   
     4    2    3 1   
     5    2    4 1   
     6    2   13 1   
     7    3    5 1   
     8    3   14 1   
     9    3   15 1   
    10    4    7 1   
    11    4   16 1   
    12    4   17 1   
    13    5    6 1   
    14    5   18 1   
    15    5   19 1   
    16    6    7 1   
    17    6    8 1   
    18    7   20 1   
    19    7   21 1   
    20    8    9 1   
    21    8   10 1   
@<TRIPOS>SUBSTRUCTURE
     1 MRM         1 TEMP              0 ****  ****    0 ROOT
