@<TRIPOS>MOLECULE
MRM
   21    21     1     0     0
SMALL
bcc


@<TRIPOS>ATOM
      1 NB          0.0530    0.5780    3.3820 n3        1 MRM     -0.906800
      2 CM1         0.0280   -0.1550    2.1230 c3        1 MRM      0.154500
      3 CM2        -1.2240    0.1520    1.2910 c3        1 MRM     -0.122400
      4 CM5         1.2670    0.0560    1.2400 c3        1 MRM     -0.122400
      5 CM3        -1.2370   -0.6940    0.0110 c3        1 MRM      0.087500
      6 NM         -0.0450   -0.6290   -0.7900 n         1 MRM     -0.487800
      7 CM4         1.1700   -0.7860   -0.0380 c3        1 MRM      0.087500
      8 C          -0.0290    0.3360   -1.8970 c         1 MRM      0.991600
      9 O          -1.1440    0.7460   -2.3360 o         1 MRM     -0.835300
     10 OXT         1.0970    0.6680   -2.3720 o         1 MRM     -0.835300
     11 HNB1        0.9800    0.5550    3.7630 hn        1 MRM      0.328800
     12 HNB2       -0.1920    1.5380    3.2250 hn        1 MRM      0.328800
     13 HM1        -0.0060   -1.2510    2.4070 h1        1 MRM      0.045700
     14 HM21       -2.1450   -0.0730    1.8860 hc        1 MRM      0.032950
     15 HM22       -1.2440    1.2390    1.0190 hc        1 MRM      0.032950
     16 HM51        1.3600    1.1380    0.9660 hc        1 MRM      0.032950
     17 HM52        2.1920   -0.2400    1.7980 hc        1 MRM      0.032950
     18 HM31       -1.3960   -1.7700    0.3160 h1        1 MRM      0.038700
     19 HM32       -2.1100   -0.3700   -0.6230 h1        1 MRM      0.038700
     20 HM41        1.2590   -1.8710    0.2630 h1        1 MRM      0.038700
     21 HM42        2.0400   -0.5290   -0.7070 h1        1 MRM      0.038700
@<TRIPOS>BOND
     1    1    2 1   
     2    1   11 1   
     3    1   12 1   
     4    2    3 1   
     5    2    4 1   
     6    2   13 1   
     7    3    5 1   
     8    3   14 1   
     9    3   15 1   
    10    4    7 1   
    11    4   16 1   
    12    4   17 1   
    13    5    6 1   
    14    5   18 1   
    15    5   19 1   
    16    6    7 1   
    17    6    8 1   
    18    7   20 1   
    19    7   21 1   
    20    8    9 1   
    21    8   10 1   
@<TRIPOS>SUBSTRUCTURE
     1 MRM         1 TEMP              0 ****  ****    0 ROOT
