@<TRIPOS>MOLECULE
MRN
   39    40     1     0     0
SMALL
bcc


@<TRIPOS>ATOM
      1 N          -0.8550   -0.7770    0.1350 n         1 MRN     -0.471100
      2 O1         -1.0160    1.3920   -0.6710 o         1 MRN     -0.574100
      3 C2         -3.8800    1.0020    0.3990 ca        1 MRN     -0.022300
      4 O2          3.6070    0.9140   -0.3650 os        1 MRN     -0.327900
      5 C3         -3.0460    0.1540   -0.3470 ca        1 MRN     -0.151600
      6 C4         -3.5920   -0.8480   -1.1560 ca        1 MRN     -0.103000
      7 C5         -4.9730   -1.0110   -1.2290 ca        1 MRN     -0.141000
      8 C6         -5.8110   -0.1760   -0.4890 ca        1 MRN     -0.106000
      9 C7         -5.2680    0.8210    0.3190 ca        1 MRN     -0.139000
     10 C8         -1.5600    0.3340   -0.3140 c         1 MRN      0.683700
     11 C9          0.5340   -0.9130    0.2810 ca        1 MRN      0.100600
     12 C10         1.4470    0.0790   -0.1120 ca        1 MRN     -0.191000
     13 C11         2.8270   -0.1390    0.0630 ca        1 MRN      0.160100
     14 C12         3.3100   -1.3280    0.6190 ca        1 MRN     -0.238000
     15 C13         2.3940   -2.3050    1.0070 ca        1 MRN     -0.069000
     16 C14         1.0300   -2.1180    0.8500 ca        1 MRN     -0.222000
     17 C15         5.0270    0.8240   -0.1490 c3        1 MRN      0.140100
     18 C16         5.6730   -0.0090   -1.2390 c3        1 MRN     -0.111100
     19 C17         5.5200    2.2610   -0.1880 c3        1 MRN     -0.111100
     20 HN         -1.3940   -1.5660    0.4170 hn        1 MRN      0.320500
     21 H1         -2.5410    2.6500    0.7030 hc        1 MRN      0.058367
     22 H1A        -4.1170    2.7730    1.6000 hc        1 MRN      0.058367
     23 H1B        -2.8380    1.6190    2.1650 hc        1 MRN      0.058367
     24 H4         -2.9300   -1.4990   -1.7470 ha        1 MRN      0.139000
     25 H5         -5.4010   -1.7940   -1.8710 ha        1 MRN      0.137000
     26 H6         -6.9020   -0.3030   -0.5440 ha        1 MRN      0.135000
     27 H7         -5.9330    1.4790    0.8980 ha        1 MRN      0.138000
     28 H10         1.1170    1.0320   -0.5570 ha        1 MRN      0.187000
     29 H12         4.3850   -1.5080    0.7490 ha        1 MRN      0.138000
     30 H13         2.7640   -3.2440    1.4480 ha        1 MRN      0.130000
     31 H14         0.3370   -2.9110    1.1680 ha        1 MRN      0.129000
     32 H15         5.2310    0.3810    0.8650 h1        1 MRN      0.047700
     33 H16         6.7740   -0.0670   -1.0660 hc        1 MRN      0.047700
     34 H16A        5.2490   -1.0420   -1.2460 hc        1 MRN      0.047700
     35 H16B        5.4870    0.4530   -2.2390 hc        1 MRN      0.047700
     36 H17         5.0390    2.8550    0.6250 hc        1 MRN      0.047700
     37 H17A        6.6270    2.2730   -0.0500 hc        1 MRN      0.047700
     38 H17B        5.2660    2.7320   -1.1670 hc        1 MRN      0.047700
     39 C1         -3.3200    2.0680    1.2600 c3        1 MRN     -0.072800
@<TRIPOS>BOND
     1    1   10 1   
     2    1   11 1   
     3    1   20 1   
     4    2   10 2   
     5    3    5 ar  
     6    3    9 ar  
     7    3   39 1   
     8    4   13 1   
     9    4   17 1   
    10    5    6 ar  
    11    5   10 1   
    12    6    7 ar  
    13    6   24 1   
    14    7    8 ar  
    15    7   25 1   
    16    8    9 ar  
    17    8   26 1   
    18    9   27 1   
    19   11   12 ar  
    20   11   16 ar  
    21   12   13 ar  
    22   12   28 1   
    23   13   14 ar  
    24   14   15 ar  
    25   14   29 1   
    26   15   16 ar  
    27   15   30 1   
    28   16   31 1   
    29   17   18 1   
    30   17   19 1   
    31   17   32 1   
    32   18   33 1   
    33   18   34 1   
    34   18   35 1   
    35   19   36 1   
    36   19   37 1   
    37   19   38 1   
    38   21   39 1   
    39   22   39 1   
    40   23   39 1   
@<TRIPOS>SUBSTRUCTURE
     1 MRN         1 TEMP              0 ****  ****    0 ROOT
