@<TRIPOS>MOLECULE
MRN
   39    40     1     0     0
SMALL
bcc


@<TRIPOS>ATOM
      1 N           0.7960   -0.2090    0.1480 n         1 MRN     -0.292000
      2 O1          2.6130    0.0100    1.5660 o         1 MRN     -0.369000
      3 C2          3.1080   -0.6300   -1.8410 c2        1 MRN     -0.056000
      4 O2         -1.1500   -0.3090    4.4640 os        1 MRN     -0.252000
      5 C3          2.9940    0.4410   -0.7730 c3        1 MRN     -0.078000
      6 C4          2.5090    1.7300   -1.4030 c2        1 MRN     -0.162000
      7 C5          1.8320    1.7860   -2.5720 c2        1 MRN     -0.127000
      8 C6          1.3610    0.5070   -3.1320 c2        1 MRN     -0.098000
      9 C7          2.1600   -0.4860   -2.7600 c1        1 MRN     -0.162000
     10 C8          2.1190    0.0640    0.4230 c2        1 MRN      0.312000
     11 C9         -0.1960   -0.5780    1.0720 c2        1 MRN     -0.020000
     12 C10        -0.0060   -0.6290    2.4250 c2        1 MRN     -0.130000
     13 C11        -1.0670   -1.1670    3.3270 c3        1 MRN      0.047000
     14 C12        -2.4030   -1.3490    2.6840 c2        1 MRN     -0.087000
     15 C13        -2.5470   -1.2590    1.3440 c2        1 MRN     -0.203000
     16 C14        -1.4990   -0.8270    0.4810 c1        1 MRN     -0.065000
     17 C15        -1.5130   -0.9800    5.6810 c3        1 MRN      0.023000
     18 C16        -0.3050   -1.6630    6.2920 c3        1 MRN     -0.227500
     19 C17        -2.0570    0.1050    6.5930 c3        1 MRN     -0.227500
     20 HN          0.4880   -0.1650   -0.8040 hn        1 MRN      0.263000
     21 H1          4.1330   -2.3130   -1.0380 hc        1 MRN      0.092667
     22 H1A         5.2060   -0.9960   -1.6710 hc        1 MRN      0.092667
     23 H1B         4.3250   -2.0840   -2.8300 hc        1 MRN      0.092667
     24 H4          4.0360    0.6110   -0.3720 hc        1 MRN      0.154000
     25 H5          2.7430    2.6360   -0.8270 ha        1 MRN      0.146000
     26 H6          1.5250    2.7260   -3.0460 ha        1 MRN      0.146000
     27 H7          0.4040    0.4440   -3.6570 ha        1 MRN      0.166000
     28 H10         0.9220   -0.3100    2.9290 ha        1 MRN      0.185000
     29 H12        -0.7190   -2.2050    3.6400 h1        1 MRN      0.127000
     30 H13        -3.2390   -1.5760    3.3640 ha        1 MRN      0.136000
     31 H14        -3.5180   -1.4690    0.8630 ha        1 MRN      0.151000
     32 H15        -2.3170   -1.7390    5.4660 h1        1 MRN      0.072000
     33 H16        -0.5800   -2.0980    7.2820 hc        1 MRN      0.086833
     34 H16A        0.5210   -0.9250    6.4370 hc        1 MRN      0.086833
     35 H16B        0.0660   -2.4810    5.6310 hc        1 MRN      0.086833
     36 H17        -1.2740    0.8780    6.7810 hc        1 MRN      0.086833
     37 H17A       -2.9370    0.6010    6.1200 hc        1 MRN      0.086833
     38 H17B       -2.3650   -0.3490    7.5640 hc        1 MRN      0.086833
     39 C1          4.2510   -1.5500   -1.8500 c3        1 MRN     -0.169000
@<TRIPOS>BOND
     1    1   10 1   
     2    1   11 1   
     3    1   20 1   
     4    2   10 1   
     5    3    5 1   
     6    3    9 1   
     7    3   39 1   
     8    4   13 1   
     9    4   17 1   
    10    5    6 1   
    11    5   10 1   
    12    5   24 1   
    13    6    7 1   
    14    6   25 1   
    15    7    8 1   
    16    7   26 1   
    17    8    9 1   
    18    8   27 1   
    19   11   12 1   
    20   11   16 1   
    21   12   13 1   
    22   12   28 1   
    23   13   14 1   
    24   13   29 1   
    25   14   15 1   
    26   14   30 1   
    27   15   16 1   
    28   15   31 1   
    29   17   18 1   
    30   17   19 1   
    31   17   32 1   
    32   18   33 1   
    33   18   34 1   
    34   18   35 1   
    35   19   36 1   
    36   19   37 1   
    37   19   38 1   
    38   21   39 1   
    39   22   39 1   
    40   23   39 1   
@<TRIPOS>SUBSTRUCTURE
     1 MRN         1 TEMP              0 ****  ****    0 ROOT
