@<TRIPOS>MOLECULE
MRN
   40    39     1     0     0
SMALL
bcc


@<TRIPOS>ATOM
      1 N           0.3230   -0.5290   -0.9790 nh        1 MRN     -0.440100
      2 O1          0.3370    1.5140    0.1820 oh        1 MRN     -0.527600
      3 C2          3.1880    0.1850   -1.5710 c2        1 MRN     -0.155500
      4 O2         -0.0250   -1.7340    5.5530 os        1 MRN     -0.322900
      5 C3          2.0740    1.2100   -1.4290 c3        1 MRN     -0.059600
      6 C4          1.6730    1.7300   -2.7980 c2        1 MRN     -0.219200
      7 C5          1.9150    1.0620   -3.9490 ce        1 MRN     -0.068000
      8 C6          2.3670   -0.3390   -3.8320 ce        1 MRN     -0.166100
      9 C7          3.0240   -0.5050   -2.6930 c1        1 MRN      0.006200
     10 C8          0.8400    0.6660   -0.7240 c2        1 MRN      0.586600
     11 C9         -1.2950   -0.9140    2.2580 cg        1 MRN     -0.019300
     12 C10        -0.5120   -1.3900    3.3040 ce        1 MRN     -0.204700
     13 C11        -0.8700   -1.2400    4.6070 c2        1 MRN      0.142100
     14 C12        -3.4730    0.2930   -0.5500 c1        1 MRN     -0.071500
     15 C13        -2.7160   -0.0710    0.3070 ch        1 MRN     -0.119000
     16 C14        -1.9170   -0.4930    1.3140 ch        1 MRN     -0.204000
     17 C15        -0.5000   -1.6210    6.9230 c3        1 MRN      0.139100
     18 C16        -1.6180   -2.6120    7.1660 c3        1 MRN     -0.115100
     19 C17         0.7180   -1.9110    7.7790 c3        1 MRN     -0.115100
     20 HN          0.7590   -1.1190   -1.6660 hn        1 MRN      0.342200
     21 H1          4.0470   -0.2370    0.3350 hc        1 MRN      0.071367
     22 H1A         5.1790   -0.4020   -1.0740 hc        1 MRN      0.071367
     23 H1B         4.6930    1.2470   -0.4870 hc        1 MRN      0.071367
     24 H4          2.4770    2.0710   -0.8160 hc        1 MRN      0.149700
     25 H5          1.1970    2.7220   -2.7890 ha        1 MRN      0.170000
     26 H6          1.6890    1.4740   -4.9430 ha        1 MRN      0.179000
     27 H7          2.0710   -1.0900   -4.5720 ha        1 MRN      0.190000
     28 H10         0.4150   -1.9270    3.0400 ha        1 MRN      0.165000
     29 H12        -1.7950   -0.7410    4.9440 h4        1 MRN      0.151000
     30 H13        -4.1450    0.6160   -1.3090 ha        1 MRN      0.190500
     31 H14        -0.4630    1.1820    0.6560 ho        1 MRN      0.499000
     32 H15        -0.8590   -0.5680    7.0890 h1        1 MRN      0.053700
     33 H16        -2.4880   -2.3940    6.5020 hc        1 MRN      0.058033
     34 H16A       -1.9510   -2.5460    8.2300 hc        1 MRN      0.058033
     35 H16B       -1.2680   -3.6530    6.9640 hc        1 MRN      0.058033
     36 H17         0.4330   -1.8270    8.8550 hc        1 MRN      0.058033
     37 H17A        1.5320   -1.1810    7.5540 hc        1 MRN      0.058033
     38 H17B        1.0990   -2.9410    7.5800 hc        1 MRN      0.058033
     39 HN3        -0.4910   -0.8820   -0.5040 hn        1 MRN      0.342200
     40 C1          4.3330    0.2000   -0.6550 c3        1 MRN     -0.057900
@<TRIPOS>BOND
     1    1   10 2   
     2    1   20 1   
     3    1   39 1   
     4    2   10 1   
     5    2   31 1   
     6    3    5 1   
     7    3    9 2   
     8    3   40 1   
     9    4   13 1   
    10    4   17 1   
    11    5    6 1   
    12    5   10 1   
    13    5   24 1   
    14    6    7 2   
    15    6   25 1   
    16    7    8 1   
    17    7   26 1   
    18    8    9 2   
    19    8   27 1   
    20   11   12 1   
    21   11   16 3   
    22   12   13 2   
    23   12   28 1   
    24   13   29 1   
    25   14   15 3   
    26   14   30 1   
    27   15   16 1   
    28   17   18 1   
    29   17   19 1   
    30   17   32 1   
    31   18   33 1   
    32   18   34 1   
    33   18   35 1   
    34   19   36 1   
    35   19   37 1   
    36   19   38 1   
    37   21   40 1   
    38   22   40 1   
    39   23   40 1   
@<TRIPOS>SUBSTRUCTURE
     1 MRN         1 TEMP              0 ****  ****    0 ROOT
