@<TRIPOS>MOLECULE
MRN
   39    39     1     0     0
SMALL
bcc


@<TRIPOS>ATOM
      1 N           0.4840    0.3890    0.2240 ns        1 MRN     -0.277000
      2 O1          1.9140   -1.3230    0.8300 o         1 MRN     -0.379000
      3 C2          3.5480   -1.1670   -1.3010 c2        1 MRN     -0.067000
      4 O2         -0.7470   -0.5410    4.7020 os        1 MRN     -0.251000
      5 C3          2.4280   -0.1440   -1.2170 c3        1 MRN      0.011000
      6 C4          1.6580   -0.1360   -2.5010 c2        1 MRN     -0.270000
      7 C5          2.3040   -0.3340   -3.6680 c2        1 MRN     -0.051000
      8 C6          3.7430   -0.5600   -3.6550 c2        1 MRN     -0.283000
      9 C7          4.3380   -0.9130   -2.5120 c1        1 MRN     -0.144000
     10 C8          1.5730   -0.4230    0.0270 c2        1 MRN      0.298000
     11 C9         -0.4350    0.3190    1.2890 c2        1 MRN     -0.032000
     12 C10        -0.2760   -0.4700    2.3930 c2        1 MRN     -0.111000
     13 C11        -1.3590   -0.5730    3.4150 c3        1 MRN      0.044000
     14 C12        -2.4320    0.4620    3.2950 c2        1 MRN     -0.080000
     15 C13        -2.5320    1.2360    2.1920 c2        1 MRN     -0.205000
     16 C14        -1.5580    1.2300    1.1520 c1        1 MRN     -0.063000
     17 C15        -1.4400   -1.3070    5.7020 c3        1 MRN      0.022000
     18 C16        -1.0940   -2.7790    5.5770 c3        1 MRN     -0.228000
     19 C17        -0.9780   -0.7410    7.0330 c3        1 MRN     -0.228000
     20 HN          0.2560    1.0680   -0.4760 hn        1 MRN      0.265000
     21 H1          3.9120   -2.8860    0.2470 ha        1 MRN      0.240000
     22 H1A         4.1770    2.8240   -0.9840 ha        1 MRN      0.001000
     23 H1B         3.6210    2.9960   -0.6390 ha        1 MRN      0.001000
     24 H4          2.9110    0.8740   -1.0780 hc        1 MRN      0.152000
     25 H5          0.5820    0.0620   -2.4500 ha        1 MRN      0.141000
     26 H6          1.7850   -0.2910   -4.6360 ha        1 MRN      0.133000
     27 H7          4.3080   -0.3870   -4.5790 ha        1 MRN      0.156000
     28 H10         0.6170   -1.0880    2.5890 ha        1 MRN      0.184000
     29 H12        -1.8630   -1.5790    3.2410 h1        1 MRN      0.130000
     30 H13        -3.1340    0.5280    4.1400 ha        1 MRN      0.140000
     31 H14        -3.3660    1.9480    2.0730 ha        1 MRN      0.155000
     32 H15        -2.5500   -1.1600    5.5850 h1        1 MRN      0.074000
     33 H16        -1.4670   -3.1950    4.6110 hc        1 MRN      0.088167
     34 H16A        0.0130   -2.9190    5.6170 hc        1 MRN      0.088167
     35 H16B       -1.5620   -3.3470    6.4160 hc        1 MRN      0.088167
     36 H17        -1.4840   -1.2890    7.8620 hc        1 MRN      0.088167
     37 H17A        0.1270   -0.8540    7.1390 hc        1 MRN      0.088167
     38 H17B       -1.2300    0.3440    7.0980 hc        1 MRN      0.088167
     39 C1          3.7150   -2.1050   -0.4460 c1        1 MRN     -0.003000
@<TRIPOS>BOND
     1    1   10 1   
     2    1   11 1   
     3    1   20 1   
     4    2   10 1   
     5    3    5 1   
     6    3    9 1   
     7    3   39 1   
     8    4   13 1   
     9    4   17 1   
    10    5    6 1   
    11    5   10 1   
    12    5   24 1   
    13    6    7 1   
    14    6   25 1   
    15    7    8 1   
    16    7   26 1   
    17    8    9 1   
    18    8   27 1   
    19   11   12 1   
    20   11   16 1   
    21   12   13 1   
    22   12   28 1   
    23   13   14 1   
    24   13   29 1   
    25   14   15 1   
    26   14   30 1   
    27   15   16 1   
    28   15   31 1   
    29   17   18 1   
    30   17   19 1   
    31   17   32 1   
    32   18   33 1   
    33   18   34 1   
    34   18   35 1   
    35   19   36 1   
    36   19   37 1   
    37   19   38 1   
    38   21   39 1   
    39   22   23 1   
@<TRIPOS>SUBSTRUCTURE
     1 MRN         1 TEMP              0 ****  ****    0 ROOT
