@<TRIPOS>MOLECULE
MRN
   39    37     1     0     0
SMALL
bcc


@<TRIPOS>ATOM
      1 N           1.1020    0.5880   -0.5660 n         1 MRN     -0.324000
      2 C1          0.1640    2.8700   -4.1720 c3        1 MRN     -0.198000
      3 O1         -0.8540    0.9210   -1.6970 o         1 MRN     -0.340000
      4 C2          0.8440    1.5210   -4.0910 c2        1 MRN     -0.015000
      5 O2         -0.2930   -1.5150    3.5740 os        1 MRN     -0.219000
      6 C3          1.0170    0.5620   -3.1050 c2        1 MRN     -0.132000
      7 C4          1.7530   -0.5820   -3.3730 c1        1 MRN     -0.102000
      8 C5          2.3150   -0.7660   -4.6260 c1        1 MRN     -0.123500
      9 C6          2.1420    0.1930   -5.6120 c1        1 MRN     -0.123500
     10 C7          1.4060    1.3370   -5.3440 c1        1 MRN     -0.138000
     11 C8          0.3450    0.7310   -1.7580 c2        1 MRN      0.359000
     12 C9          0.4580    0.6680    0.6980 c2        1 MRN      0.109000
     13 C10         0.3360   -0.4670    1.4860 c2        1 MRN     -0.223000
     14 C11        -0.2380   -0.3780    2.7460 c2        1 MRN      0.114000
     15 C12        -0.6900    0.8450    3.2170 c2        1 MRN     -0.233000
     16 C13        -0.5680    1.9790    2.4290 c1        1 MRN     -0.072000
     17 C14         0.0060    1.8900    1.1700 c1        1 MRN     -0.191000
     18 C15        -1.6020   -1.8990    3.9280 c3        1 MRN      0.030000
     19 C16        -1.8620   -3.3090    3.4430 c3        1 MRN     -0.229000
     20 C17        -1.7530   -1.8480    5.4330 c3        1 MRN     -0.229000
     21 HN          2.0040    0.4640   -0.6110 hn        1 MRN      0.235000
     22 H1          0.7230    3.4870   -4.6910 hc        1 MRN      0.097333
     23 H1A        -0.7070    2.7720   -4.6110 hc        1 MRN      0.097333
     24 H1B         0.0360    3.2270   -3.2690 hc        1 MRN      0.097333
     25 H4          1.8750   -1.2580   -2.6790 ha        1 MRN      0.139000
     26 H5          2.8340   -1.5720   -4.8150 ha        1 MRN      0.137000
     27 H6          2.5380    0.0630   -6.4940 ha        1 MRN      0.137000
     28 H7          1.2840    2.0120   -6.0380 ha        1 MRN      0.138000
     29 H10         0.6290   -1.3330    1.1430 ha        1 MRN      0.145000
     30 H12        -1.0940    0.9070    4.1040 ha        1 MRN      0.138000
     31 H13        -0.8860    2.8400    2.7610 ha        1 MRN      0.134000
     32 H14         0.0910    2.6910    0.6140 ha        1 MRN      0.173000
     33 H15        -2.2440   -1.2880    3.5150 h1        1 MRN      0.089000
     34 H16        -1.2740   -3.9330    3.9200 hc        1 MRN      0.087000
     35 H16A       -1.6830   -3.3620    2.4810 hc        1 MRN      0.087000
     36 H16B       -2.7980   -3.5460    3.6150 hc        1 MRN      0.087000
     37 H17        -1.5910   -0.9340    5.7470 hc        1 MRN      0.087000
     38 H17A       -1.1050   -2.4550    5.8470 hc        1 MRN      0.087000
     39 H17B       -2.6610   -2.1210    5.6800 hc        1 MRN      0.087000
@<TRIPOS>BOND
     1    1   11 1   
     2    1   12 1   
     3    1   21 1   
     4    2    4 1   
     5    2   22 1   
     6    2   23 1   
     7    2   24 1   
     8    3   11 1   
     9    4    6 1   
    10    4   10 1   
    11    5   14 1   
    12    5   18 1   
    13    6    7 1   
    14    6   11 1   
    15    7   25 1   
    16    8    9 1   
    17    8   26 1   
    18    9   27 1   
    19   10   28 1   
    20   12   13 1   
    21   12   17 1   
    22   13   14 1   
    23   13   29 1   
    24   14   15 1   
    25   15   16 1   
    26   15   30 1   
    27   16   31 1   
    28   17   32 1   
    29   18   19 1   
    30   18   20 1   
    31   18   33 1   
    32   19   34 1   
    33   19   35 1   
    34   19   36 1   
    35   20   37 1   
    36   20   38 1   
    37   20   39 1   
@<TRIPOS>SUBSTRUCTURE
     1 MRN         1 TEMP              0 ****  ****    0 ROOT
