@<TRIPOS>MOLECULE
MRO
   30    24     1     0     0
SMALL
bcc


@<TRIPOS>ATOM
      1 OAA        -0.0300   -0.0340   -3.4750 o         1 MRO     -0.527500
      2 CAN        -0.8160    0.7050   -2.8270 c1        1 MRO      0.371000
      3 OAD        -2.0590    0.5180   -2.8990 o         1 MRO     -0.527500
      4 CAQ        -0.2690    1.8430   -1.9920 c1        1 MRO      0.060000
      5 NAL         0.0190    3.0930   -2.5990 n3        1 MRO     -0.279000
      6 CAR         0.3650    4.2460   -1.7700 c1        1 MRO      0.381000
      7 OAB         0.5190    5.3370   -2.2810 o         1 MRO     -0.422000
      8 NAM         0.5760    4.0770   -0.3340 n2        1 MRO     -0.372000
      9 CAS         0.2950    2.8310    0.2830 c1        1 MRO      0.355000
     10 OAC         0.4100    2.7070    1.4860 o         1 MRO     -0.394000
     11 CAP        -0.1320    1.6860   -0.5370 c1        1 MRO     -0.266000
     12 CAK        -0.5470    0.3900    0.1290 c2        1 MRO     -0.088000
     13 CAJ         0.5790   -0.6170    0.0180 c3        1 MRO     -0.123000
     14 CAO         0.2830   -1.8050    0.9100 c1        1 MRO     -0.055000
     15 CAH        -0.7450   -2.6760    0.5840 c1        1 MRO     -0.138750
     16 CAF        -0.9690   -3.8060    1.3590 c1        1 MRO     -0.138750
     17 CAE        -0.1650   -4.0630    2.4590 c1        1 MRO     -0.138750
     18 CAG         0.8630   -3.1910    2.7850 c1        1 MRO     -0.138750
     19 CAI         1.0870   -2.0620    2.0110 c1        1 MRO     -0.139000
     20 H2          0.8820    4.7750    0.1680 hn        1 MRO      0.244000
     21 H4         -1.3450    0.0380   -0.3130 ha        1 MRO      0.107500
     22 H5         -0.7440    0.5570    1.0720 ha        1 MRO      0.107500
     23 H6          1.4180   -0.2000    0.2980 hc        1 MRO      0.091500
     24 H7          0.6570   -0.9180   -0.9090 hc        1 MRO      0.091500
     25 H8         -1.3140   -2.4920   -0.1870 ha        1 MRO      0.134000
     26 H9         -1.7040   -4.4090    1.1400 ha        1 MRO      0.134000
     27 H10        -0.3550   -4.8290    3.0320 ha        1 MRO      0.134000
     28 H11         1.4130   -3.3580    3.5740 ha        1 MRO      0.134000
     29 H12         1.8420   -1.5220    2.3210 ha        1 MRO      0.122000
     30 H13        -0.0150    3.1780   -3.5060 hn        1 MRO      0.279000
@<TRIPOS>BOND
     1    1    2 1   
     2    2    3 1   
     3    4    5 1   
     4    4   11 1   
     5    5    6 1   
     6    5   30 1   
     7    6    7 1   
     8    8    9 1   
     9    8   20 1   
    10    9   10 1   
    11   12   13 1   
    12   12   21 1   
    13   12   22 1   
    14   13   14 1   
    15   13   23 1   
    16   13   24 1   
    17   14   19 1   
    18   15   16 1   
    19   15   25 1   
    20   16   26 1   
    21   17   18 1   
    22   17   27 1   
    23   18   28 1   
    24   19   29 1   
@<TRIPOS>SUBSTRUCTURE
     1 MRO         1 TEMP              0 ****  ****    0 ROOT
