@<TRIPOS>MOLECULE
MRO
   30    31     1     0     0
SMALL
bcc


@<TRIPOS>ATOM
      1 OAA        -0.1400    2.2730   -0.4070 o         1 MRO     -0.793300
      2 CAN         1.0440    2.1920   -0.0020 c         1 MRO      0.921800
      3 OAD         1.7720    3.1430    0.3830 o         1 MRO     -0.793300
      4 CAQ         1.7090    0.7810    0.0090 cc        1 MRO      0.043400
      5 NAL         3.0600    0.7660   -0.3040 n         1 MRO     -0.436100
      6 CAR         3.8190   -0.4100   -0.2730 c         1 MRO      0.790500
      7 OAB         5.0500   -0.4030   -0.5250 o         1 MRO     -0.697500
      8 NAM         3.1580   -1.6100    0.0280 n         1 MRO     -0.592500
      9 CAS         1.7840   -1.6580    0.3430 c         1 MRO      0.716700
     10 OAC         1.3080   -2.7780    0.6220 o         1 MRO     -0.668500
     11 CAP         1.0530   -0.3870    0.3160 cd        1 MRO     -0.291400
     12 CAK        -0.3940   -0.4360    0.6390 c3        1 MRO      0.009800
     13 CAJ        -1.2360   -0.6550   -0.6120 c3        1 MRO     -0.039100
     14 CAO        -2.6800   -0.4200   -0.3430 ca        1 MRO     -0.058300
     15 CAH        -3.5950   -1.4760   -0.3000 ca        1 MRO     -0.128500
     16 CAF        -4.9470   -1.2270   -0.0610 ca        1 MRO     -0.143500
     17 CAE        -5.3930    0.0780    0.1370 ca        1 MRO     -0.153000
     18 CAG        -4.4840    1.1360    0.0960 ca        1 MRO     -0.143500
     19 CAI        -3.1340    0.8930   -0.1430 ca        1 MRO     -0.128500
     20 H2          3.7010   -2.4430    0.0370 hn        1 MRO      0.330500
     21 H4         -0.5860   -1.2660    1.3710 hc        1 MRO      0.058200
     22 H5         -0.7000    0.5380    1.1120 hc        1 MRO      0.058200
     23 H6         -0.8920    0.0760   -1.3950 hc        1 MRO      0.058200
     24 H7         -1.0690   -1.6940   -0.9990 hc        1 MRO      0.058200
     25 H8         -3.2450   -2.5080   -0.4530 ha        1 MRO      0.157000
     26 H9         -5.6590   -2.0630   -0.0280 ha        1 MRO      0.116000
     27 H10        -6.4570    0.2730    0.3260 ha        1 MRO      0.111000
     28 H11        -4.8330    2.1670    0.2540 ha        1 MRO      0.116000
     29 H12        -2.3980    1.7200   -0.1780 ha        1 MRO      0.157000
     30 H13         3.5350    1.6410   -0.4040 hn        1 MRO      0.366500
@<TRIPOS>BOND
     1    1    2 1   
     2    2    3 1   
     3    2    4 1   
     4    4    5 1   
     5    4   11 2   
     6    5    6 1   
     7    5   30 1   
     8    6    7 2   
     9    6    8 1   
    10    8    9 1   
    11    8   20 1   
    12    9   10 2   
    13    9   11 1   
    14   11   12 1   
    15   12   13 1   
    16   12   21 1   
    17   12   22 1   
    18   13   14 1   
    19   13   23 1   
    20   13   24 1   
    21   14   15 ar  
    22   14   19 ar  
    23   15   16 ar  
    24   15   25 1   
    25   16   17 ar  
    26   16   26 1   
    27   17   18 ar  
    28   17   27 1   
    29   18   19 ar  
    30   18   28 1   
    31   19   29 1   
@<TRIPOS>SUBSTRUCTURE
     1 MRO         1 TEMP              0 ****  ****    0 ROOT
