@<TRIPOS>MOLECULE
MRO
   30    31     1     0     0
SMALL
bcc


@<TRIPOS>ATOM
      1 OAA        -0.0420    0.7280    0.0910 o         1 MRO     -0.793300
      2 CAN         1.0970    0.2040    0.1020 c         1 MRO      0.921800
      3 OAD         1.7050   -0.2480    1.1050 o         1 MRO     -0.793300
      4 CAQ         1.8640    0.1180   -1.2540 cc        1 MRO      0.043400
      5 NAL         3.2380    0.2900   -1.1620 n         1 MRO     -0.436100
      6 CAR         4.0780    0.1760   -2.2760 c         1 MRO      0.790500
      7 OAB         5.3240    0.3010   -2.1720 o         1 MRO     -0.697500
      8 NAM         3.4860   -0.0620   -3.5240 n         1 MRO     -0.592500
      9 CAS         2.0950   -0.2340   -3.6800 c         1 MRO      0.716700
     10 OAC         1.6800   -0.4690   -4.8340 o         1 MRO     -0.668500
     11 CAP         1.2730   -0.1260   -2.4700 cd        1 MRO     -0.291400
     12 CAK        -0.1910   -0.2990   -2.6330 c3        1 MRO      0.009800
     13 CAJ        -0.8800    1.0300   -2.9120 c3        1 MRO     -0.039100
     14 CAO        -2.3590    0.9120   -2.7910 ca        1 MRO     -0.058300
     15 CAH        -3.1880    0.9580   -3.9160 ca        1 MRO     -0.128500
     16 CAF        -4.5720    0.8600   -3.7740 ca        1 MRO     -0.143500
     17 CAE        -5.1370    0.7140   -2.5080 ca        1 MRO     -0.153000
     18 CAG        -4.3140    0.6660   -1.3820 ca        1 MRO     -0.143500
     19 CAI        -2.9320    0.7650   -1.5180 ca        1 MRO     -0.128500
     20 H2          4.0870   -0.1310   -4.3130 hn        1 MRO      0.330500
     21 H4         -0.3920   -1.0120   -3.4770 hc        1 MRO      0.058200
     22 H5         -0.6190   -0.7340   -1.6870 hc        1 MRO      0.058200
     23 H6         -0.5160    1.7780   -2.1540 hc        1 MRO      0.058200
     24 H7         -0.5950    1.3930   -3.9340 hc        1 MRO      0.058200
     25 H8         -2.7450    1.0690   -4.9160 ha        1 MRO      0.157000
     26 H9         -5.2170    0.8960   -4.6630 ha        1 MRO      0.116000
     27 H10        -6.2270    0.6370   -2.3970 ha        1 MRO      0.111000
     28 H11        -4.7570    0.5510   -0.3830 ha        1 MRO      0.116000
     29 H12        -2.2630    0.7280   -0.6360 ha        1 MRO      0.157000
     30 H13         3.6500    0.3450   -0.2530 hn        1 MRO      0.366500
@<TRIPOS>BOND
     1    1    2 1   
     2    2    3 1   
     3    2    4 1   
     4    4    5 1   
     5    4   11 2   
     6    5    6 1   
     7    5   30 1   
     8    6    7 2   
     9    6    8 1   
    10    8    9 1   
    11    8   20 1   
    12    9   10 2   
    13    9   11 1   
    14   11   12 1   
    15   12   13 1   
    16   12   21 1   
    17   12   22 1   
    18   13   14 1   
    19   13   23 1   
    20   13   24 1   
    21   14   15 ar  
    22   14   19 ar  
    23   15   16 ar  
    24   15   25 1   
    25   16   17 ar  
    26   16   26 1   
    27   17   18 ar  
    28   17   27 1   
    29   18   19 ar  
    30   18   28 1   
    31   19   29 1   
@<TRIPOS>SUBSTRUCTURE
     1 MRO         1 TEMP              0 ****  ****    0 ROOT
