@<TRIPOS>MOLECULE
MRO
   30    31     1     0     0
SMALL
bcc


@<TRIPOS>ATOM
      1 OAA        -0.0410    0.7180    0.0920 o         1 MRO     -0.793300
      2 CAN         1.0950    0.1880    0.1020 c         1 MRO      0.921800
      3 OAD         1.7010   -0.2700    1.1040 o         1 MRO     -0.793300
      4 CAQ         1.8630    0.1040   -1.2540 cc        1 MRO      0.043400
      5 NAL         3.2370    0.2700   -1.1610 n         1 MRO     -0.436100
      6 CAR         4.0770    0.1560   -2.2750 c         1 MRO      0.790500
      7 OAB         5.3240    0.2750   -2.1710 o         1 MRO     -0.697500
      8 NAM         3.4840   -0.0750   -3.5250 n         1 MRO     -0.592500
      9 CAS         2.0920   -0.2410   -3.6820 c         1 MRO      0.716700
     10 OAC         1.6770   -0.4700   -4.8370 o         1 MRO     -0.668500
     11 CAP         1.2710   -0.1340   -2.4710 cd        1 MRO     -0.291400
     12 CAK        -0.1940   -0.2990   -2.6350 c3        1 MRO      0.009800
     13 CAJ        -0.8770    1.0330   -2.9110 c3        1 MRO     -0.039100
     14 CAO        -2.3570    0.9220   -2.7900 ca        1 MRO     -0.058300
     15 CAH        -3.1850    0.9750   -3.9150 ca        1 MRO     -0.128500
     16 CAF        -4.5700    0.8820   -3.7730 ca        1 MRO     -0.143500
     17 CAE        -5.1360    0.7360   -2.5080 ca        1 MRO     -0.153000
     18 CAG        -4.3120    0.6810   -1.3820 ca        1 MRO     -0.143500
     19 CAI        -2.9300    0.7730   -1.5170 ca        1 MRO     -0.128500
     20 H2          4.0850   -0.1440   -4.3130 hn        1 MRO      0.330500
     21 H4         -0.6240   -0.7350   -1.6910 hc        1 MRO      0.058200
     22 H5         -0.3980   -1.0080   -3.4810 hc        1 MRO      0.058200
     23 H6         -0.5900    1.3990   -3.9310 hc        1 MRO      0.058200
     24 H7         -0.5100    1.7770   -2.1500 hc        1 MRO      0.058200
     25 H8         -2.7410    1.0870   -4.9150 ha        1 MRO      0.157000
     26 H9         -5.2150    0.9240   -4.6620 ha        1 MRO      0.116000
     27 H10        -6.2260    0.6630   -2.3970 ha        1 MRO      0.111000
     28 H11        -4.7560    0.5640   -0.3830 ha        1 MRO      0.116000
     29 H12        -2.2610    0.7310   -0.6360 ha        1 MRO      0.157000
     30 H13         3.6500    0.3200   -0.2520 hn        1 MRO      0.366500
@<TRIPOS>BOND
     1    1    2 1   
     2    2    3 1   
     3    2    4 1   
     4    4    5 1   
     5    4   11 2   
     6    5    6 1   
     7    5   30 1   
     8    6    7 2   
     9    6    8 1   
    10    8    9 1   
    11    8   20 1   
    12    9   10 2   
    13    9   11 1   
    14   11   12 1   
    15   12   13 1   
    16   12   21 1   
    17   12   22 1   
    18   13   14 1   
    19   13   23 1   
    20   13   24 1   
    21   14   15 ar  
    22   14   19 ar  
    23   15   16 ar  
    24   15   25 1   
    25   16   17 ar  
    26   16   26 1   
    27   17   18 ar  
    28   17   27 1   
    29   18   19 ar  
    30   18   28 1   
    31   19   29 1   
@<TRIPOS>SUBSTRUCTURE
     1 MRO         1 TEMP              0 ****  ****    0 ROOT
