@<TRIPOS>MOLECULE
MRO
   30    31     1     0     0
SMALL
bcc


@<TRIPOS>ATOM
      1 OAA        -0.0380    0.7430    0.0880 o         1 MRO     -0.793300
      2 CAN         1.1010    0.2190    0.1000 c         1 MRO      0.921800
      3 OAD         1.7110   -0.2270    1.1050 o         1 MRO     -0.793300
      4 CAQ         1.8660    0.1250   -1.2560 cc        1 MRO      0.043400
      5 NAL         3.2400    0.2980   -1.1680 ns        1 MRO     -0.436100
      6 CAR         4.0780    0.1780   -2.2820 c         1 MRO      0.790500
      7 OAB         5.3250    0.3030   -2.1820 o         1 MRO     -0.697500
      8 NAM         3.4840   -0.0680   -3.5290 ns        1 MRO     -0.592500
      9 CAS         2.0920   -0.2420   -3.6810 c         1 MRO      0.716700
     10 OAC         1.6760   -0.4840   -4.8330 o         1 MRO     -0.668500
     11 CAP         1.2730   -0.1270   -2.4700 cd        1 MRO     -0.291400
     12 CAK        -0.1920   -0.3010   -2.6290 c3        1 MRO      0.009800
     13 CAJ        -0.8820    1.0260   -2.9160 c3        1 MRO     -0.039100
     14 CAO        -2.3600    0.9090   -2.7910 ca        1 MRO     -0.058300
     15 CAH        -3.1910    0.9470   -3.9140 ca        1 MRO     -0.128500
     16 CAF        -4.5750    0.8500   -3.7690 ca        1 MRO     -0.143500
     17 CAE        -5.1370    0.7120   -2.5020 ca        1 MRO     -0.153000
     18 CAG        -4.3120    0.6720   -1.3760 ca        1 MRO     -0.143500
     19 CAI        -2.9300    0.7700   -1.5160 ca        1 MRO     -0.128500
     20 H2          4.0840   -0.1420   -4.3180 hn        1 MRO      0.330500
     21 H4         -0.6170   -0.7300   -1.6800 hc        1 MRO      0.058200
     22 H5         -0.3940   -1.0190   -3.4680 hc        1 MRO      0.058200
     23 H6         -0.5980    1.3830   -3.9400 hc        1 MRO      0.058200
     24 H7         -0.5160    1.7790   -2.1620 hc        1 MRO      0.058200
     25 H8         -2.7500    1.0520   -4.9160 ha        1 MRO      0.157000
     26 H9         -5.2220    0.8800   -4.6570 ha        1 MRO      0.116000
     27 H10        -6.2270    0.6350   -2.3880 ha        1 MRO      0.111000
     28 H11        -4.7530    0.5620   -0.3750 ha        1 MRO      0.116000
     29 H12        -2.2590    0.7390   -0.6350 ha        1 MRO      0.157000
     30 H13         3.6540    0.3590   -0.2600 hn        1 MRO      0.366500
@<TRIPOS>BOND
     1    1    2 1   
     2    2    3 1   
     3    2    4 1   
     4    4    5 1   
     5    4   11 2   
     6    5    6 1   
     7    5   30 1   
     8    6    7 2   
     9    6    8 1   
    10    8    9 1   
    11    8   20 1   
    12    9   10 2   
    13    9   11 1   
    14   11   12 1   
    15   12   13 1   
    16   12   21 1   
    17   12   22 1   
    18   13   14 1   
    19   13   23 1   
    20   13   24 1   
    21   14   15 ar  
    22   14   19 ar  
    23   15   16 ar  
    24   15   25 1   
    25   16   17 ar  
    26   16   26 1   
    27   17   18 ar  
    28   17   27 1   
    29   18   19 ar  
    30   18   28 1   
    31   19   29 1   
@<TRIPOS>SUBSTRUCTURE
     1 MRO         1 TEMP              0 ****  ****    0 ROOT
