@<TRIPOS>MOLECULE
MRP
   26    26     1     0     0
SMALL
bcc


@<TRIPOS>ATOM
      1 C1         -1.3520    0.4340   -1.4280 c3        1 MRP      0.305900
      2 C2          0.1630    0.4340   -1.4280 c3        1 MRP      0.099100
      3 C3          0.7270    0.4340   -0.0550 c3        1 MRP      0.113100
      4 C4          0.1490   -0.6520    0.7940 c3        1 MRP      0.124100
      5 C5         -1.3710   -0.6490    0.7820 c3        1 MRP      0.148100
      6 C6         -1.8640   -1.8690    1.5020 c3        1 MRP     -0.089100
      7 C7          2.9110    1.4210    0.1450 c3        1 MRP      0.117700
      8 O1         -1.7980    1.6540   -0.9630 oh        1 MRP     -0.629800
      9 O2          0.6290   -0.7400   -2.1230 oh        1 MRP     -0.572800
     10 O3          2.1660    0.2500   -0.1380 os        1 MRP     -0.414600
     11 O4          0.6030   -0.4780    2.1430 oh        1 MRP     -0.598800
     12 O5         -1.9220   -0.6450   -0.5740 os        1 MRP     -0.443600
     13 H1         -1.6670    0.3110   -2.3430 h2        1 MRP      0.066700
     14 H2          0.4790    1.2280   -1.8990 h1        1 MRP      0.057700
     15 H3          0.5410    1.2960    0.3640 h1        1 MRP      0.067700
     16 H4          0.4660   -1.5140    0.4620 h1        1 MRP      0.074700
     17 H5         -1.6880    0.1450    1.2530 h1        1 MRP      0.057700
     18 H61        -1.3720   -2.6520    1.1910 hc        1 MRP      0.051700
     19 H62        -2.8160   -1.9900    1.3230 hc        1 MRP      0.051700
     20 H63        -1.7260   -1.7580    2.4620 hc        1 MRP      0.051700
     21 H71         2.6520    2.1300   -0.4740 h1        1 MRP      0.037033
     22 H72         2.7320    1.7080    1.0610 h1        1 MRP      0.037033
     23 H73         3.8640    1.2340    0.0430 h1        1 MRP      0.037033
     24 HO1        -2.4110    1.9760   -1.5180 ho        1 MRP      0.425000
     25 HO2         0.8120   -0.5310   -2.9660 ho        1 MRP      0.402000
     26 HO4         1.0930   -1.1780    2.3830 ho        1 MRP      0.423000
@<TRIPOS>BOND
     1    1    2 1   
     2    1    8 1   
     3    1   12 1   
     4    1   13 1   
     5    2    3 1   
     6    2    9 1   
     7    2   14 1   
     8    3    4 1   
     9    3   10 1   
    10    3   15 1   
    11    4    5 1   
    12    4   11 1   
    13    4   16 1   
    14    5    6 1   
    15    5   12 1   
    16    5   17 1   
    17    6   18 1   
    18    6   19 1   
    19    6   20 1   
    20    7   10 1   
    21    7   21 1   
    22    7   22 1   
    23    7   23 1   
    24    8   24 1   
    25    9   25 1   
    26   11   26 1   
@<TRIPOS>SUBSTRUCTURE
     1 MRP         1 TEMP              0 ****  ****    0 ROOT
