@<TRIPOS>MOLECULE
MRP
   26    26     1     0     0
SMALL
bcc


@<TRIPOS>ATOM
      1 C1         -1.6680   -0.2070   -0.7230 c3        1 MRP      0.305900
      2 C2         -1.1350    0.0320    0.7040 c3        1 MRP      0.099100
      3 C3          0.3350   -0.3950    0.8040 c3        1 MRP      0.113100
      4 C4          1.1490    0.2230   -0.3460 c3        1 MRP      0.124100
      5 C5          0.5380   -0.2200   -1.6850 c3        1 MRP      0.148100
      6 C6          1.2560    0.4130   -2.8590 c3        1 MRP     -0.089100
      7 O1         -1.8510   -1.5950   -0.8860 oh        1 MRP     -0.629800
      8 O2         -1.2200    1.4030    1.0450 oh        1 MRP     -0.572800
      9 O3          0.9710    0.0470    1.9980 os        1 MRP     -0.414600
     10 O4          2.4840   -0.2490   -0.3200 oh        1 MRP     -0.598800
     11 O5         -0.8260    0.2130   -1.7720 os        1 MRP     -0.443600
     12 H1         -2.6290    0.3610   -0.8960 h2        1 MRP      0.066700
     13 H2         -1.7570   -0.5790    1.4190 h1        1 MRP      0.057700
     14 H3          0.3720   -1.5200    0.7500 h1        1 MRP      0.067700
     15 H4          1.1290    1.3440   -0.2530 h1        1 MRP      0.074700
     16 H5          0.5650   -1.3430   -1.7540 h1        1 MRP      0.057700
     17 H61         0.8400    0.0260   -3.8190 hc        1 MRP      0.051700
     18 H62         1.1350    1.5220   -2.8390 hc        1 MRP      0.051700
     19 H63         2.3420    0.1600   -2.7910 hc        1 MRP      0.051700
     20 H71         1.0670   -0.1220    3.9980 h1        1 MRP      0.037033
     21 H72        -0.6360    0.0500    3.3280 h1        1 MRP      0.037033
     22 H73         0.2560   -1.5450    3.1610 h1        1 MRP      0.037033
     23 HO1        -2.0450   -1.7520   -1.8190 ho        1 MRP      0.425000
     24 HO2        -2.1430    1.6640    0.9350 ho        1 MRP      0.402000
     25 HO4         2.8330   -0.0270    0.5540 ho        1 MRP      0.423000
     26 C7          0.3630   -0.4330    3.1860 c3        1 MRP      0.117700
@<TRIPOS>BOND
     1    1    2 1   
     2    1    7 1   
     3    1   11 1   
     4    1   12 1   
     5    2    3 1   
     6    2    8 1   
     7    2   13 1   
     8    3    4 1   
     9    3    9 1   
    10    3   14 1   
    11    4    5 1   
    12    4   10 1   
    13    4   15 1   
    14    5    6 1   
    15    5   11 1   
    16    5   16 1   
    17    6   17 1   
    18    6   18 1   
    19    6   19 1   
    20    7   23 1   
    21    8   24 1   
    22    9   26 1   
    23   10   25 1   
    24   20   26 1   
    25   21   26 1   
    26   22   26 1   
@<TRIPOS>SUBSTRUCTURE
     1 MRP         1 TEMP              0 ****  ****    0 ROOT
