@<TRIPOS>MOLECULE
MRU
   26    25     1     0     0
SMALL
bcc


@<TRIPOS>ATOM
      1 O3P         2.1640   -0.9970    0.2030 o         1 MRU     -0.917167
      2 P1          3.4660   -0.4310   -0.2710 p5        1 MRU      1.314900
      3 O1P         4.2760    0.3560    0.7260 o         1 MRU     -0.917167
      4 O2P         4.2820   -1.2260   -1.2590 o         1 MRU     -0.917167
      5 O1          3.0090    0.8630   -1.3570 os        1 MRU     -0.557200
      6 C1          3.0060    2.1180   -0.8250 c3        1 MRU      0.142400
      7 C2          4.1510    2.9770   -1.3430 c         1 MRU      0.537100
      8 O2          3.9710    4.1220   -1.8010 o         1 MRU     -0.656100
      9 C3          5.5710    2.4640   -1.2050 c3        1 MRU     -0.004900
     10 O3          6.5110    3.5260   -1.3660 oh        1 MRU     -0.635800
     11 C4          5.9140    1.3210   -2.1890 c3        1 MRU      0.100100
     12 O4          7.3190    1.1870   -2.2780 oh        1 MRU     -0.588800
     13 C5          5.2620    1.5730   -3.5390 c3        1 MRU     -0.010300
     14 S1          5.6760    0.4690   -4.8700 ss        1 MRU     -0.426200
     15 C6          5.1890   -1.1310   -4.3140 c3        1 MRU     -0.039000
     16 H11         3.1190    2.0920    0.3020 h1        1 MRU      0.026200
     17 H12         2.0470    2.6510   -1.1020 h1        1 MRU      0.026200
     18 H3          5.7200    2.0760   -0.1500 h1        1 MRU      0.161700
     19 HO3         6.1670    4.1040   -2.0600 ho        1 MRU      0.391000
     20 H4          5.5250    0.3330   -1.7410 h1        1 MRU      0.205700
     21 HO4         7.6750    2.0600   -2.4900 ho        1 MRU      0.372000
     22 H51         4.1530    1.5260   -3.3700 h1        1 MRU      0.072200
     23 H52         5.5440    2.5800   -3.9330 h1        1 MRU      0.072200
     24 H61         6.0550   -1.8180   -4.4230 h1        1 MRU      0.083033
     25 H62         4.8600   -1.1310   -3.2320 h1        1 MRU      0.083033
     26 H63         4.3470   -1.4900   -4.9440 h1        1 MRU      0.083033
@<TRIPOS>BOND
     1    1    2 1   
     2    2    3 1   
     3    2    4 1   
     4    2    5 1   
     5    5    6 1   
     6    6    7 1   
     7    6   16 1   
     8    6   17 1   
     9    7    8 2   
    10    7    9 1   
    11    9   10 1   
    12    9   11 1   
    13    9   18 1   
    14   10   19 1   
    15   11   12 1   
    16   11   13 1   
    17   11   20 1   
    18   12   21 1   
    19   13   14 1   
    20   13   22 1   
    21   13   23 1   
    22   14   15 1   
    23   15   24 1   
    24   15   25 1   
    25   15   26 1   
@<TRIPOS>SUBSTRUCTURE
     1 MRU         1 TEMP              0 ****  ****    0 ROOT
