@<TRIPOS>MOLECULE
MRU
   26    24     1     0     0
SMALL
bcc


@<TRIPOS>ATOM
      1 O3P        -1.4980   -3.5530    3.8870 o         1 MRU     -0.914500
      2 P1         -0.2420   -4.0530    3.2150 p4        1 MRU      1.696200
      3 O1P         0.7450   -4.5060    4.2640 os        1 MRU     -1.218000
      4 O2P        -0.5830   -5.2130    2.3100 o         1 MRU     -0.963300
      5 O1          0.3980   -2.8880    2.3590 os        1 MRU     -0.561200
      6 C1         -0.4280   -2.1850    1.4600 c3        1 MRU      0.130400
      7 C2          0.4250   -1.2970    0.5800 c         1 MRU      0.532100
      8 O2          1.6360   -1.3470    0.6610 o         1 MRU     -0.662100
      9 C3         -0.2290   -0.3500   -0.4000 c3        1 MRU      0.048100
     10 O3         -0.4400   -1.0130   -1.6240 oh        1 MRU     -0.697800
     11 C4          0.6690    0.8450   -0.6220 c3        1 MRU      0.144100
     12 O4          1.1310    1.3220    0.6190 oh        1 MRU     -0.653800
     13 C5         -0.1080    1.9350   -1.3240 c3        1 MRU      0.018700
     14 S1          1.0050    3.2130   -1.8440 ss        1 MRU     -0.374200
     15 C6          0.0960    4.4850   -2.6810 c3        1 MRU     -0.032000
     16 H11        -0.9200   -2.8220    0.9020 h1        1 MRU      0.033700
     17 H12        -1.0620   -1.6330    1.9630 h1        1 MRU      0.033700
     18 H3         -1.0870   -0.0500   -0.0400 h1        1 MRU      0.089700
     19 HO3        -1.2950   -1.2460   -1.6910 ho        1 MRU      0.522000
     20 H4          1.4310    0.5810   -1.1740 h1        1 MRU      0.046700
     21 HO4         1.9030    1.7470    0.5040 ho        1 MRU      0.428000
     22 H51        -0.5630    1.5610   -2.1050 h1        1 MRU      0.095700
     23 H52        -0.7710    2.3100   -0.7100 h1        1 MRU      0.095700
     24 H61        -0.5110    4.9230   -2.0490 h1        1 MRU      0.054033
     25 H62        -0.4230    4.0880   -3.4120 h1        1 MRU      0.054033
     26 H63         0.7210    5.1460   -3.0460 h1        1 MRU      0.054033
@<TRIPOS>BOND
     1    1    2 1   
     2    2    4 2   
     3    2    5 1   
     4    5    6 1   
     5    6    7 1   
     6    6   16 1   
     7    6   17 1   
     8    7    8 2   
     9    7    9 1   
    10    9   10 1   
    11    9   11 1   
    12    9   18 1   
    13   10   19 1   
    14   11   12 1   
    15   11   13 1   
    16   11   20 1   
    17   12   21 1   
    18   13   14 1   
    19   13   22 1   
    20   13   23 1   
    21   14   15 1   
    22   15   24 1   
    23   15   25 1   
    24   15   26 1   
@<TRIPOS>SUBSTRUCTURE
     1 MRU         1 TEMP              0 ****  ****    0 ROOT
