@<TRIPOS>MOLECULE
MRU
   26    25     1     0     0
SMALL
bcc


@<TRIPOS>ATOM
      1 O3P         2.0530   -0.9650    0.0960 o         1 MRU     -0.917167
      2 P1          3.3790   -0.4200   -0.3300 p5        1 MRU      1.314900
      3 O1P         4.1720    0.3420    0.7000 o         1 MRU     -0.917167
      4 O2P         4.2130   -1.2220   -1.2980 o         1 MRU     -0.917167
      5 O1          2.9830    0.8910   -1.4180 os        1 MRU     -0.557200
      6 C1          2.9860    2.1420   -0.8750 c3        1 MRU      0.142400
      7 C2          4.1630    2.9830   -1.3480 c         1 MRU      0.537100
      8 O2          4.0200    4.1360   -1.8010 o         1 MRU     -0.656100
      9 C3          5.5680    2.4420   -1.1690 c3        1 MRU     -0.004900
     10 O3          6.5320    3.4880   -1.2890 oh        1 MRU     -0.635800
     11 C4          5.9210    1.3020   -2.1510 c3        1 MRU      0.100100
     12 O4          7.3260    1.1410   -2.1960 oh        1 MRU     -0.588800
     13 C5          5.3190    1.5770   -3.5190 c3        1 MRU     -0.010300
     14 S1          5.7550    0.4770   -4.8470 ss        1 MRU     -0.426200
     15 C6          5.2190   -1.1180   -4.3220 c3        1 MRU     -0.039000
     16 H11         3.0620    2.1040    0.2540 h1        1 MRU      0.026200
     17 H12         2.0470    2.6950   -1.1780 h1        1 MRU      0.026200
     18 H3          5.6750    2.0420   -0.1130 h1        1 MRU      0.161700
     19 HO3         6.2220    4.0770   -1.9890 ho        1 MRU      0.391000
     20 H4          5.5000    0.3170   -1.7250 h1        1 MRU      0.205700
     21 HO4         7.7050    2.0090   -2.3890 ho        1 MRU      0.372000
     22 H51         5.6320    2.5820   -3.8940 h1        1 MRU      0.072200
     23 H52         4.2040    1.5500   -3.3870 h1        1 MRU      0.072200
     24 H61         4.3910   -1.4550   -4.9820 h1        1 MRU      0.083033
     25 H62         6.0750   -1.8210   -4.4100 h1        1 MRU      0.083033
     26 H63         4.8560   -1.1210   -3.2510 h1        1 MRU      0.083033
@<TRIPOS>BOND
     1    1    2 1   
     2    2    3 1   
     3    2    4 1   
     4    2    5 1   
     5    5    6 1   
     6    6    7 1   
     7    6   16 1   
     8    6   17 1   
     9    7    8 2   
    10    7    9 1   
    11    9   10 1   
    12    9   11 1   
    13    9   18 1   
    14   10   19 1   
    15   11   12 1   
    16   11   13 1   
    17   11   20 1   
    18   12   21 1   
    19   13   14 1   
    20   13   22 1   
    21   13   23 1   
    22   14   15 1   
    23   15   24 1   
    24   15   25 1   
    25   15   26 1   
@<TRIPOS>SUBSTRUCTURE
     1 MRU         1 TEMP              0 ****  ****    0 ROOT
