@<TRIPOS>MOLECULE
MRU
   26    25     1     0     0
SMALL
bcc


@<TRIPOS>ATOM
      1 O3P         2.9630    0.6200    2.2040 o         1 MRU     -0.928500
      2 P1          2.0310   -0.5270    2.4310 p5        1 MRU      1.328900
      3 O1P         1.1550   -0.5090    3.6490 o         1 MRU     -0.928500
      4 O2P         1.3670   -1.1200    1.2040 o         1 MRU     -0.928500
      5 O1          3.0860   -1.8730    2.8020 os        1 MRU     -0.536200
      6 C1          2.3990   -3.0300    3.0230 c3        1 MRU      0.169400
      7 C2          2.6550   -4.0810    1.9510 c         1 MRU      0.533100
      8 O2          3.7680   -4.4480    1.5510 o         1 MRU     -0.598100
      9 C3          1.4270   -4.8040    1.3950 c3        1 MRU      0.031100
     10 O3          1.7950   -6.0560    0.8300 oh        1 MRU     -0.618800
     11 C4          0.6610   -3.9180    0.3960 c3        1 MRU      0.103100
     12 O4         -0.4740   -4.6790   -0.0130 oh        1 MRU     -0.631800
     13 C5          1.5480   -3.4950   -0.7630 c3        1 MRU     -0.008300
     14 S1          0.6770   -2.8160   -2.1640 ss        1 MRU     -0.438200
     15 C6          0.4310   -1.1220   -1.7410 c3        1 MRU     -0.050000
     16 H11         2.7510   -3.5180    3.9850 h1        1 MRU      0.011700
     17 H12         1.2880   -2.8420    3.0920 h1        1 MRU      0.011700
     18 H3          0.7290   -5.0740    2.2360 h1        1 MRU      0.076700
     19 HO3         2.5900   -5.8980    0.3040 ho        1 MRU      0.399000
     20 H4          0.3180   -2.9750    0.9340 h1        1 MRU      0.152700
     21 HO4        -0.8490   -4.1990   -0.7650 ho        1 MRU      0.400000
     22 H51         2.2530   -2.7200   -0.3530 h1        1 MRU      0.095200
     23 H52         2.1100   -4.3620   -1.1810 h1        1 MRU      0.095200
     24 H61         0.7470   -0.9200   -0.6710 h1        1 MRU      0.085700
     25 H62        -0.6460   -0.8810   -1.8570 h1        1 MRU      0.085700
     26 H63         1.0310   -0.4840   -2.4240 h1        1 MRU      0.085700
@<TRIPOS>BOND
     1    1    2 1   
     2    2    3 1   
     3    2    4 1   
     4    2    5 1   
     5    5    6 1   
     6    6    7 1   
     7    6   16 1   
     8    6   17 1   
     9    7    8 2   
    10    7    9 1   
    11    9   10 1   
    12    9   11 1   
    13    9   18 1   
    14   10   19 1   
    15   11   12 1   
    16   11   13 1   
    17   11   20 1   
    18   12   21 1   
    19   13   14 1   
    20   13   22 1   
    21   13   23 1   
    22   14   15 1   
    23   15   24 1   
    24   15   25 1   
    25   15   26 1   
@<TRIPOS>SUBSTRUCTURE
     1 MRU         1 TEMP              0 ****  ****    0 ROOT
