@<TRIPOS>MOLECULE
MRV
   78    82     1     0     0
SMALL
bcc


@<TRIPOS>ATOM
      1 F1         -8.0160    1.2510   -1.3010 f         1 MRV     -0.242800
      2 O1         -3.1890   -0.0580   -2.0510 o         1 MRV     -0.603100
      3 C1          4.4890    1.3290   -0.0750 c3        1 MRV      0.061000
      4 N1          5.8610    0.8810    0.0120 na        1 MRV     -0.325700
      5 C12        -0.1680   -1.0540    0.2410 c3        1 MRV     -0.081400
      6 C13        -1.6010   -1.4390   -0.1750 c3        1 MRV      0.140000
      7 C15        -1.9540   -2.7540    0.4840 ca        1 MRV     -0.113300
      8 C16        -3.3850    0.1510   -0.8380 c         1 MRV      0.659100
      9 C17        -4.4970    1.0790   -0.3500 c3        1 MRV     -0.136700
     10 C18        -7.3020    2.0140   -0.3960 c3        1 MRV      0.405600
     11 C19         6.0220   -2.3440   -1.5870 c3        1 MRV     -0.089100
     12 F2         -8.2840    2.8730    0.0680 f         1 MRV     -0.242800
     13 N2          1.7840    0.3220   -0.4510 n3        1 MRV     -0.694600
     14 C2          2.1280    1.0200    0.8120 c3        1 MRV      0.157000
     15 C20         5.7790   -2.6180    0.8840 c3        1 MRV     -0.089100
     16 C21        -5.0420    1.8860   -1.5190 c3        1 MRV     -0.072900
     17 C22        -5.6110    0.2630    0.2890 c3        1 MRV     -0.072900
     18 C23        -6.1560    2.8040   -1.0780 c3        1 MRV     -0.119900
     19 C24        -6.7340    1.1550    0.7630 c3        1 MRV     -0.119900
     20 C25        -1.9950   -2.8680    1.8770 ca        1 MRV     -0.119500
     21 C26        -2.2440   -3.8690   -0.3090 ca        1 MRV     -0.119500
     22 C27        -2.3170   -4.0860    2.4730 ca        1 MRV     -0.128500
     23 C28        -2.5630   -5.0880    0.2900 ca        1 MRV     -0.128500
     24 C29        -2.6010   -5.1980    1.6790 ca        1 MRV     -0.123000
     25 C3          2.3500    1.2640   -1.4470 c3        1 MRV      0.157000
     26 N3          7.7420   -0.3480    0.0700 nc        1 MRV     -0.358000
     27 C4          6.3810   -0.4260   -0.0760 cd        1 MRV      0.370800
     28 N4          8.1000    0.9040    0.2420 nc        1 MRV     -0.349000
     29 N5         -2.5700   -0.4060    0.1300 n         1 MRV     -0.562900
     30 C5          3.6210    0.7930    1.0870 c3        1 MRV     -0.079400
     31 C6          3.8730    1.0690   -1.4690 c3        1 MRV     -0.079400
     32 C7          6.9900    1.7060    0.2160 cd        1 MRV      0.348800
     33 C8          1.8690    2.5340    0.5700 c3        1 MRV     -0.112900
     34 C9          2.0150    2.6970   -0.9450 c3        1 MRV     -0.112900
     35 H1          4.5240    2.4580    0.0500 h1        1 MRV      0.060700
     36 H2          0.2060   -0.2040   -1.7150 h1        1 MRV      0.042700
     37 H3         -0.2500    1.0100   -0.4400 h1        1 MRV      0.042700
     38 H4          4.4950   -1.4240   -0.3720 hc        1 MRV      0.066700
     39 H5          0.4750   -1.9650    0.1220 hc        1 MRV      0.055200
     40 H6         -0.1430   -0.7610    1.3220 hc        1 MRV      0.055200
     41 H7         -1.6050   -1.5840   -1.3010 h1        1 MRV      0.096700
     42 H8          6.5080    3.6510   -0.5440 hc        1 MRV      0.057033
     43 H9          6.3260    3.4570    1.2570 hc        1 MRV      0.057033
     44 H10         7.9820    3.5750    0.5170 hc        1 MRV      0.057033
     45 H11        -4.0730    1.7900    0.4140 hc        1 MRV      0.064700
     46 H12         5.4150   -3.2670   -1.7540 hc        1 MRV      0.043367
     47 H13         5.8660   -1.6520   -2.4500 hc        1 MRV      0.043367
     48 H14         7.1010   -2.6270   -1.5480 hc        1 MRV      0.043367
     49 H16         1.5220    0.6290    1.6690 h1        1 MRV      0.072200
     50 H17         6.8510   -2.9100    0.9910 hc        1 MRV      0.043367
     51 H18         5.4460   -2.1270    1.8290 hc        1 MRV      0.043367
     52 H19         5.1710   -3.5420    0.7260 hc        1 MRV      0.043367
     53 H20        -4.2140    2.4900   -1.9740 hc        1 MRV      0.066450
     54 H21        -5.4150    1.1830   -2.3120 hc        1 MRV      0.066450
     55 H22        -6.0100   -0.4720   -0.4600 hc        1 MRV      0.066450
     56 H23        -5.2150   -0.3180    1.1620 hc        1 MRV      0.066450
     57 H24        -6.5740    3.3490   -1.9630 hc        1 MRV      0.069200
     58 H25        -5.7830    3.5610   -0.3430 hc        1 MRV      0.069200
     59 H26        -6.3770    1.8550    1.5600 hc        1 MRV      0.069200
     60 H27        -7.5630    0.5330    1.1880 hc        1 MRV      0.069200
     61 H28        -1.7620   -1.9960    2.5070 ha        1 MRV      0.133500
     62 H29        -2.2210   -3.7870   -1.4060 ha        1 MRV      0.133500
     63 H30        -2.3450   -4.1710    3.5690 ha        1 MRV      0.134500
     64 H31        -2.7880   -5.9630   -0.3380 ha        1 MRV      0.134500
     65 H32        -2.8540   -6.1600    2.1500 ha        1 MRV      0.135000
     66 H33         1.9310    1.0770   -2.4700 h1        1 MRV      0.072200
     67 H34        -2.8340   -0.3170    1.0830 hn        1 MRV      0.303500
     68 H35         3.8070   -0.3000    1.2530 hc        1 MRV      0.060450
     69 H36         3.9000    1.3320    2.0280 hc        1 MRV      0.060450
     70 H37         4.3170    1.7890   -2.2040 hc        1 MRV      0.060450
     71 H38         4.1090    0.0320   -1.8230 hc        1 MRV      0.060450
     72 H39         0.8400    2.8090    0.9060 hc        1 MRV      0.050950
     73 H40         2.5970    3.1630    1.1320 hc        1 MRV      0.050950
     74 H41         2.8230    3.4180   -1.2130 hc        1 MRV      0.050950
     75 H42         1.0630    3.0550   -1.4050 hc        1 MRV      0.050950
     76 C10         0.3610    0.0810   -0.6340 c3        1 MRV      0.156800
     77 C11         5.5920   -1.6790   -0.2930 c3        1 MRV     -0.087000
     78 C14         6.9470    3.1770    0.3690 c3        1 MRV     -0.117400
@<TRIPOS>BOND
     1    1   10 1   
     2    2    8 2   
     3    3    4 1   
     4    3   30 1   
     5    3   31 1   
     6    3   35 1   
     7    4   27 1   
     8    4   32 1   
     9    5    6 1   
    10    5   39 1   
    11    5   40 1   
    12    5   76 1   
    13    6    7 1   
    14    6   29 1   
    15    6   41 1   
    16    7   20 ar  
    17    7   21 ar  
    18    8    9 1   
    19    8   29 1   
    20    9   16 1   
    21    9   17 1   
    22    9   45 1   
    23   10   12 1   
    24   10   18 1   
    25   10   19 1   
    26   11   46 1   
    27   11   47 1   
    28   11   48 1   
    29   11   77 1   
    30   13   14 1   
    31   13   25 1   
    32   13   76 1   
    33   14   30 1   
    34   14   33 1   
    35   14   49 1   
    36   15   50 1   
    37   15   51 1   
    38   15   52 1   
    39   15   77 1   
    40   16   18 1   
    41   16   53 1   
    42   16   54 1   
    43   17   19 1   
    44   17   55 1   
    45   17   56 1   
    46   18   57 1   
    47   18   58 1   
    48   19   59 1   
    49   19   60 1   
    50   20   22 ar  
    51   20   61 1   
    52   21   23 ar  
    53   21   62 1   
    54   22   24 ar  
    55   22   63 1   
    56   23   24 ar  
    57   23   64 1   
    58   24   65 1   
    59   25   31 1   
    60   25   34 1   
    61   25   66 1   
    62   26   27 2   
    63   26   28 1   
    64   27   77 1   
    65   28   32 2   
    66   29   67 1   
    67   30   68 1   
    68   30   69 1   
    69   31   70 1   
    70   31   71 1   
    71   32   78 1   
    72   33   34 1   
    73   33   72 1   
    74   33   73 1   
    75   34   74 1   
    76   34   75 1   
    77   36   76 1   
    78   37   76 1   
    79   38   77 1   
    80   42   78 1   
    81   43   78 1   
    82   44   78 1   
@<TRIPOS>SUBSTRUCTURE
     1 MRV         1 TEMP              0 ****  ****    0 ROOT
