@<TRIPOS>MOLECULE
MRV
   79    76     1     0     0
SMALL
bcc


@<TRIPOS>ATOM
      1 F1          3.9580    1.3530    0.1020 f         1 MRV     -0.183500
      2 O1          7.9630   -0.2900   -1.7600 o         1 MRV     -0.495000
      3 C1         12.2100    0.6070   -5.2210 c1        1 MRV     -0.142000
      4 N1         11.7040    0.8720   -4.0000 na        1 MRV     -0.025000
      5 C12         5.7540    1.7760   -4.4520 c1        1 MRV     -0.090000
      6 C13         6.5200    1.6690   -3.2040 c3        1 MRV      0.024000
      7 C15         6.8060    3.0990   -2.7720 c2        1 MRV     -0.154000
      8 C16         6.7620   -0.0700   -1.4460 c2        1 MRV      0.335000
      9 C17         6.1310   -0.8070   -0.2780 c3        1 MRV     -0.191000
     10 C18         3.0720    0.3210   -0.1740 c3        1 MRV      0.288000
     11 C19        11.7430    4.4800   -3.7580 c3        1 MRV     -0.228500
     12 F2          2.9570    0.4590   -1.5500 f         1 MRV     -0.183500
     13 N2          3.6840    1.9140   -5.7590 n8        1 MRV     -0.309000
     14 C2          4.4090    1.2330   -4.6970 c3        1 MRV     -0.079000
     15 C20        13.8510    3.5020   -2.8150 c3        1 MRV     -0.228500
     16 C21         1.5510    1.1960    1.6210 c2        1 MRV     -0.150000
     17 C22         4.8330   -1.5140   -0.6210 c3        1 MRV     -0.162000
     18 C23         1.7300    0.4840    0.5140 c2        1 MRV     -0.239000
     19 C24         3.6600   -1.0630    0.2210 c3        1 MRV     -0.201000
     20 C25         6.0280    3.7470   -1.8790 c2        1 MRV     -0.052000
     21 C26         8.0160    3.7410   -3.3520 c3        1 MRV     -0.214000
     22 C27         6.3160    5.0840   -1.4170 c2        1 MRV     -0.448000
     23 C28         8.6370    3.1930   -4.5320 c1        1 MRV     -0.094000
     24 C29         7.3890    5.7940   -1.7220 c1        1 MRV      0.211000
     25 C3         10.9450   -0.6270    1.2900 c1        1 MRV     -0.127000
     26 N3         11.1970    1.9460   -2.0780 n2        1 MRV     -0.031000
     27 C4         11.8780    2.0780   -3.2440 c2        1 MRV      0.055000
     28 N4         10.6200    0.7320   -2.0930 na        1 MRV     -0.101000
     29 N5          5.9980    0.8300   -2.1390 ns        1 MRV     -0.376000
     30 C5         12.6650    0.3870   -6.3070 c1        1 MRV     -0.040000
     31 C6         10.0350   -0.9210    0.5690 c1        1 MRV     -0.293000
     32 C7         10.8820    0.0300   -3.2460 c2        1 MRV      0.130000
     33 C8          4.5620   -0.2720   -4.9870 c3        1 MRV     -0.200000
     34 C9         12.0300   -0.2750    2.1490 c3        1 MRV     -0.130000
     35 H1         12.1850    0.8350    2.1550 hc        1 MRV      0.106333
     36 H2          8.7220   -3.5600    0.0600 hc        1 MRV      0.070250
     37 H3          4.0790    1.6950   -6.6530 hn        1 MRV      0.151500
     38 H4         13.0250    3.0570   -4.7660 hc        1 MRV      0.122000
     39 H5          8.2230   -2.7520   -1.4900 hc        1 MRV      0.070250
     40 H6          8.5880   -4.5350   -1.4670 hc        1 MRV      0.070250
     41 H7          7.5140    1.1940   -3.5140 h1        1 MRV      0.147000
     42 H8         10.2700   -1.4200   -4.7020 hc        1 MRV      0.149333
     43 H9         11.1720   -2.0820   -3.2610 hc        1 MRV      0.149333
     44 H10         9.4350   -1.5390   -3.0780 hc        1 MRV      0.149333
     45 H11         6.8860   -1.5580    0.0830 hc        1 MRV      0.125500
     46 H12        10.7890    4.2420   -4.2980 hc        1 MRV      0.103667
     47 H13        11.4920    4.8190   -2.7240 hc        1 MRV      0.103667
     48 H14        12.2640    5.3140   -4.2890 hc        1 MRV      0.103667
     49 H16         3.7290    2.9060   -5.6230 hn        1 MRV      0.151500
     50 H17        13.5240    3.7190   -1.7690 hc        1 MRV      0.103667
     51 H18        14.4280    4.3810   -3.1940 hc        1 MRV      0.103667
     52 H19        14.5240    2.6110   -2.8060 hc        1 MRV      0.103667
     53 H20         5.9710   -0.0610    0.5470 hc        1 MRV      0.125500
     54 H21         0.5680    1.2760    2.1070 ha        1 MRV      0.133000
     55 H22         4.9760   -2.6170   -0.4490 hc        1 MRV      0.105000
     56 H23         4.5750   -1.3940   -1.7070 hc        1 MRV      0.105000
     57 H24         2.3650    1.7480    2.1140 ha        1 MRV      0.133000
     58 H25         0.9160   -0.0550    0.0060 ha        1 MRV      0.157000
     59 H26         2.8300   -1.8110    0.1150 hc        1 MRV      0.120500
     60 H27         3.9470   -1.0080    1.3020 hc        1 MRV      0.120500
     61 H28         5.1270    3.2810   -1.4410 ha        1 MRV      0.146000
     62 H29         8.7860    3.8700   -2.5310 hc        1 MRV      0.161500
     63 H30         5.5610    5.5370   -0.7390 ha        1 MRV      0.205000
     64 H31         7.7740    4.8060   -3.7090 hc        1 MRV      0.161500
     65 H32         8.0050    2.6080   -5.2190 ha        1 MRV      0.083000
     66 H33         7.0900   -3.9050   -0.6600 hc        1 MRV      0.070250
     67 H34         5.0720    1.0180   -1.8200 hn        1 MRV      0.248000
     68 H35         3.7500    1.3330   -3.7720 h1        1 MRV      0.120000
     69 H36        13.0710    0.1900   -7.2730 ha        1 MRV      0.271000
     70 H37         9.9980    0.4360   -1.3430 hn        1 MRV      0.362000
     71 H38        12.9790   -0.7660    1.8100 hc        1 MRV      0.106333
     72 H39         3.5640   -0.7020   -5.2500 hc        1 MRV      0.092667
     73 H40         5.2600   -0.4440   -5.8400 hc        1 MRV      0.092667
     74 H41        11.8170   -0.6070    3.1990 hc        1 MRV      0.106333
     75 H42         4.9470   -0.7950   -4.0810 hc        1 MRV      0.092667
     76 C14        10.4120   -1.3280   -3.5950 c3        1 MRV     -0.195000
     77 H52         9.2040   -1.2100   -0.0320 ha        1 MRV      0.235000
     78 C10         8.1570   -3.6880   -0.8900 c3        1 MRV     -0.279000
     79 C11        12.6570    3.2690   -3.7200 c3        1 MRV     -0.036000
@<TRIPOS>BOND
     1    1   10 1   
     2    2    8 1   
     3    3    4 1   
     4    3   30 1   
     5    4   27 1   
     6    4   32 1   
     7    5    6 1   
     8    5   14 1   
     9    6    7 1   
    10    6   29 1   
    11    6   41 1   
    12    7   20 1   
    13    7   21 1   
    14    8    9 1   
    15    8   29 1   
    16    9   17 1   
    17    9   45 1   
    18    9   53 1   
    19   10   12 1   
    20   10   18 1   
    21   10   19 1   
    22   11   46 1   
    23   11   47 1   
    24   11   48 1   
    25   11   79 1   
    26   13   14 1   
    27   13   37 1   
    28   13   49 1   
    29   14   33 1   
    30   14   68 1   
    31   15   50 1   
    32   15   51 1   
    33   15   52 1   
    34   15   79 1   
    35   16   18 1   
    36   16   54 1   
    37   16   57 1   
    38   17   19 1   
    39   17   55 1   
    40   17   56 1   
    41   18   58 1   
    42   19   59 1   
    43   19   60 1   
    44   20   22 1   
    45   20   61 1   
    46   21   23 1   
    47   21   62 1   
    48   21   64 1   
    49   22   24 1   
    50   22   63 1   
    51   23   65 1   
    52   25   31 1   
    53   25   34 1   
    54   26   27 1   
    55   26   28 1   
    56   27   79 1   
    57   28   32 1   
    58   28   70 1   
    59   29   67 1   
    60   30   69 1   
    61   31   77 1   
    62   32   76 1   
    63   33   72 1   
    64   33   73 1   
    65   33   75 1   
    66   34   35 1   
    67   34   71 1   
    68   34   74 1   
    69   36   78 1   
    70   38   79 1   
    71   39   78 1   
    72   40   78 1   
    73   42   76 1   
    74   43   76 1   
    75   44   76 1   
    76   66   78 1   
@<TRIPOS>SUBSTRUCTURE
     1 MRV         1 TEMP              0 ****  ****    0 ROOT
