@<TRIPOS>MOLECULE
MRV
   79    78     1     0     0
SMALL
bcc


@<TRIPOS>ATOM
      1 F1          2.5120   -1.2450   -1.4410 f         1 MRV     -0.190500
      2 O1          6.0350   -0.7180    1.8610 o         1 MRV     -0.408000
      3 C1         11.7740    3.5780   -3.4820 c3        1 MRV      0.028000
      4 N1         11.0360    2.4180   -3.9240 na        1 MRV     -0.176000
      5 C12         7.4240    0.7360   -0.7920 cx        1 MRV     -0.086000
      6 C13         6.0480    1.0980   -0.2150 c3        1 MRV      0.044000
      7 C15         5.4070    2.2760   -1.0080 c3        1 MRV      0.000000
      8 C16         5.1560   -0.8590    0.9820 c2        1 MRV      0.315000
      9 C17         4.0830   -1.9070    1.0770 c3        1 MRV     -0.238000
     10 C18         1.6640   -0.2180   -1.8340 c3        1 MRV      0.326000
     11 C19        13.2710   -0.4890   -4.6360 c3        1 MRV     -0.212000
     12 F2          2.4770    0.8730   -1.5420 f         1 MRV     -0.190500
     13 N2          8.6570    0.8480    0.0320 n4        1 MRV     -0.120000
     14 C2          8.1730   -0.4980   -0.3840 cx        1 MRV     -0.053000
     15 C20        13.0740    1.2150   -6.4490 c3        1 MRV     -0.212000
     16 C21        -0.1550   -1.2170   -0.4160 c2        1 MRV     -0.153500
     17 C22         1.4380   -1.3420   -4.0720 c2        1 MRV     -0.153500
     18 C23         0.3710   -0.1680   -1.0370 c2        1 MRV     -0.234500
     19 C24         1.3130   -0.2610   -3.3120 c2        1 MRV     -0.234500
     20 C25         5.2640    2.0070   -2.5070 c3        1 MRV     -0.128000
     21 C26         6.0860    3.5010   -0.6880 c1        1 MRV     -0.193000
     22 C27         6.1110    2.8090   -3.4270 c2        1 MRV     -0.083000
     23 C28         6.5880    4.5450   -0.3870 c1        1 MRV     -0.175000
     24 C29         7.3950    2.9900   -3.3250 c1        1 MRV     -0.120000
     25 C3         12.0690    2.7060   -1.1050 c2        1 MRV     -0.375000
     26 N3         10.4230    0.4210   -4.7660 n2        1 MRV     -0.085000
     27 C4         11.5010    1.2440   -4.5550 c2        1 MRV     -0.057000
     28 N4          9.3300    0.9980   -4.3300 n2        1 MRV     -0.082000
     29 N5          5.1800   -0.0510   -0.1470 n         1 MRV     -0.387000
     30 C5         12.5760    4.2650   -4.5890 c3        1 MRV     -0.233000
     31 C6         12.7200    3.2900   -2.3000 c3        1 MRV     -0.106000
     32 C7          9.6360    2.2320   -3.8080 c2        1 MRV     -0.076000
     33 C8          8.9660   -1.3100   -1.3550 c3        1 MRV     -0.231000
     34 C9         10.9460    2.0770   -0.9300 c1        1 MRV      0.083000
     35 H1         11.0050    4.3300   -3.1200 h1        1 MRV      0.115000
     36 H2          6.1940    1.4770    0.8490 h1        1 MRV      0.126000
     37 H3          9.5240    1.2620   -0.4550 hn        1 MRV      0.323000
     38 H4         13.6120    1.6240   -4.3950 hc        1 MRV      0.086000
     39 H5          8.3920    2.3020    1.5380 hx        1 MRV      0.135333
     40 H6          7.8170    0.6170    1.9900 hx        1 MRV      0.135333
     41 H7          7.5580    1.1170   -1.8390 hx        1 MRV      0.189000
     42 H8          9.0890    4.0850   -2.7590 ha        1 MRV      0.147000
     43 H9         10.1190   -3.2470   -2.7200 ha        1 MRV      0.000000
     44 H10        10.3540   -3.7430   -3.1160 ha        1 MRV      0.000000
     45 H11         4.2650   -2.5310    1.9860 hc        1 MRV      0.120667
     46 H12        13.1130   -0.6970   -3.5510 hc        1 MRV      0.090167
     47 H13        12.6490   -1.2010   -5.2300 hc        1 MRV      0.090167
     48 H14        14.3460   -0.6670   -4.8820 hc        1 MRV      0.090167
     49 H16        11.9280    4.4780   -5.4730 hc        1 MRV      0.102667
     50 H17        14.1300    1.0120   -6.7510 hc        1 MRV      0.090167
     51 H18        12.4000    0.5530   -7.0430 hc        1 MRV      0.090167
     52 H19        12.8300    2.2790   -6.6850 hc        1 MRV      0.090167
     53 H20        -1.1100   -1.1530    0.1250 ha        1 MRV      0.132250
     54 H21         3.0800   -1.4190    1.1590 hc        1 MRV      0.120667
     55 H22         1.1430   -1.3450   -5.1310 ha        1 MRV      0.132250
     56 H23         4.0830   -2.5610    0.1700 hc        1 MRV      0.120667
     57 H24         0.3250   -2.2060   -0.4060 ha        1 MRV      0.132250
     58 H25        -0.1020    0.8260   -1.0490 ha        1 MRV      0.154500
     59 H26         1.8390   -2.2940   -3.6940 ha        1 MRV      0.132250
     60 H27         0.9130    0.6950   -3.6840 ha        1 MRV      0.154500
     61 H28         5.4620    0.9190   -2.7180 hc        1 MRV      0.113000
     62 H29         4.3470    2.3850   -0.6040 hc        1 MRV      0.139000
     63 H30         5.5750    3.2400   -4.2960 ha        1 MRV      0.165000
     64 H31         4.1860    2.1900   -2.7770 hc        1 MRV      0.113000
     65 H32         7.0210    5.4790   -0.1280 ha        1 MRV      0.233000
     66 H33         9.6090    0.9770    1.8990 hx        1 MRV      0.135333
     67 H34         4.4410   -0.1180   -0.8130 hn        1 MRV      0.255000
     68 H35        12.9720    5.2330   -4.1960 hc        1 MRV      0.102667
     69 H36        13.4360    3.6360   -4.9240 hc        1 MRV      0.102667
     70 H37        12.6950    2.8130   -0.1790 ha        1 MRV      0.226000
     71 H38        13.1910    4.2710   -2.0140 hc        1 MRV      0.124500
     72 H39         9.3810   -0.7000   -2.1940 hc        1 MRV      0.119000
     73 H40         9.8100   -1.8270   -0.8340 hc        1 MRV      0.119000
     74 H41        13.5480    2.6000   -2.6210 hc        1 MRV      0.124500
     75 H42         8.2910   -2.0890   -1.7940 hc        1 MRV      0.119000
     76 C14         8.6870    3.1820   -3.2510 c2        1 MRV     -0.075000
     77 H52         7.7610   -1.1170    0.4580 hx        1 MRV      0.188000
     78 C10         8.6090    1.2050    1.4420 c3        1 MRV     -0.180000
     79 C11        12.9110    0.9480   -4.9630 c3        1 MRV     -0.027000
@<TRIPOS>BOND
     1    1   10 1   
     2    2    8 1   
     3    3    4 1   
     4    3   30 1   
     5    3   31 1   
     6    3   35 1   
     7    4   27 1   
     8    4   32 1   
     9    5    6 1   
    10    5   13 1   
    11    5   14 1   
    12    5   41 1   
    13    6    7 1   
    14    6   29 1   
    15    6   36 1   
    16    7   20 1   
    17    7   21 1   
    18    7   62 1   
    19    8    9 1   
    20    8   29 1   
    21    9   45 1   
    22    9   54 1   
    23    9   56 1   
    24   10   12 1   
    25   10   18 1   
    26   10   19 1   
    27   11   46 1   
    28   11   47 1   
    29   11   48 1   
    30   11   79 1   
    31   13   14 1   
    32   13   37 1   
    33   13   78 1   
    34   14   33 1   
    35   14   77 1   
    36   15   50 1   
    37   15   51 1   
    38   15   52 1   
    39   15   79 1   
    40   16   18 1   
    41   16   53 1   
    42   16   57 1   
    43   17   19 1   
    44   17   55 1   
    45   17   59 1   
    46   18   58 1   
    47   19   60 1   
    48   20   22 1   
    49   20   61 1   
    50   20   64 1   
    51   21   23 1   
    52   22   24 1   
    53   22   63 1   
    54   23   65 1   
    55   24   76 1   
    56   25   31 1   
    57   25   34 1   
    58   25   70 1   
    59   26   27 1   
    60   26   28 1   
    61   27   79 1   
    62   28   32 1   
    63   29   67 1   
    64   30   49 1   
    65   30   68 1   
    66   30   69 1   
    67   31   71 1   
    68   31   74 1   
    69   32   76 1   
    70   33   72 1   
    71   33   73 1   
    72   33   75 1   
    73   38   79 1   
    74   39   78 1   
    75   40   78 1   
    76   42   76 1   
    77   43   44 1   
    78   66   78 1   
@<TRIPOS>SUBSTRUCTURE
     1 MRV         1 TEMP              0 ****  ****    0 ROOT
