@<TRIPOS>MOLECULE
MRV
   79    78     1     0     0
SMALL
bcc


@<TRIPOS>ATOM
      1 F1          2.2600   -0.4250    0.4330 f         1 MRV     -0.192500
      2 O1          6.3580    1.4440    1.9480 o         1 MRV     -0.190000
      3 C1         13.7630    0.2360   -7.6070 c3        1 MRV     -0.041000
      4 N1         13.5670    0.2260   -6.1810 na        1 MRV     -0.123000
      5 C12         4.0090    3.5380   -1.0000 c3        1 MRV      0.050000
      6 C13         4.4330    3.0100    0.4300 c3        1 MRV     -0.108000
      7 C15         3.3050    3.5680    1.3630 c3        1 MRV     -0.074000
      8 C16         5.2280    1.0320    1.7210 c2        1 MRV      0.261000
      9 C17         4.4430    0.0670    2.5680 c3        1 MRV     -0.189000
     10 C18         2.9710   -1.6090    0.2800 c3        1 MRV      0.288000
     11 C19        16.7130    1.1130   -4.5730 c3        1 MRV     -0.212000
     12 F2          3.9900   -1.1610   -0.5520 f         1 MRV     -0.192500
     13 N2          5.2390    3.9220   -1.8670 n4        1 MRV      0.118000
     14 C2          6.0540    2.8160   -2.1060 c1        1 MRV     -0.392000
     15 C20        16.4890   -1.3370   -5.0160 c3        1 MRV     -0.212000
     16 C21         0.8370   -2.7500   -0.3850 c2        1 MRV     -0.134000
     17 C22         4.7280   -1.3690    2.1560 c3        1 MRV     -0.164000
     18 C23         2.1660   -2.7160   -0.3670 c2        1 MRV     -0.247000
     19 C24         3.5150   -2.1120    1.6470 c3        1 MRV     -0.208000
     20 C25         2.0190    2.8200    1.1110 c2        1 MRV     -0.290000
     21 C26         3.0520    4.9600    0.7180 cx        1 MRV     -0.160000
     22 C27         1.2360    3.4660    0.2160 c2        1 MRV     -0.069000
     23 C28         3.2390    4.7310   -0.7410 cu        1 MRV     -0.516000
     24 C29         1.8480    4.7510   -0.2230 cx        1 MRV     -0.075000
     25 C3          9.6560   -0.3030   -2.4650 c1        1 MRV     -0.250000
     26 N3         13.8770    0.1550   -3.9520 n2        1 MRV     -0.106000
     27 C4         14.5270    0.1420   -5.2060 c2        1 MRV     -0.004000
     28 N4         12.6140    0.2340   -4.1220 n2        1 MRV      0.022000
     29 N5          4.5690    1.5200    0.4600 n4        1 MRV     -0.103000
     30 C5         14.1180   -1.1140   -8.2120 c3        1 MRV     -0.236000
     31 C6         10.7400   -0.3520   -1.9200 c1        1 MRV      0.001000
     32 C7         12.2940    0.2800   -5.4890 c2        1 MRV     -0.216000
     33 C8          6.7630    1.8710   -2.3380 c1        1 MRV     -0.101000
     34 C9          8.4480   -0.1410   -3.0570 c1        1 MRV      0.001000
     35 H1         12.8080    0.6140   -8.0770 h1        1 MRV      0.115000
     36 H2          5.4210    3.4410    0.7610 hx        1 MRV      0.145000
     37 H3          4.8270    4.2360   -2.7640 hn        1 MRV      0.253000
     38 H4         16.2470    0.2260   -6.4870 hc        1 MRV      0.100000
     39 H5          5.2560    5.8710   -1.0290 hx        1 MRV      0.135667
     40 H6          6.5960    4.7580   -0.4270 hx        1 MRV      0.135667
     41 H7          3.4940    2.7470   -1.6120 hx        1 MRV      0.112000
     42 H8         10.8730    0.3820   -7.0980 ha        1 MRV      0.068000
     43 H9         10.8810    2.7210   -6.3900 ha        1 MRV      0.011500
     44 H10        10.4340    2.6340   -5.8860 ha        1 MRV      0.011500
     45 H11         4.7710    0.2330    3.6330 hc        1 MRV      0.149000
     46 H12        16.3320    2.1290   -4.8330 hc        1 MRV      0.092000
     47 H13        16.5530    0.9400   -3.4820 hc        1 MRV      0.092000
     48 H14        17.8100    1.0760   -4.7830 hc        1 MRV      0.092000
     49 H16        13.3020   -1.8590   -8.0510 hc        1 MRV      0.098000
     50 H17        17.5930   -1.4040   -5.1720 hc        1 MRV      0.092000
     51 H18        16.2690   -1.5510   -3.9420 hc        1 MRV      0.092000
     52 H19        15.9910   -2.1120   -5.6460 hc        1 MRV      0.092000
     53 H20         0.2120   -1.9560    0.0500 ha        1 MRV      0.139000
     54 H21         3.3420    0.2910    2.5190 hc        1 MRV      0.149000
     55 H22         5.1190   -1.9230    3.0540 hc        1 MRV      0.117500
     56 H23         5.5390   -1.4040    1.3790 hc        1 MRV      0.117500
     57 H24         0.2860   -3.5830   -0.8460 ha        1 MRV      0.139000
     58 H25         2.7950   -3.4990   -0.8170 ha        1 MRV      0.159000
     59 H26         3.7860   -3.1940    1.5210 hc        1 MRV      0.131500
     60 H27         2.6740   -2.0480    2.3860 hc        1 MRV      0.131500
     61 H28         1.7880    1.8910    1.6330 ha        1 MRV      0.124000
     62 H29         3.6220    3.5940    2.4260 hc        1 MRV      0.113000
     63 H30         0.2560    3.1440   -0.1450 ha        1 MRV      0.147000
     64 H31         3.2640    5.8630    1.2890 hc        1 MRV      0.147000
     65 H32         1.1660    5.5590   -0.5250 hc        1 MRV      0.148000
     66 H33         6.6990    5.4630   -2.1100 hx        1 MRV      0.135667
     67 H34         3.6300    1.0970    0.3670 hn        1 MRV      0.264500
     68 H35        14.2650   -0.9780   -9.3110 hc        1 MRV      0.098000
     69 H36        15.0610   -1.5180   -7.7710 hc        1 MRV      0.098000
     70 H37        11.6970   -0.4000   -1.4540 ha        1 MRV      0.184500
     71 H38        14.5840    0.9760   -7.8430 h1        1 MRV      0.115000
     72 H39         7.4760    0.9840   -2.5980 ha        1 MRV      0.351000
     73 H40         8.6980    1.5030   -4.4440 ha        1 MRV      0.011500
     74 H41         9.1840    1.1490   -4.7780 ha        1 MRV      0.011500
     75 H42         8.1350   -0.8200   -3.8630 ha        1 MRV      0.184500
     76 C14        11.0110    0.3570   -6.0100 c1        1 MRV     -0.081000
     77 H52         5.1390    1.2320   -0.3500 hn        1 MRV      0.264500
     78 C10         6.0030    5.0770   -1.3210 c3        1 MRV     -0.180000
     79 C11        16.0100    0.0510   -5.3970 c3        1 MRV     -0.043000
@<TRIPOS>BOND
     1    1   10 1   
     2    2    8 1   
     3    3    4 1   
     4    3   30 1   
     5    3   35 1   
     6    3   71 1   
     7    4   27 1   
     8    4   32 1   
     9    5    6 1   
    10    5   13 1   
    11    5   23 1   
    12    5   41 1   
    13    6    7 1   
    14    6   29 1   
    15    6   36 1   
    16    7   20 1   
    17    7   21 1   
    18    7   62 1   
    19    8    9 1   
    20    8   29 1   
    21    9   17 1   
    22    9   45 1   
    23    9   54 1   
    24   10   12 1   
    25   10   18 1   
    26   10   19 1   
    27   11   46 1   
    28   11   47 1   
    29   11   48 1   
    30   11   79 1   
    31   13   14 1   
    32   13   37 1   
    33   13   78 1   
    34   14   33 1   
    35   15   50 1   
    36   15   51 1   
    37   15   52 1   
    38   15   79 1   
    39   16   18 1   
    40   16   53 1   
    41   16   57 1   
    42   17   19 1   
    43   17   55 1   
    44   17   56 1   
    45   18   58 1   
    46   19   59 1   
    47   19   60 1   
    48   20   22 1   
    49   20   61 1   
    50   21   23 1   
    51   21   24 1   
    52   21   64 1   
    53   22   24 1   
    54   22   63 1   
    55   23   24 1   
    56   24   65 1   
    57   25   31 1   
    58   25   34 1   
    59   26   27 1   
    60   26   28 1   
    61   27   79 1   
    62   28   32 1   
    63   29   67 1   
    64   29   77 1   
    65   30   49 1   
    66   30   68 1   
    67   30   69 1   
    68   31   70 1   
    69   32   76 1   
    70   33   72 1   
    71   34   75 1   
    72   38   79 1   
    73   39   78 1   
    74   40   78 1   
    75   42   76 1   
    76   43   44 1   
    77   66   78 1   
    78   73   74 1   
@<TRIPOS>SUBSTRUCTURE
     1 MRV         1 TEMP              0 ****  ****    0 ROOT
