@<TRIPOS>MOLECULE
MRV
   78    79     1     0     0
SMALL
bcc


@<TRIPOS>ATOM
      1 F1         -5.5690   -1.7970    5.4470 f         1 MRV     -0.175500
      2 O1         -2.3470    2.2440    3.5090 o         1 MRV     -0.374000
      3 C1          1.6720    1.2100   -3.0230 c3        1 MRV      0.046000
      4 N1          2.4990    0.5440   -3.9500 na        1 MRV     -0.169000
      5 C10        -1.0450   -0.0950    0.0330 c3        1 MRV     -0.078000
      6 C11         4.4310    2.2180   -4.1770 c3        1 MRV     -0.025000
      7 C12        -0.7840    0.5460    1.4390 c3        1 MRV     -0.179000
      8 C13        -0.9840   -0.5130    2.5280 c3        1 MRV      0.073000
      9 C14         1.7420   -1.8570   -5.3540 c3        1 MRV     -0.144000
     10 C15         0.3510   -0.8240    3.1840 c2        1 MRV     -0.094000
     11 C16        -2.7260    1.1210    3.2120 c1        1 MRV      0.306000
     12 C17        -4.1210    0.9180    2.6160 c2        1 MRV     -0.118000
     13 C18        -5.5900   -1.0160    4.3530 c3        1 MRV      0.263000
     14 C19         5.8320    1.7400   -3.7810 c3        1 MRV     -0.207500
     15 F2         -6.7910   -1.1330    3.7610 f         1 MRV     -0.175500
     16 N2         -0.1530    0.5220   -0.9620 n3        1 MRV     -0.220000
     17 C2         -0.5570    0.1890   -2.1890 c3        1 MRV     -0.038500
     18 C20         4.5390    3.2030   -5.3420 c3        1 MRV     -0.207500
     19 C21        -4.3630   -0.5690    2.2100 c3        1 MRV     -0.144000
     20 C22        -5.2300    1.3600    3.5970 c3        1 MRV     -0.144000
     21 C23        -4.5440   -1.4920    3.4060 c3        1 MRV     -0.202500
     22 C24        -5.4000    0.4080    4.7760 c3        1 MRV     -0.202500
     23 C25         0.5750   -2.1710    2.9060 c1        1 MRV     -0.119000
     24 C26         1.0230   -0.2100    4.2410 c2        1 MRV     -0.123000
     25 C27         1.4710   -2.9030    3.6830 c1        1 MRV     -0.124500
     26 C28         1.9180   -0.9430    5.0170 c1        1 MRV     -0.126000
     27 C29         2.1420   -2.2890    4.7380 c1        1 MRV     -0.124500
     28 C3          1.1040    0.1840   -0.7000 c3        1 MRV     -0.038500
     29 N3          3.8230    0.2150   -5.6530 n2        1 MRV     -0.087000
     30 C4          3.5840    1.0190   -4.6000 c2        1 MRV     -0.084000
     31 N4          2.8860   -0.7600   -5.6570 n2        1 MRV     -0.092000
     32 N5         -1.8920   -0.0240    3.5080 n3        1 MRV     -0.382000
     33 C5          0.1910    0.8470   -3.3350 c3        1 MRV     -0.156500
     34 C6          2.1550    0.8360   -1.5640 c3        1 MRV     -0.156500
     35 C7          2.0690   -0.5550   -4.6050 c2        1 MRV     -0.092000
     36 C8         -0.1490   -1.2900   -2.2030 c3        1 MRV     -0.190500
     37 C9          1.0660   -1.2960   -1.1140 c3        1 MRV     -0.190500
     38 H1          1.7850    2.1810   -3.1470 h1        1 MRV      0.120000
     39 H2         -1.9840    0.0580   -0.2280 h1        1 MRV      0.077500
     40 H3         -0.8710   -1.0590    0.0760 h1        1 MRV      0.077500
     41 H4          4.0080    2.6630   -3.4100 hc        1 MRV      0.092000
     42 H5          0.1350    0.8860    1.4780 hc        1 MRV      0.097000
     43 H6         -1.4160    1.2890    1.5840 hc        1 MRV      0.097000
     44 H7         -1.3470   -1.3300    2.1250 h1        1 MRV      0.097000
     45 H8          0.9790   -2.2970   -4.9260 hc        1 MRV      0.097667
     46 H9          1.5190   -1.6500   -6.2910 hc        1 MRV      0.097667
     47 H10         2.5250   -2.4580   -5.3270 hc        1 MRV      0.097667
     48 H11        -4.0820    1.5040    1.8290 ha        1 MRV      0.105000
     49 H12         6.3540    1.5520   -4.5900 hc        1 MRV      0.083500
     50 H13         5.7580    0.9180   -3.2380 hc        1 MRV      0.083500
     51 H14         6.2800    2.4380   -3.2570 hc        1 MRV      0.083500
     52 H16        -1.5310    0.2900   -2.2870 h1        1 MRV      0.109000
     53 H17         3.6430    3.5330   -5.5750 hc        1 MRV      0.083500
     54 H18         4.9330    2.7480   -6.1190 hc        1 MRV      0.083500
     55 H19         5.1100    3.9600   -5.0800 hc        1 MRV      0.083500
     56 H20        -5.1720   -0.6160    1.6480 hc        1 MRV      0.096000
     57 H21        -3.5960   -0.8800    1.6850 hc        1 MRV      0.096000
     58 H22        -5.0080    2.2550    3.9430 hc        1 MRV      0.096000
     59 H23        -6.0810    1.4120    3.1090 hc        1 MRV      0.096000
     60 H24        -4.7940   -2.3880    3.0800 hc        1 MRV      0.120000
     61 H25        -3.6910   -1.5570    3.8860 hc        1 MRV      0.120000
     62 H26        -4.5990    0.4640    5.3470 hc        1 MRV      0.120000
     63 H27        -6.1820    0.6890    5.2990 hc        1 MRV      0.120000
     64 H28         0.1040   -2.6030    2.1650 ha        1 MRV      0.132000
     65 H29         0.8660    0.7390    4.4370 ha        1 MRV      0.134000
     66 H30         1.6290   -3.8530    3.4860 ha        1 MRV      0.136500
     67 H31         2.3930   -0.5090    5.7620 ha        1 MRV      0.137000
     68 H32         2.7750   -2.8070    5.2870 ha        1 MRV      0.136500
     69 H33         1.3110    0.2810    0.2560 h1        1 MRV      0.109000
     70 H34        -1.8880   -0.3790    4.3520 hn        1 MRV      0.235000
     71 H35        -0.2860    1.6730   -3.5830 hc        1 MRV      0.095000
     72 H36         0.1770    0.2370   -4.1040 hc        1 MRV      0.095000
     73 H37         2.4580    1.6620   -1.1150 hc        1 MRV      0.095000
     74 H38         2.9160    0.2260   -1.6370 hc        1 MRV      0.095000
     75 H39        -0.8910   -1.8630   -1.9050 hc        1 MRV      0.091750
     76 H40         0.1730   -1.5580   -3.0900 hc        1 MRV      0.091750
     77 H41         0.8500   -1.8710   -0.3470 hc        1 MRV      0.091750
     78 H42         1.9120   -1.5650   -1.5320 hc        1 MRV      0.091750
@<TRIPOS>BOND
     1    1   13 1   
     2    2   11 1   
     3    3    4 1   
     4    3   33 1   
     5    3   34 1   
     6    3   38 1   
     7    4   30 1   
     8    4   35 1   
     9    5    7 1   
    10    5   16 1   
    11    5   39 1   
    12    5   40 1   
    13    6   14 1   
    14    6   18 1   
    15    6   30 1   
    16    6   41 1   
    17    7    8 1   
    18    7   42 1   
    19    7   43 1   
    20    8   10 1   
    21    8   32 1   
    22    8   44 1   
    23    9   35 1   
    24    9   45 1   
    25    9   46 1   
    26    9   47 1   
    27   10   23 1   
    28   10   24 1   
    29   11   32 1   
    30   12   19 1   
    31   12   20 1   
    32   12   48 1   
    33   13   15 1   
    34   13   21 1   
    35   13   22 1   
    36   14   49 1   
    37   14   50 1   
    38   14   51 1   
    39   16   17 1   
    40   16   28 1   
    41   17   33 1   
    42   17   36 1   
    43   17   52 1   
    44   18   53 1   
    45   18   54 1   
    46   18   55 1   
    47   19   21 1   
    48   19   56 1   
    49   19   57 1   
    50   20   22 1   
    51   20   58 1   
    52   20   59 1   
    53   21   60 1   
    54   21   61 1   
    55   22   62 1   
    56   22   63 1   
    57   23   64 1   
    58   24   26 1   
    59   24   65 1   
    60   25   27 1   
    61   25   66 1   
    62   26   67 1   
    63   27   68 1   
    64   28   34 1   
    65   28   37 1   
    66   28   69 1   
    67   29   30 1   
    68   29   31 1   
    69   31   35 1   
    70   32   70 1   
    71   33   71 1   
    72   33   72 1   
    73   34   73 1   
    74   34   74 1   
    75   36   37 1   
    76   36   75 1   
    77   36   76 1   
    78   37   77 1   
    79   37   78 1   
@<TRIPOS>SUBSTRUCTURE
     1 MRV         1 TEMP              0 ****  ****    0 ROOT
