@<TRIPOS>MOLECULE
MRW
   18    19     1     0     0
SMALL
bcc


@<TRIPOS>ATOM
      1 O1         -0.0200    0.1360   -0.1150 oh        1 MRW     -0.489100
      2 C2          1.3470    0.1050   -0.0120 ca        1 MRW      0.180100
      3 C3          2.0220    0.1200    1.1940 ca        1 MRW     -0.355300
      4 C4          3.4480    0.0850    1.1570 ca        1 MRW      0.450200
      5 N5          4.1730    0.0400    0.0530 nb        1 MRW     -0.678000
      6 C6          3.5030    0.0250   -1.1590 ca        1 MRW      0.424600
      7 C7          4.2540   -0.0240   -2.3770 ca        1 MRW     -0.174300
      8 C8          3.5970   -0.0380   -3.5860 ca        1 MRW      0.035400
      9 Cl9         4.4890   -0.0960   -5.0340 cl        1 MRW     -0.087400
     10 C10         2.1820   -0.0070   -3.6640 ca        1 MRW     -0.137000
     11 C11         1.4400    0.0400   -2.5100 ca        1 MRW     -0.077000
     12 C12         2.0780    0.0570   -1.2450 ca        1 MRW     -0.168300
     13 H1         -0.3890    0.1670    0.7810 ho        1 MRW      0.429000
     14 H2          1.5000    0.1560    2.1560 ha        1 MRW      0.147000
     15 H3          4.0120    0.0950    2.1090 h4        1 MRW      0.025100
     16 H4          5.3550   -0.0490   -2.3250 ha        1 MRW      0.167000
     17 H5          1.6920   -0.0200   -4.6490 ha        1 MRW      0.152000
     18 H6          0.3390    0.0660   -2.5420 ha        1 MRW      0.155000
@<TRIPOS>BOND
     1    1    2 1   
     2    1   13 1   
     3    2    3 ar  
     4    2   12 ar  
     5    3    4 ar  
     6    3   14 1   
     7    4    5 ar  
     8    4   15 1   
     9    5    6 ar  
    10    6    7 ar  
    11    6   12 ar  
    12    7    8 ar  
    13    7   16 1   
    14    8    9 1   
    15    8   10 ar  
    16   10   11 ar  
    17   10   17 1   
    18   11   12 ar  
    19   11   18 1   
@<TRIPOS>SUBSTRUCTURE
     1 MRW         1 TEMP              0 ****  ****    0 ROOT
