@<TRIPOS>MOLECULE
MRW
   18    19     1     0     0
SMALL
bcc


@<TRIPOS>ATOM
      1 O1         -0.0170    0.1730   -0.1130 oh        1 MRW     -0.489100
      2 C2          1.3490    0.1190   -0.0110 ca        1 MRW      0.180100
      3 C3          2.0250    0.1160    1.1940 ca        1 MRW     -0.355300
      4 C4          3.4500    0.0570    1.1560 ca        1 MRW      0.450200
      5 N5          4.1730    0.0050    0.0520 nb        1 MRW     -0.678000
      6 C6          3.5030    0.0080   -1.1600 ca        1 MRW      0.424600
      7 C7          4.2520   -0.0470   -2.3780 ca        1 MRW     -0.174300
      8 C8          3.5940   -0.0450   -3.5870 ca        1 MRW      0.035400
      9 CL9         4.4840   -0.1110   -5.0360 cl        1 MRW     -0.087400
     10 C10         2.1790    0.0110   -3.6640 ca        1 MRW     -0.137000
     11 C11         1.4400    0.0650   -2.5090 ca        1 MRW     -0.077000
     12 C12         2.0780    0.0640   -1.2450 ca        1 MRW     -0.168300
     13 H1         -0.3860    0.2060    0.7830 ho        1 MRW      0.429000
     14 H2          1.5040    0.1570    2.1570 ha        1 MRW      0.147000
     15 H3          4.0150    0.0530    2.1080 h4        1 MRW      0.025100
     16 H4          5.3520   -0.0910   -2.3270 ha        1 MRW      0.167000
     17 H5          1.6880    0.0110   -4.6490 ha        1 MRW      0.152000
     18 H6          0.3390    0.1090   -2.5410 ha        1 MRW      0.155000
@<TRIPOS>BOND
     1    1    2 1   
     2    1   13 1   
     3    2    3 ar  
     4    2   12 ar  
     5    3    4 ar  
     6    3   14 1   
     7    4    5 ar  
     8    4   15 1   
     9    5    6 ar  
    10    6    7 ar  
    11    6   12 ar  
    12    7    8 ar  
    13    7   16 1   
    14    8    9 1   
    15    8   10 ar  
    16   10   11 ar  
    17   10   17 1   
    18   11   12 ar  
    19   11   18 1   
@<TRIPOS>SUBSTRUCTURE
     1 MRW         1 TEMP              0 ****  ****    0 ROOT
