@<TRIPOS>MOLECULE
MRX
   36    38     1     0     0
SMALL
bcc


@<TRIPOS>ATOM
      1 BR          0.1520    0.4610    0.5880 br        1 MRX     -0.023100
      2 C6          2.0010    0.4470    0.3240 ca        1 MRX     -0.022900
      3 C1          2.8520    0.2650    1.3980 ca        1 MRX     -0.071000
      4 C5          2.5030    0.6200   -0.9950 ca        1 MRX     -0.052000
      5 C4          3.8540    0.6000   -1.2650 ca        1 MRX     -0.132000
      6 C3          4.7350    0.4140   -0.1770 ca        1 MRX     -0.010200
      7 N9          6.1190    0.3300   -0.1400 na        1 MRX     -0.111400
      8 C8          6.5130    0.1200    1.1870 cc        1 MRX     -0.084300
      9 C18         7.9490   -0.0380    1.4350 c         1 MRX      0.570300
     10 N20         8.3830   -0.9440    2.5420 n4        1 MRX     -0.736400
     11 O19         8.8570    0.4610    0.7780 o         1 MRX     -0.424100
     12 C7          5.3820    0.1030    2.0390 cd        1 MRX     -0.307300
     13 C2          4.2410    0.2620    1.1700 ca        1 MRX     -0.049800
     14 S10         5.1840    0.0050    3.7290 sy        1 MRX      1.553800
     15 O16         4.1170   -0.8590    3.9980 o         1 MRX     -0.676300
     16 O17         6.4690   -0.4180    4.1880 o         1 MRX     -0.676300
     17 N11         4.8830    1.4940    4.1870 n3        1 MRX     -0.842500
     18 C15         3.5440    2.0170    4.4240 c3        1 MRX      0.224300
     19 C14         3.6790    3.3980    5.0800 c3        1 MRX     -0.082400
     20 C13         5.1710    3.7110    5.1210 c3        1 MRX     -0.082400
     21 C12         5.8850    2.4990    4.5020 c3        1 MRX      0.224300
     22 H1          2.4680    0.0890    2.4190 ha        1 MRX      0.181000
     23 H5          1.7890    0.7660   -1.8260 ha        1 MRX      0.175000
     24 H4          4.2360    0.7230   -2.2900 ha        1 MRX      0.165000
     25 HN9         6.7350    0.4330   -0.9110 hn        1 MRX      0.333700
     26 H201        9.3280   -1.2990    2.3640 hn        1 MRX      0.488800
     27 H202        8.3730   -0.4220    3.4410 hn        1 MRX      0.488800
     28 H151        2.9970    2.1010    3.4420 h1        1 MRX      0.052950
     29 H152        2.9760    1.3070    5.0880 h1        1 MRX      0.052950
     30 H141        3.1220    4.1640    4.4860 hc        1 MRX      0.069200
     31 H142        3.2460    3.3800    6.1110 hc        1 MRX      0.069200
     32 H131        5.4060    4.6350    4.5380 hc        1 MRX      0.069200
     33 H132        5.5190    3.8680    6.1720 hc        1 MRX      0.069200
     34 H121        6.4230    2.8050    3.5610 h1        1 MRX      0.052950
     35 H122        6.6360    2.0680    5.2210 h1        1 MRX      0.052950
     36 H203        7.7190   -1.7210    2.6560 hn        1 MRX      0.488800
@<TRIPOS>BOND
     1    1    2 1   
     2    2    3 ar  
     3    2    4 ar  
     4    3   13 ar  
     5    3   22 1   
     6    4    5 ar  
     7    4   23 1   
     8    5    6 ar  
     9    5   24 1   
    10    6    7 1   
    11    6   13 ar  
    12    7    8 1   
    13    7   25 1   
    14    8    9 1   
    15    8   12 2   
    16    9   10 1   
    17    9   11 2   
    18   10   26 1   
    19   10   27 1   
    20   10   36 1   
    21   12   13 1   
    22   12   14 1   
    23   14   15 2   
    24   14   16 2   
    25   14   17 1   
    26   17   18 1   
    27   17   21 1   
    28   18   19 1   
    29   18   28 1   
    30   18   29 1   
    31   19   20 1   
    32   19   30 1   
    33   19   31 1   
    34   20   21 1   
    35   20   32 1   
    36   20   33 1   
    37   21   34 1   
    38   21   35 1   
@<TRIPOS>SUBSTRUCTURE
     1 MRX         1 TEMP              0 ****  ****    0 ROOT
