@<TRIPOS>MOLECULE
MRX
   35    28     1     0     0
SMALL
bcc


@<TRIPOS>ATOM
      1 BR         -4.8760   -0.6500   -2.3680 br        1 MRX      0.060000
      2 C6         -3.0230   -1.0000   -2.3590 c1        1 MRX     -0.177000
      3 C1         -2.2350   -0.8790   -1.2400 c1        1 MRX     -0.065000
      4 C5         -2.4280   -1.1410   -3.6310 c1        1 MRX     -0.110500
      5 C4         -1.0890   -1.1580   -3.7500 c1        1 MRX     -0.110500
      6 C3         -0.2660   -1.0330   -2.5930 c1        1 MRX     -0.002000
      7 N9          1.0910   -1.0770   -2.4270 n1        1 MRX     -0.158000
      8 C8          1.3590   -0.9670   -1.0820 c1        1 MRX      0.095000
      9 C18         2.8520   -1.0630   -0.6340 c1        1 MRX      0.327000
     10 N20         3.8520   -1.3540   -1.5820 n2        1 MRX     -0.390000
     11 O19         3.1470   -0.9680    0.5750 o         1 MRX     -0.367000
     12 C7          0.1750   -0.8560   -0.4240 c1        1 MRX     -0.887000
     13 C2         -0.8390   -0.8970   -1.3620 c1        1 MRX     -0.014000
     14 S10        -0.0420   -0.9880    1.3260 ss        1 MRX      2.897000
     15 O16        -1.1640   -1.7830    1.6500 o         1 MRX     -0.947000
     16 O17         1.0570   -1.7780    1.9440 o         1 MRX     -0.947000
     17 N11        -0.1600    0.5380    2.0160 n2        1 MRX     -0.852000
     18 C15         0.5760    1.0300    3.3160 c3        1 MRX     -0.007000
     19 C14         0.6760    2.4150    3.2060 c3        1 MRX     -0.161500
     20 C13        -0.4970    2.8340    2.3280 c3        1 MRX     -0.161500
     21 C12        -1.0820    1.4910    1.7210 c3        1 MRX     -0.007000
     22 H1         -2.6110   -0.8100   -0.4410 ha        1 MRX      0.191000
     23 H5         -3.0280   -1.1200   -4.4920 ha        1 MRX      0.148000
     24 H4         -0.7160   -1.2470   -4.5600 ha        1 MRX      0.148000
     25 HN9         1.7330   -1.1410   -3.1170 DU        1 MRX      0.273000
     26 H201        3.8150   -1.0060   -2.3590 hn        1 MRX      0.252000
     27 H202        4.4110   -1.9260   -1.4200 hn        1 MRX      0.252000
     28 H151        0.0560    0.7940    4.1060 h1        1 MRX      0.086750
     29 H152        1.5170    0.6070    3.3710 h1        1 MRX      0.086750
     30 H141        1.6120    2.6890    2.7400 hc        1 MRX      0.093500
     31 H142        0.5950    2.8540    4.1380 hc        1 MRX      0.093500
     32 H131       -1.1870    3.2890    2.8790 hc        1 MRX      0.093500
     33 H132       -0.1770    3.4500    1.5790 hc        1 MRX      0.093500
     34 H121       -1.1810    1.5680    0.8170 h1        1 MRX      0.086750
     35 H122       -1.9200    1.2820    2.1280 h1        1 MRX      0.086750
@<TRIPOS>BOND
     1    1    2 1   
     2    2    3 1   
     3    3   22 1   
     4    4    5 1   
     5    4   23 1   
     6    5   24 1   
     7    6   13 1   
     8    7    8 1   
     9    8   12 1   
    10    9   11 1   
    11   10   26 1   
    12   10   27 1   
    13   12   13 1   
    14   14   15 1   
    15   14   16 1   
    16   17   18 1   
    17   17   21 1   
    18   18   19 1   
    19   18   28 1   
    20   18   29 1   
    21   19   20 1   
    22   19   30 1   
    23   19   31 1   
    24   20   21 1   
    25   20   32 1   
    26   20   33 1   
    27   21   34 1   
    28   21   35 1   
@<TRIPOS>SUBSTRUCTURE
     1 MRX         1 TEMP              0 ****  ****    0 ROOT
