@<TRIPOS>MOLECULE
MRX
   36    38     1     0     0
SMALL
bcc


@<TRIPOS>ATOM
      1 Br          0.1990    0.3870    0.4960 br        1 MRX     -0.023100
      2 C6          2.0520    0.4180    0.2630 ca        1 MRX     -0.022900
      3 C1          2.8890    0.2370    1.3490 ca        1 MRX     -0.071000
      4 C5          2.5720    0.6250   -1.0440 ca        1 MRX     -0.052000
      5 C4          3.9280    0.6400   -1.2920 ca        1 MRX     -0.132000
      6 C3          4.7940    0.4550   -0.1910 ca        1 MRX     -0.010200
      7 N9          6.1780    0.4010   -0.1320 na        1 MRX     -0.111400
      8 C8          6.5560    0.1760    1.1980 cc        1 MRX     -0.084300
      9 C18         7.9890    0.0460    1.4680 c         1 MRX      0.570300
     10 N20         8.4250   -0.8700    2.5660 nz        1 MRX     -0.736400
     11 O19         8.8980    0.5770    0.8350 o         1 MRX     -0.424100
     12 C7          5.4110    0.1200    2.0290 cd        1 MRX     -0.307300
     13 C2          4.2810    0.2680    1.1440 ca        1 MRX     -0.049800
     14 S10         5.1870   -0.0120    3.7150 sy        1 MRX      1.553800
     15 O16         4.1350   -0.9040    3.9510 o         1 MRX     -0.676300
     16 O17         6.4730   -0.4140    4.1880 o         1 MRX     -0.676300
     17 N11         4.8440    1.4620    4.1920 n3        1 MRX     -0.842500
     18 C15         3.4890    1.9500    4.4160 c3        1 MRX      0.224300
     19 C14         3.5830    3.3220    5.0980 c3        1 MRX     -0.082400
     20 C13         5.0660    3.6680    5.1680 c3        1 MRX     -0.082400
     21 C12         5.8170    2.4840    4.5400 c3        1 MRX      0.224300
     22 H1          2.4910    0.0350    2.3600 ha        1 MRX      0.181000
     23 H5          1.8690    0.7700   -1.8840 ha        1 MRX      0.175000
     24 H4          4.3230    0.7890   -2.3070 ha        1 MRX      0.165000
     25 HN9         6.8050    0.5310   -0.8900 hn        1 MRX      0.333700
     26 H201        8.3890   -0.3630    3.4740 hn        1 MRX      0.488800
     27 H202        9.3810   -1.2000    2.3990 hn        1 MRX      0.488800
     28 H151        2.9560    2.0390    3.4280 h1        1 MRX      0.052950
     29 H152        2.9280    1.2160    5.0600 h1        1 MRX      0.052950
     30 H141        3.0170    4.0850    4.5090 hc        1 MRX      0.069200
     31 H142        3.1340    3.2760    6.1210 hc        1 MRX      0.069200
     32 H131        5.3940    3.8160    6.2260 hc        1 MRX      0.069200
     33 H132        5.2880    4.6080    4.6040 hc        1 MRX      0.069200
     34 H121        6.5670    2.0580    5.2630 h1        1 MRX      0.052950
     35 H122        6.3620    2.8180    3.6130 h1        1 MRX      0.052950
     36 H203        7.7770   -1.6630    2.6560 hn        1 MRX      0.488800
@<TRIPOS>BOND
     1    1    2 1   
     2    2    3 ar  
     3    2    4 ar  
     4    3   13 ar  
     5    3   22 1   
     6    4    5 ar  
     7    4   23 1   
     8    5    6 ar  
     9    5   24 1   
    10    6    7 1   
    11    6   13 ar  
    12    7    8 1   
    13    7   25 1   
    14    8    9 1   
    15    8   12 2   
    16    9   10 1   
    17    9   11 2   
    18   10   26 1   
    19   10   27 1   
    20   10   36 1   
    21   12   13 1   
    22   12   14 1   
    23   14   15 2   
    24   14   16 2   
    25   14   17 1   
    26   17   18 1   
    27   17   21 1   
    28   18   19 1   
    29   18   28 1   
    30   18   29 1   
    31   19   20 1   
    32   19   30 1   
    33   19   31 1   
    34   20   21 1   
    35   20   32 1   
    36   20   33 1   
    37   21   34 1   
    38   21   35 1   
@<TRIPOS>SUBSTRUCTURE
     1 MRX         1 TEMP              0 ****  ****    0 ROOT
