@<TRIPOS>MOLECULE
MRX
   36    38     1     0     0
SMALL
bcc


@<TRIPOS>ATOM
      1 BR          0.1500    0.5530    0.5680 br        1 MRX     -0.023100
      2 C6          2.0000    0.5030    0.3120 ca        1 MRX     -0.022900
      3 C1          2.8420    0.3060    1.3890 ca        1 MRX     -0.071000
      4 C5          2.5110    0.6650   -1.0060 ca        1 MRX     -0.052000
      5 C4          3.8620    0.6200   -1.2700 ca        1 MRX     -0.132000
      6 C3          4.7350    0.4180   -0.1780 ca        1 MRX     -0.010200
      7 N9          6.1160    0.3070   -0.1350 na        1 MRX     -0.111400
      8 C8          6.5010    0.0900    1.1940 cc        1 MRX     -0.084300
      9 C18         7.9320   -0.0950    1.4480 c         1 MRX      0.570300
     10 N20         8.3440   -1.0090    2.5580 n4        1 MRX     -0.736400
     11 O19         8.8530    0.3870    0.7950 o         1 MRX     -0.424100
     12 C7          5.3660    0.0960    2.0410 cd        1 MRX     -0.307300
     13 C2          4.2320    0.2760    1.1670 ca        1 MRX     -0.049800
     14 S10         5.1600    0.0020    3.7310 sy        1 MRX      1.553800
     15 O16         4.0750   -0.8410    3.9960 o         1 MRX     -0.676300
     16 O17         6.4340   -0.4450    4.1950 o         1 MRX     -0.676300
     17 N11         4.8840    1.4980    4.1860 n3        1 MRX     -0.842500
     18 C15         3.5540    2.0440    4.4190 c3        1 MRX      0.224300
     19 C14         3.7130    3.4240    5.0750 c3        1 MRX     -0.082400
     20 C13         5.2100    3.7090    5.1190 c3        1 MRX     -0.082400
     21 C12         5.9030    2.4840    4.5030 c3        1 MRX      0.224300
     22 H1          2.4500    0.1380    2.4090 ha        1 MRX      0.181000
     23 H5          1.8030    0.8250   -1.8390 ha        1 MRX      0.175000
     24 H4          4.2500    0.7350   -2.2930 ha        1 MRX      0.165000
     25 HN9         6.7370    0.3990   -0.9030 hn        1 MRX      0.333700
     26 H201        9.2830   -1.3810    2.3840 hn        1 MRX      0.488800
     27 H202        7.6650   -1.7720    2.6690 hn        1 MRX      0.488800
     28 H151        3.0110    2.1380    3.4360 h1        1 MRX      0.052950
     29 H152        2.9710    1.3450    5.0830 h1        1 MRX      0.052950
     30 H141        3.1710    4.1990    4.4790 hc        1 MRX      0.069200
     31 H142        3.2760    3.4140    6.1050 hc        1 MRX      0.069200
     32 H131        5.5580    3.8610    6.1700 hc        1 MRX      0.069200
     33 H132        5.4620    4.6280    4.5360 hc        1 MRX      0.069200
     34 H121        6.4490    2.7790    3.5640 h1        1 MRX      0.052950
     35 H122        6.6450    2.0400    5.2240 h1        1 MRX      0.052950
     36 H203        8.3410   -0.4860    3.4560 hn        1 MRX      0.488800
@<TRIPOS>BOND
     1    1    2 1   
     2    2    3 ar  
     3    2    4 ar  
     4    3   13 ar  
     5    3   22 1   
     6    4    5 ar  
     7    4   23 1   
     8    5    6 ar  
     9    5   24 1   
    10    6    7 1   
    11    6   13 ar  
    12    7    8 1   
    13    7   25 1   
    14    8    9 1   
    15    8   12 2   
    16    9   10 1   
    17    9   11 2   
    18   10   26 1   
    19   10   27 1   
    20   10   36 1   
    21   12   13 1   
    22   12   14 1   
    23   14   15 2   
    24   14   16 2   
    25   14   17 1   
    26   17   18 1   
    27   17   21 1   
    28   18   19 1   
    29   18   28 1   
    30   18   29 1   
    31   19   20 1   
    32   19   30 1   
    33   19   31 1   
    34   20   21 1   
    35   20   32 1   
    36   20   33 1   
    37   21   34 1   
    38   21   35 1   
@<TRIPOS>SUBSTRUCTURE
     1 MRX         1 TEMP              0 ****  ****    0 ROOT
