@<TRIPOS>MOLECULE
MRX
   35    37     1     0     0
SMALL
bcc


@<TRIPOS>ATOM
      1 BR          4.4150    0.5250   -0.5180 br        1 MRX     -0.080100
      2 C6          2.9280   -0.4730    0.0340 ca        1 MRX     -0.036900
      3 C1          1.6560   -0.1010   -0.3860 ca        1 MRX     -0.065000
      4 C5          3.1320   -1.5910    0.8700 ca        1 MRX     -0.090000
      5 C4          2.0730   -2.3690    1.3050 ca        1 MRX     -0.131000
      6 C3          0.7830   -2.0030    0.8900 ca        1 MRX     -0.047200
      7 N9         -0.4590   -2.5930    1.1490 na        1 MRX     -0.135400
      8 C8         -1.4380   -1.8520    0.5090 cc        1 MRX      0.048700
      9 C18        -2.8730   -2.2650    0.6670 c         1 MRX      0.652300
     10 N20        -3.6230   -2.4340   -0.4580 n         1 MRX     -0.630000
     11 O19        -3.3180   -2.5140    1.8090 o         1 MRX     -0.606100
     12 C7         -0.8720   -0.7650   -0.1880 cd        1 MRX     -0.424300
     13 C2          0.5620   -0.8590    0.0440 ca        1 MRX     -0.025800
     14 S10        -1.5980    0.4340   -1.0890 sy        1 MRX      1.551800
     15 O16        -0.6130    1.1450   -1.8070 o         1 MRX     -0.667800
     16 O17        -2.6180   -0.1700   -1.8700 o         1 MRX     -0.667800
     17 N11        -2.2730    1.3970    0.0180 n3        1 MRX     -0.832500
     18 C15        -1.6130    2.5370    0.6210 c3        1 MRX      0.229800
     19 C14        -2.6080    3.2220    1.5730 c3        1 MRX     -0.082900
     20 C13        -3.8730    2.3700    1.5520 c3        1 MRX     -0.082900
     21 C12        -3.6040    1.2260    0.5610 c3        1 MRX      0.229800
     22 H1          1.4950    0.7620   -1.0580 ha        1 MRX      0.191000
     23 H5          4.1550   -1.8550    1.1830 ha        1 MRX      0.151000
     24 H4          2.2380   -3.2430    1.9510 ha        1 MRX      0.145000
     25 HN9        -0.6290   -3.3510    1.7620 hn        1 MRX      0.322700
     26 H201       -3.3120   -2.0880   -1.3400 hn        1 MRX      0.338500
     27 H202       -4.5880   -2.6390   -0.3510 hn        1 MRX      0.338500
     28 H151       -0.7020    2.1960    1.1880 h1        1 MRX      0.047450
     29 H152       -1.2760    3.2470   -0.1860 h1        1 MRX      0.047450
     30 H141       -2.1790    3.2810    2.6030 hc        1 MRX      0.054200
     31 H142       -2.8190    4.2630    1.2270 hc        1 MRX      0.054200
     32 H131       -4.0970    1.9580    2.5660 hc        1 MRX      0.054200
     33 H132       -4.7550    2.9700    1.2200 hc        1 MRX      0.054200
     34 H121       -4.3570    1.2380   -0.2750 h1        1 MRX      0.047450
     35 H122       -3.6780    0.2290    1.0850 h1        1 MRX      0.047450
@<TRIPOS>BOND
     1    1    2 1   
     2    2    3 ar  
     3    2    4 ar  
     4    3   13 ar  
     5    3   22 1   
     6    4    5 ar  
     7    4   23 1   
     8    5    6 ar  
     9    5   24 1   
    10    6    7 1   
    11    6   13 ar  
    12    7    8 1   
    13    7   25 1   
    14    8    9 1   
    15    8   12 2   
    16    9   10 1   
    17    9   11 2   
    18   10   26 1   
    19   10   27 1   
    20   12   13 1   
    21   12   14 1   
    22   14   15 2   
    23   14   16 2   
    24   14   17 1   
    25   17   18 1   
    26   17   21 1   
    27   18   19 1   
    28   18   28 1   
    29   18   29 1   
    30   19   20 1   
    31   19   30 1   
    32   19   31 1   
    33   20   21 1   
    34   20   32 1   
    35   20   33 1   
    36   21   34 1   
    37   21   35 1   
@<TRIPOS>SUBSTRUCTURE
     1 MRX         1 TEMP              0 ****  ****    0 ROOT
