@<TRIPOS>MOLECULE
MRY
   18    17     1     0     0
SMALL
bcc


@<TRIPOS>ATOM
      1 OAB        -0.0250    0.0390    0.1370 oh        1 MRY     -0.617800
      2 CAA         1.3890   -0.0210    0.0230 c3        1 MRY      0.095400
      3 CAC         1.9350    0.0390    1.4520 c3        1 MRY      0.146100
      4 OAD         1.4810   -1.0640    2.2220 oh        1 MRY     -0.609800
      5 CAE         3.4700   -0.0410    1.4330 c3        1 MRY      0.146100
      6 OAF         3.9250    1.0620    0.6630 oh        1 MRY     -0.609800
      7 CAG         4.0170    0.0190    2.8620 c3        1 MRY      0.095400
      8 OAH         5.4310   -0.0400    2.7480 oh        1 MRY     -0.617800
      9 HAB        -0.3750    0.0550   -0.7610 ho        1 MRY      0.410000
     10 HAA1        1.6910   -0.9830   -0.4700 h1        1 MRY      0.046700
     11 HAA2        1.7800    0.8490   -0.5670 h1        1 MRY      0.046700
     12 HAC         1.6040    0.9980    1.9400 h1        1 MRY      0.058700
     13 HAD         0.5240   -1.1100    2.0930 ho        1 MRY      0.425000
     14 HAE         3.8020   -0.9990    0.9450 h1        1 MRY      0.058700
     15 HAF         4.8820    1.1080    0.7920 ho        1 MRY      0.425000
     16 HAG1        3.6250   -0.8500    3.4510 h1        1 MRY      0.046700
     17 HAG2        3.7150    0.9810    3.3550 h1        1 MRY      0.046700
     18 HAH         5.7810   -0.0570    3.6460 ho        1 MRY      0.410000
@<TRIPOS>BOND
     1    1    2 1   
     2    1    9 1   
     3    2    3 1   
     4    2   10 1   
     5    2   11 1   
     6    3    4 1   
     7    3    5 1   
     8    3   12 1   
     9    4   13 1   
    10    5    6 1   
    11    5    7 1   
    12    5   14 1   
    13    6   15 1   
    14    7    8 1   
    15    7   16 1   
    16    7   17 1   
    17    8   18 1   
@<TRIPOS>SUBSTRUCTURE
     1 MRY         1 TEMP              0 ****  ****    0 ROOT
