@<TRIPOS>MOLECULE
MRY
   18    17     1     0     0
SMALL
bcc


@<TRIPOS>ATOM
      1 OAB         0.9300   -0.6210    2.3890 oh        1 MRY     -0.617800
      2 CAA         0.3130    0.5350    1.8420 c3        1 MRY      0.111400
      3 CAC        -0.4650    0.0590    0.6080 c3        1 MRY      0.112600
      4 OAD        -1.5530    0.9330    0.3830 oh        1 MRY     -0.596800
      5 CAE         0.4650   -0.0580   -0.6080 c3        1 MRY      0.112600
      6 OAF         1.5540   -0.9320   -0.3820 oh        1 MRY     -0.596800
      7 CAG        -0.3130   -0.5350   -1.8420 c3        1 MRY      0.111400
      8 OAH        -0.9310    0.6200   -2.3890 oh        1 MRY     -0.617800
      9 HAB         1.5140   -0.3190    3.0920 ho        1 MRY      0.411000
     10 HAA1        1.0870    1.2950    1.5590 h1        1 MRY      0.041950
     11 HAA2       -0.3970    0.9820    2.5880 h1        1 MRY      0.041950
     12 HAC        -0.9280   -0.9450    0.8370 h1        1 MRY      0.073200
     13 HAD        -1.3270    1.5160   -0.3560 ho        1 MRY      0.423500
     14 HAE         0.9270    0.9460   -0.8370 h1        1 MRY      0.073200
     15 HAF         1.3270   -1.5160    0.3550 ho        1 MRY      0.423500
     16 HAG1       -1.0860   -1.2960   -1.5580 h1        1 MRY      0.041950
     17 HAG2        0.3970   -0.9820   -2.5880 h1        1 MRY      0.041950
     18 HAH        -1.5150    0.3170   -3.0920 ho        1 MRY      0.411000
@<TRIPOS>BOND
     1    1    2 1   
     2    1    9 1   
     3    2    3 1   
     4    2   10 1   
     5    2   11 1   
     6    3    4 1   
     7    3    5 1   
     8    3   12 1   
     9    4   13 1   
    10    5    6 1   
    11    5    7 1   
    12    5   14 1   
    13    6   15 1   
    14    7    8 1   
    15    7   16 1   
    16    7   17 1   
    17    8   18 1   
@<TRIPOS>SUBSTRUCTURE
     1 MRY         1 TEMP              0 ****  ****    0 ROOT
