@<TRIPOS>MOLECULE
MRY
   18    17     1     0     0
SMALL
bcc


@<TRIPOS>ATOM
      1 OAB        -2.6700   -0.0200   -1.4260 oh        1 MRY     -0.617800
      2 CAA        -1.2590   -0.0200   -1.4260 c3        1 MRY      0.095400
      3 CAC        -0.7550   -0.0200   -0.0000 c3        1 MRY      0.146100
      4 OAD        -1.1940   -1.1870    0.6530 oh        1 MRY     -0.609800
      5 CAE         0.7550    0.0200    0.0000 c3        1 MRY      0.146100
      6 OAF         1.1940    1.1880   -0.6520 oh        1 MRY     -0.609800
      7 CAG         1.2590    0.0190    1.4260 c3        1 MRY      0.095400
      8 OAH         2.6700    0.0210    1.4260 oh        1 MRY     -0.617800
      9 HAB        -2.9660    0.0560   -2.2590 ho        1 MRY      0.410000
     10 HAA1       -0.9340   -0.8170   -1.8860 h1        1 MRY      0.046700
     11 HAA2       -0.9340    0.7770   -1.8860 h1        1 MRY      0.046700
     12 HAC        -1.1020    0.7640    0.4670 h1        1 MRY      0.058700
     13 HAD        -1.9250   -1.0060    1.1240 ho        1 MRY      0.425000
     14 HAE         1.1020   -0.7630   -0.4680 h1        1 MRY      0.058700
     15 HAF         1.9240    1.0080   -1.1230 ho        1 MRY      0.425000
     16 HAG1        0.9330    0.8150    1.8870 h1        1 MRY      0.046700
     17 HAG2        0.9350   -0.7790    1.8850 h1        1 MRY      0.046700
     18 HAH         2.9660   -0.0560    2.2590 ho        1 MRY      0.410000
@<TRIPOS>BOND
     1    1    2 1   
     2    1    9 1   
     3    2    3 1   
     4    2   10 1   
     5    2   11 1   
     6    3    4 1   
     7    3    5 1   
     8    3   12 1   
     9    4   13 1   
    10    5    6 1   
    11    5    7 1   
    12    5   14 1   
    13    6   15 1   
    14    7    8 1   
    15    7   16 1   
    16    7   17 1   
    17    8   18 1   
@<TRIPOS>SUBSTRUCTURE
     1 MRY         1 TEMP              0 ****  ****    0 ROOT
