@<TRIPOS>MOLECULE
MRZ
   23    23     1     0     0
SMALL
bcc


@<TRIPOS>ATOM
      1 C1          0.2820   -0.1210   -0.1880 c3        1 MRZ     -0.088400
      2 C6          1.6730    0.1920    0.3240 c3        1 MRZ     -0.113400
      3 C5          1.7250    0.1690    1.8490 c3        1 MRZ      0.159300
      4 N4          1.1260   -1.0000    2.4890 nh        1 MRZ     -0.730600
      5 C3         -0.1840   -1.3530    1.9410 c3        1 MRZ      0.159300
      6 C2         -0.2560   -1.4010    0.4170 c3        1 MRZ     -0.113400
      7 C7          2.0220   -2.1200    2.6120 c2        1 MRZ      0.670100
      8 N8          1.9170   -2.7290    4.0070 n4        1 MRZ     -0.815600
      9 N9          2.8990   -2.6770    1.8570 n2        1 MRZ     -0.734100
     10 H1          0.3060   -0.2150   -1.3060 hc        1 MRZ      0.070200
     11 H2         -0.4070    0.7290    0.0610 hc        1 MRZ      0.070200
     12 H3          1.9820    1.2140   -0.0200 hc        1 MRZ      0.063950
     13 H4          2.4100   -0.5360   -0.1050 hc        1 MRZ      0.063950
     14 H5          1.1350    1.0470    2.2480 h1        1 MRZ      0.076700
     15 H6          2.7900    0.2810    2.1960 h1        1 MRZ      0.076700
     16 H7         -0.8870   -0.5540    2.3190 h1        1 MRZ      0.076700
     17 H8         -0.5140   -2.3400    2.3670 h1        1 MRZ      0.076700
     18 H9         -1.3280   -1.5430    0.1180 hc        1 MRZ      0.063950
     19 H10         0.3210   -2.2810    0.0300 hc        1 MRZ      0.063950
     20 H11         2.5770   -3.5100    4.1130 hn        1 MRZ      0.473467
     21 H12         2.1280   -2.0020    4.6990 hn        1 MRZ      0.473467
     22 H13         3.0110   -2.3330    0.9240 hn        1 MRZ      0.483400
     23 H83         0.9600   -3.0650    4.1520 hn        1 MRZ      0.473467
@<TRIPOS>BOND
     1    1    2 1   
     2    1    6 1   
     3    1   10 1   
     4    1   11 1   
     5    2    3 1   
     6    2   12 1   
     7    2   13 1   
     8    3    4 1   
     9    3   14 1   
    10    3   15 1   
    11    4    5 1   
    12    4    7 1   
    13    5    6 1   
    14    5   16 1   
    15    5   17 1   
    16    6   18 1   
    17    6   19 1   
    18    7    8 1   
    19    7    9 2   
    20    8   20 1   
    21    8   21 1   
    22    8   23 1   
    23    9   22 1   
@<TRIPOS>SUBSTRUCTURE
     1 MRZ         1 TEMP              0 ****  ****    0 ROOT
