@<TRIPOS>MOLECULE
MRZ
   23    23     1     0     0
SMALL
bcc


@<TRIPOS>ATOM
      1 C1          0.2840   -0.1090   -0.1810 c3        1 MRZ     -0.088400
      2 C6          1.6780    0.1920    0.3260 c3        1 MRZ     -0.113400
      3 C5          1.7350    0.1640    1.8520 c3        1 MRZ      0.159300
      4 N4          1.1290   -1.0040    2.4890 nh        1 MRZ     -0.730600
      5 C3         -0.1850   -1.3450    1.9450 c3        1 MRZ      0.159300
      6 C2         -0.2620   -1.3870    0.4210 c3        1 MRZ     -0.113400
      7 C7          2.0180   -2.1310    2.6050 c2        1 MRZ      0.670100
      8 N8          1.9140   -2.7430    3.9980 nz        1 MRZ     -0.815600
      9 N9          2.8890   -2.6900    1.8450 n2        1 MRZ     -0.734100
     10 H1         -0.3990    0.7450    0.0730 hc        1 MRZ      0.070200
     11 H2          0.3020   -0.1990   -1.3000 hc        1 MRZ      0.070200
     12 H3          2.4090   -0.5390   -0.1080 hc        1 MRZ      0.063950
     13 H4          1.9930    1.2140   -0.0150 hc        1 MRZ      0.063950
     14 H5          2.8020    0.2660    2.1950 h1        1 MRZ      0.076700
     15 H6          1.1530    1.0440    2.2550 h1        1 MRZ      0.076700
     16 H7         -0.8810   -0.5420    2.3280 h1        1 MRZ      0.076700
     17 H8         -0.5200   -2.3310    2.3690 h1        1 MRZ      0.076700
     18 H9          0.3070   -2.2690    0.0290 hc        1 MRZ      0.063950
     19 H10        -1.3350   -1.5200    0.1250 hc        1 MRZ      0.063950
     20 H11         0.9550   -3.0730    4.1460 hn        1 MRZ      0.473467
     21 H12         2.5690   -3.5290    4.1000 hn        1 MRZ      0.473467
     22 H13         3.0000   -2.3440    0.9130 hn        1 MRZ      0.483400
     23 H83         2.1320   -2.0200    4.6930 hn        1 MRZ      0.473467
@<TRIPOS>BOND
     1    1    2 1   
     2    1    6 1   
     3    1   10 1   
     4    1   11 1   
     5    2    3 1   
     6    2   12 1   
     7    2   13 1   
     8    3    4 1   
     9    3   14 1   
    10    3   15 1   
    11    4    5 1   
    12    4    7 1   
    13    5    6 1   
    14    5   16 1   
    15    5   17 1   
    16    6   18 1   
    17    6   19 1   
    18    7    8 1   
    19    7    9 2   
    20    8   20 1   
    21    8   21 1   
    22    8   23 1   
    23    9   22 1   
@<TRIPOS>SUBSTRUCTURE
     1 MRZ         1 TEMP              0 ****  ****    0 ROOT
