@<TRIPOS>MOLECULE
MS0
   24    25     1     0     0
SMALL
bcc


@<TRIPOS>ATOM
      1 O1         -0.0570    2.5140   -0.1390 os        1 MS0     -0.229200
      2 C2         -0.7620    1.3230    0.0120 ca        1 MS0      0.085100
      3 C3          0.1300    0.2560    0.3470 ca        1 MS0     -0.122800
      4 C4          1.4610    0.8510    0.4150 cc        1 MS0     -0.016400
      5 C5          1.2970    2.1830    0.1140 cd        1 MS0     -0.096900
      6 C7          2.7030    0.1670    0.7860 c3        1 MS0     -0.160200
      7 C10         2.9870   -1.1150   -0.0360 c         1 MS0      0.922600
      8 O11         2.4200   -2.1870    0.3260 o         1 MS0     -0.838800
      9 O12         3.8060   -1.0300   -0.9900 o         1 MS0     -0.838800
     10 C14        -0.3710   -1.0310    0.5040 ca        1 MS0     -0.023000
     11 C16        -1.7440   -1.2330    0.3600 ca        1 MS0     -0.242000
     12 C18        -2.6000   -0.1620    0.0490 ca        1 MS0      0.122100
     13 C19        -2.1310    1.1500   -0.1400 ca        1 MS0     -0.183000
     14 O21        -3.9770   -0.2930   -0.0880 os        1 MS0     -0.342900
     15 C22        -4.4740   -1.6230   -0.1040 c3        1 MS0      0.120700
     16 H5          1.9680    3.0270    0.0070 h4        1 MS0      0.174000
     17 H7          3.5720    0.8630    0.6610 hc        1 MS0      0.040700
     18 H7A         2.6400   -0.1340    1.8650 hc        1 MS0      0.040700
     19 H14         0.3330   -1.8640    0.7080 ha        1 MS0      0.211000
     20 H16        -2.1450   -2.2480    0.4830 ha        1 MS0      0.127000
     21 H19        -2.8090    1.9700   -0.3950 ha        1 MS0      0.146000
     22 H22        -3.9790   -2.2280   -0.9020 h1        1 MS0      0.035033
     23 H22A       -4.3320   -2.1070    0.8930 h1        1 MS0      0.035033
     24 H22B       -5.5640   -1.4960   -0.3250 h1        1 MS0      0.035033
@<TRIPOS>BOND
     1    1    2 1   
     2    1    5 1   
     3    2    3 ar  
     4    2   13 ar  
     5    3    4 1   
     6    3   10 ar  
     7    4    5 2   
     8    4    6 1   
     9    5   16 1   
    10    6    7 1   
    11    6   17 1   
    12    6   18 1   
    13    7    8 1   
    14    7    9 1   
    15   10   11 ar  
    16   10   19 1   
    17   11   12 ar  
    18   11   20 1   
    19   12   13 ar  
    20   12   14 1   
    21   13   21 1   
    22   14   15 1   
    23   15   22 1   
    24   15   23 1   
    25   15   24 1   
@<TRIPOS>SUBSTRUCTURE
     1 MS0         1 TEMP              0 ****  ****    0 ROOT
