@<TRIPOS>MOLECULE
MS0
   24    25     1     0     0
SMALL
bcc


@<TRIPOS>ATOM
      1 O1          0.0010   -0.1310   -0.2160 os        1 MS0     -0.229200
      2 C2          1.3800   -0.0960   -0.0220 ca        1 MS0      0.085100
      3 C3          1.6830    0.0240    1.3710 ca        1 MS0     -0.122800
      4 C4          0.3980    0.0500    2.0620 cc        1 MS0     -0.016400
      5 C5         -0.5630   -0.0380    1.0810 cd        1 MS0     -0.096900
      6 C7          0.1890    0.1010    3.5110 c3        1 MS0     -0.160200
      7 C10         0.9340    1.2630    4.2160 c         1 MS0      0.922600
      8 O11         2.1520    1.0920    4.5100 o         1 MS0     -0.838800
      9 O12         0.2700    2.2950    4.5020 o         1 MS0     -0.838800
     10 C14         3.0100    0.1160    1.7770 ca        1 MS0     -0.023000
     11 C16         4.0090    0.0540    0.8050 ca        1 MS0     -0.242000
     12 C18         3.6820   -0.0830   -0.5560 ca        1 MS0      0.122100
     13 C19         2.3530   -0.1570   -1.0100 ca        1 MS0     -0.183000
     14 O21         4.6290   -0.1700   -1.5690 os        1 MS0     -0.342900
     15 C22         5.9700    0.0960   -1.1880 c3        1 MS0      0.120700
     16 H5         -1.6460   -0.0320    1.0750 h4        1 MS0      0.174000
     17 H7          0.5610   -0.8570    3.9640 hc        1 MS0      0.040700
     18 H7A        -0.9040    0.1980    3.7350 hc        1 MS0      0.040700
     19 H14         3.2360    0.2660    2.8530 ha        1 MS0      0.211000
     20 H16         5.0580    0.1260    1.1200 ha        1 MS0      0.127000
     21 H19         2.1150   -0.2500   -2.0740 ha        1 MS0      0.146000
     22 H22         6.5310    0.0740   -2.1560 h1        1 MS0      0.035033
     23 H22A        6.0590    1.1000   -0.7050 h1        1 MS0      0.035033
     24 H22B        6.3490   -0.6990   -0.5000 h1        1 MS0      0.035033
@<TRIPOS>BOND
     1    1    2 1   
     2    1    5 1   
     3    2    3 ar  
     4    2   13 ar  
     5    3    4 1   
     6    3   10 ar  
     7    4    5 2   
     8    4    6 1   
     9    5   16 1   
    10    6    7 1   
    11    6   17 1   
    12    6   18 1   
    13    7    8 1   
    14    7    9 1   
    15   10   11 ar  
    16   10   19 1   
    17   11   12 ar  
    18   11   20 1   
    19   12   13 ar  
    20   12   14 1   
    21   13   21 1   
    22   14   15 1   
    23   15   22 1   
    24   15   23 1   
    25   15   24 1   
@<TRIPOS>SUBSTRUCTURE
     1 MS0         1 TEMP              0 ****  ****    0 ROOT
