@<TRIPOS>MOLECULE
MS0
   24    19     1     0     0
SMALL
bcc


@<TRIPOS>ATOM
      1 O1         -2.2290   -0.0180   -0.9550 os        1 MS0     -0.141000
      2 C2         -0.8840   -0.0760   -0.9270 c1        1 MS0      0.035000
      3 C3         -0.4740   -0.0540    0.4200 c1        1 MS0     -0.107000
      4 C4         -1.6420    0.0220    1.2250 c1        1 MS0     -0.092000
      5 C5         -2.7120    0.0430    0.4000 c1        1 MS0     -0.040000
      6 C7         -1.8750    0.0140    2.7790 c2        1 MS0     -0.180000
      7 C10        -2.0340    1.4290    3.2680 c2        1 MS0      0.337000
      8 O11        -1.3420    1.8340    4.1140 o         1 MS0     -0.580500
      9 O12        -2.8250    2.1420    2.7630 o         1 MS0     -0.580500
     10 C14         0.8630   -0.0720    0.7260 c1        1 MS0     -0.059000
     11 C16         1.8110   -0.1110   -0.2980 c1        1 MS0     -0.231000
     12 C18         1.4020   -0.1300   -1.5940 c1        1 MS0      0.065000
     13 C19         0.0260   -0.1120   -1.9050 c1        1 MS0     -0.162000
     14 O21         2.2320    0.1890   -2.8140 os        1 MS0     -0.222000
     15 C22         3.1850   -0.7990   -3.1320 c3        1 MS0     -0.069000
     16 H5         -3.6540   -0.0650    0.6810 DU        1 MS0      0.237000
     17 H7         -1.0550   -0.4260    3.2500 ha        1 MS0      0.078500
     18 H7A        -2.7690   -0.5500    3.0120 ha        1 MS0      0.078500
     19 H14         1.1370    0.0100    1.6090 ha        1 MS0      0.138000
     20 H16         2.8320   -0.1270   -0.0720 ha        1 MS0      0.122000
     21 H19        -0.2780   -0.1250   -2.8880 ha        1 MS0      0.150000
     22 H22         2.8660   -1.6220   -2.8780 h1        1 MS0      0.074000
     23 H22A        4.0610   -0.6000   -2.6380 h1        1 MS0      0.074000
     24 H22B        3.3580   -0.7960   -4.1460 h1        1 MS0      0.074000
@<TRIPOS>BOND
     1    1    2 1   
     2    1    5 1   
     3    2   13 1   
     4    3   10 1   
     5    4    5 1   
     6    6    7 1   
     7    6   17 1   
     8    6   18 1   
     9    7    8 1   
    10    7    9 1   
    11   10   19 1   
    12   11   12 1   
    13   11   20 1   
    14   12   14 1   
    15   13   21 1   
    16   14   15 1   
    17   15   22 1   
    18   15   23 1   
    19   15   24 1   
@<TRIPOS>SUBSTRUCTURE
     1 MS0         1 TEMP              0 ****  ****    0 ROOT
