@<TRIPOS>MOLECULE
MS2
   38    39     1     0     0
SMALL
bcc


@<TRIPOS>ATOM
      1 C           0.1260    0.3830    0.1640 c3        1 MS2     -0.099100
      2 BR1        11.1570   -0.6680    3.1750 br        1 MS2     -0.024100
      3 C1          9.3200   -0.9850    3.2610 ca        1 MS2      0.003100
      4 C2A         8.7410   -1.9850    2.4720 ca        1 MS2     -0.096500
      5 C3A         7.3680   -2.2200    2.5330 ca        1 MS2     -0.105000
      6 C4          6.5650   -1.4610    3.3910 ca        1 MS2     -0.172300
      7 C3B         7.1440   -0.4630    4.1830 ca        1 MS2     -0.105000
      8 C2B         8.5150   -0.2250    4.1180 ca        1 MS2     -0.096500
      9 C5          5.0950   -1.7500    3.4720 c3        1 MS2      0.202800
     10 C6          4.6640   -2.0810    4.8940 c3        1 MS2     -0.123100
     11 N1          4.3300   -0.5580    2.9230 n4        1 MS2     -0.674800
     12 C7          2.9530   -0.8750    2.4230 c         1 MS2      0.595100
     13 O1          2.4770   -1.9720    2.6790 o         1 MS2     -0.407100
     14 C8          2.2750    0.2210    1.6650 cx        1 MS2     -0.245700
     15 C9A         2.7400    0.4050    0.2190 cx        1 MS2      0.116800
     16 CL15        4.0570   -0.6020   -0.2990 cl        1 MS2     -0.049900
     17 CL16        2.8220    1.9560   -0.4990 cl        1 MS2     -0.049900
     18 C17         1.4220   -0.2670    0.4920 cx        1 MS2     -0.006700
     19 O9B         2.5850    1.3000    3.9330 o         1 MS2     -0.535200
     20 S9B         1.5870    1.4020    2.8300 s4        1 MS2      0.390600
     21 C12         1.8040    2.9820    2.2040 c3        1 MS2     -0.167800
     22 H1          0.1270    1.4770    0.3940 hc        1 MS2      0.073033
     23 H2         -0.7030   -0.1050    0.7350 hc        1 MS2      0.073033
     24 H3         -0.0820    0.2570   -0.9300 hc        1 MS2      0.073033
     25 H3A         6.9280   -3.0160    1.9130 ha        1 MS2      0.145000
     26 H3B         6.5260    0.1290    4.8770 ha        1 MS2      0.145000
     27 H2B         8.9600    0.5610    4.7520 ha        1 MS2      0.169500
     28 H5          4.8360   -2.6270    2.8010 hx        1 MS2      0.110700
     29 H61         4.8390   -1.2270    5.5930 hc        1 MS2      0.079700
     30 H62         3.5840   -2.3680    4.9240 hc        1 MS2      0.079700
     31 H63         5.2730   -2.9520    5.2460 hc        1 MS2      0.079700
     32 H99         4.2310    0.1500    3.6810 hn        1 MS2      0.480800
     33 H17         1.3820   -1.3730    0.3430 hc        1 MS2      0.131700
     34 H121        1.1670    3.1740    1.3070 h1        1 MS2      0.119367
     35 H122        2.8480    3.2820    1.9490 h1        1 MS2      0.119367
     36 H123        1.4710    3.7010    3.0020 h1        1 MS2      0.119367
     37 H12         4.8720   -0.1390    2.1570 hn        1 MS2      0.480800
     38 H2A         9.3650   -2.5980    1.7990 ha        1 MS2      0.169500
@<TRIPOS>BOND
     1    1   18 1   
     2    1   22 1   
     3    1   23 1   
     4    1   24 1   
     5    2    3 1   
     6    3    4 ar  
     7    3    8 ar  
     8    4    5 ar  
     9    4   38 1   
    10    5    6 ar  
    11    5   25 1   
    12    6    7 ar  
    13    6    9 1   
    14    7    8 ar  
    15    7   26 1   
    16    8   27 1   
    17    9   10 1   
    18    9   11 1   
    19    9   28 1   
    20   10   29 1   
    21   10   30 1   
    22   10   31 1   
    23   11   12 1   
    24   11   32 1   
    25   11   37 1   
    26   12   13 2   
    27   12   14 1   
    28   14   15 1   
    29   14   18 1   
    30   14   20 1   
    31   15   16 1   
    32   15   17 1   
    33   15   18 1   
    34   18   33 1   
    35   19   20 2   
    36   20   21 1   
    37   21   34 1   
    38   21   35 1   
    39   21   36 1   
@<TRIPOS>SUBSTRUCTURE
     1 MS2         1 TEMP              0 ****  ****    0 ROOT
