@<TRIPOS>MOLECULE
MS2
   38    39     1     0     0
SMALL
bcc


@<TRIPOS>ATOM
      1 C           0.0490   -0.2440    0.0560 c3        1 MS2     -0.099100
      2 BR1        10.7160   -2.1060    3.8740 br        1 MS2     -0.024100
      3 C1          9.2870   -2.1860    2.6760 ca        1 MS2      0.003100
      4 C2A         9.0710   -1.1440    1.7680 ca        1 MS2     -0.096500
      5 C3A         8.0010   -1.2020    0.8760 ca        1 MS2     -0.105000
      6 C4          7.1430   -2.3060    0.8810 ca        1 MS2     -0.172300
      7 C3B         7.3620   -3.3510    1.7870 ca        1 MS2     -0.105000
      8 C2B         8.4270   -3.2910    2.6810 ca        1 MS2     -0.096500
      9 C5          6.0190   -2.3700   -0.1090 c3        1 MS2      0.202800
     10 C6          6.0960   -3.6240   -0.9700 c3        1 MS2     -0.123100
     11 N1          4.7000   -2.2930    0.6410 n4        1 MS2     -0.674800
     12 C7          3.5450   -1.7940   -0.1740 c         1 MS2      0.595100
     13 O1          3.6840   -1.6970   -1.3850 o         1 MS2     -0.407100
     14 C8          2.3010   -1.4830    0.5950 cx        1 MS2     -0.245700
     15 C9A         2.3150   -0.1570    1.3570 cx        1 MS2      0.116800
     16 CL15        3.8010    0.7400    1.3150 cl        1 MS2     -0.049900
     17 CL16        1.5320    0.0080    2.8700 cl        1 MS2     -0.049900
     18 C17         1.5360   -0.2650    0.0750 cx        1 MS2     -0.006700
     19 O9B         2.5610   -3.9590    1.0460 o         1 MS2     -0.535200
     20 S9B         1.4170   -3.0110    0.9240 s4        1 MS2      0.390600
     21 C12         0.7570   -2.9350    2.5040 c3        1 MS2     -0.167800
     22 H1         -0.3270   -0.6670   -0.9100 hc        1 MS2      0.073033
     23 H2         -0.3060    0.8160    0.1360 hc        1 MS2      0.073033
     24 H3         -0.3970   -0.8250    0.9000 hc        1 MS2      0.073033
     25 H3A         7.8490   -0.3780    0.1610 ha        1 MS2      0.145000
     26 H3B         6.7050   -4.2350    1.7890 ha        1 MS2      0.145000
     27 H2B         8.5910   -4.1230    3.3870 ha        1 MS2      0.169500
     28 H5          6.0490   -1.4620   -0.7880 hx        1 MS2      0.110700
     29 H61         6.0090   -4.5550   -0.3600 hc        1 MS2      0.079700
     30 H62         7.0930   -3.6310   -1.4810 hc        1 MS2      0.079700
     31 H63         5.2970   -3.6180   -1.7520 hc        1 MS2      0.079700
     32 H99         4.4540   -3.2470    0.9790 hn        1 MS2      0.480800
     33 H17         1.9690    0.2410   -0.8210 hc        1 MS2      0.131700
     34 H121        1.4710   -2.7360    3.3370 h1        1 MS2      0.119367
     35 H122        0.3110   -3.9440    2.7240 h1        1 MS2      0.119367
     36 H123       -0.0710   -2.1900    2.5820 h1        1 MS2      0.119367
     37 H12         4.8180   -1.6800    1.4580 hn        1 MS2      0.480800
     38 H2A         9.7470   -0.2710    1.7480 ha        1 MS2      0.169500
@<TRIPOS>BOND
     1    1   18 1   
     2    1   22 1   
     3    1   23 1   
     4    1   24 1   
     5    2    3 1   
     6    3    4 ar  
     7    3    8 ar  
     8    4    5 ar  
     9    4   38 1   
    10    5    6 ar  
    11    5   25 1   
    12    6    7 ar  
    13    6    9 1   
    14    7    8 ar  
    15    7   26 1   
    16    8   27 1   
    17    9   10 1   
    18    9   11 1   
    19    9   28 1   
    20   10   29 1   
    21   10   30 1   
    22   10   31 1   
    23   11   12 1   
    24   11   32 1   
    25   11   37 1   
    26   12   13 2   
    27   12   14 1   
    28   14   15 1   
    29   14   18 1   
    30   14   20 1   
    31   15   16 1   
    32   15   17 1   
    33   15   18 1   
    34   18   33 1   
    35   19   20 2   
    36   20   21 1   
    37   21   34 1   
    38   21   35 1   
    39   21   36 1   
@<TRIPOS>SUBSTRUCTURE
     1 MS2         1 TEMP              0 ****  ****    0 ROOT
