@<TRIPOS>MOLECULE
MS2
   37    38     1     0     0
SMALL
bcc


@<TRIPOS>ATOM
      1 C           5.6910   -0.2450    0.2240 c3        1 MS2     -0.088100
      2 BR1        -5.8830   -0.1700   -1.2410 br        1 MS2     -0.088100
      3 C1         -4.1970   -0.6120   -0.5550 ca        1 MS2     -0.024900
      4 C2A        -3.8930   -0.3430    0.7830 ca        1 MS2     -0.104000
      5 C3A        -2.6360   -0.6700    1.2910 ca        1 MS2     -0.120500
      6 C4         -1.6790   -1.2750    0.4710 ca        1 MS2     -0.076300
      7 C3B        -1.9870   -1.5400   -0.8670 ca        1 MS2     -0.120500
      8 C2B        -3.2400   -1.2110   -1.3800 ca        1 MS2     -0.104000
      9 C5         -0.3290   -1.6430    1.0400 c3        1 MS2      0.136000
     10 C6         -0.1420   -3.1610    0.9640 c3        1 MS2     -0.120100
     11 N1          0.7240   -0.8800    0.3840 n         1 MS2     -0.527900
     12 C7          1.9800   -0.8140    0.9660 c         1 MS2      0.702100
     13 O1          2.2000   -1.2690    2.1060 o         1 MS2     -0.590100
     14 C8          3.0690   -0.0960    0.1990 cx        1 MS2     -0.211700
     15 C9A         3.5880    1.2080    0.7950 cx        1 MS2      0.130800
     16 CL15        2.8200    1.8890    2.1750 cl        1 MS2     -0.082900
     17 CL16        4.1260    2.4460   -0.2980 cl        1 MS2     -0.082900
     18 C17         4.4020   -0.0490    0.9400 cx        1 MS2     -0.032700
     19 O9B         2.4760   -1.6080   -1.8220 o         1 MS2     -0.506200
     20 S9B         3.1340   -0.3020   -1.5500 s4        1 MS2      0.328600
     21 C12         1.9680    0.8700   -2.0920 c3        1 MS2     -0.145800
     22 H1          5.6420    0.1030   -0.8380 hc        1 MS2      0.056033
     23 H2          6.4990    0.3270    0.7440 hc        1 MS2      0.056033
     24 H3          5.9650   -1.3300    0.2290 hc        1 MS2      0.056033
     25 H3A        -2.4020   -0.4500    2.3440 ha        1 MS2      0.143500
     26 H3B        -1.2410   -2.0200   -1.5200 ha        1 MS2      0.143500
     27 H2B        -3.4700   -1.4280   -2.4350 ha        1 MS2      0.147500
     28 H5         -0.2960   -1.3510    2.1360 h1        1 MS2      0.083700
     29 H61         0.8180   -3.4490    1.4560 hc        1 MS2      0.051367
     30 H62        -0.9860   -3.6600    1.4960 hc        1 MS2      0.051367
     31 H63        -0.1260   -3.5140   -0.0950 hc        1 MS2      0.051367
     32 H99         0.6750   -0.8710   -0.6140 hn        1 MS2      0.312500
     33 H17         4.4020   -0.5200    1.9540 hc        1 MS2      0.137700
     34 H121        1.4880    1.4540   -1.2740 h1        1 MS2      0.097033
     35 H122        2.4850    1.6000   -2.7590 h1        1 MS2      0.097033
     36 H123        1.1490    0.3890   -2.6810 h1        1 MS2      0.097033
     37 H2A        -4.6380    0.1300    1.4410 ha        1 MS2      0.147500
@<TRIPOS>BOND
     1    1   18 1   
     2    1   22 1   
     3    1   23 1   
     4    1   24 1   
     5    2    3 1   
     6    3    4 ar  
     7    3    8 ar  
     8    4    5 ar  
     9    4   37 1   
    10    5    6 ar  
    11    5   25 1   
    12    6    7 ar  
    13    6    9 1   
    14    7    8 ar  
    15    7   26 1   
    16    8   27 1   
    17    9   10 1   
    18    9   11 1   
    19    9   28 1   
    20   10   29 1   
    21   10   30 1   
    22   10   31 1   
    23   11   12 1   
    24   11   32 1   
    25   12   13 2   
    26   12   14 1   
    27   14   15 1   
    28   14   18 1   
    29   14   20 1   
    30   15   16 1   
    31   15   17 1   
    32   15   18 1   
    33   18   33 1   
    34   19   20 2   
    35   20   21 1   
    36   21   34 1   
    37   21   35 1   
    38   21   36 1   
@<TRIPOS>SUBSTRUCTURE
     1 MS2         1 TEMP              0 ****  ****    0 ROOT
