@<TRIPOS>MOLECULE
MS2
   38    39     1     0     0
SMALL
bcc


@<TRIPOS>ATOM
      1 C           0.1130   -0.0440    0.1260 c3        1 MS2     -0.099100
      2 Br1        11.1730   -0.5750    3.1670 br        1 MS2     -0.024100
      3 C1          9.3320   -0.8230    3.3500 ca        1 MS2      0.003100
      4 C2A         8.5550    0.1390    4.0080 ca        1 MS2     -0.096500
      5 C3A         7.1820   -0.0460    4.1460 ca        1 MS2     -0.105000
      6 C4          6.5710   -1.1930    3.6250 ca        1 MS2     -0.172300
      7 C3B         7.3460   -2.1540    2.9670 ca        1 MS2     -0.105000
      8 C2B         8.7220   -1.9710    2.8330 ca        1 MS2     -0.096500
      9 C5          5.0980   -1.4220    3.7920 c3        1 MS2      0.202800
     10 C6          4.6860   -1.3920    5.2580 c3        1 MS2     -0.123100
     11 N1          4.3460   -0.3820    2.9810 ny        1 MS2     -0.674800
     12 C7          2.9550   -0.7810    2.5890 c         1 MS2      0.595100
     13 O1          2.4640   -1.7740    3.1070 o         1 MS2     -0.407100
     14 C8          2.2830    0.1140    1.5970 cx        1 MS2     -0.245700
     15 C9A         2.7280   -0.0660    0.1440 cx        1 MS2      0.116800
     16 Cl15        4.0180   -1.1950   -0.1320 cl        1 MS2     -0.049900
     17 Cl16        2.8260    1.2650   -0.9280 cl        1 MS2     -0.049900
     18 C17         1.4030   -0.6240    0.5870 cx        1 MS2     -0.006700
     19 O9B         2.6500    1.7010    3.5340 o         1 MS2     -0.535200
     20 S9B         1.6360    1.5560    2.4510 s4        1 MS2      0.390600
     21 C12         1.8700    2.9330    1.4600 c3        1 MS2     -0.167800
     22 H1         -0.7150   -0.3630    0.8090 hc        1 MS2      0.073033
     23 H2         -0.1150   -0.4260   -0.9030 hc        1 MS2      0.073033
     24 H3          0.1380    1.0720    0.0860 hc        1 MS2      0.073033
     25 H3A         6.5870    0.7090    4.6830 ha        1 MS2      0.145000
     26 H3B         6.8810   -3.0670    2.5620 ha        1 MS2      0.145000
     27 H2B         9.3230   -2.7410    2.3200 ha        1 MS2      0.169500
     28 H5          4.8120   -2.4290    3.3560 hx        1 MS2      0.110700
     29 H61         3.6010   -1.6390    5.3690 hc        1 MS2      0.079700
     30 H62         5.2850   -2.1650    5.8010 hc        1 MS2      0.079700
     31 H63         4.8880   -0.3980    5.7270 hc        1 MS2      0.079700
     32 H99         4.2710    0.4900    3.5470 hn        1 MS2      0.480800
     33 H17         1.3410   -1.7320    0.7090 hc        1 MS2      0.131700
     34 H121        1.5630    3.8300    2.0640 h1        1 MS2      0.119367
     35 H122        2.9150    3.1410    1.1280 h1        1 MS2      0.119367
     36 H123        1.2220    2.9170    0.5510 h1        1 MS2      0.119367
     37 H12         4.8820   -0.1720    2.1300 hn        1 MS2      0.480800
     38 H2A         9.0260    1.0450    4.4270 ha        1 MS2      0.169500
@<TRIPOS>BOND
     1    1   18 1   
     2    1   22 1   
     3    1   23 1   
     4    1   24 1   
     5    2    3 1   
     6    3    4 ar  
     7    3    8 ar  
     8    4    5 ar  
     9    4   38 1   
    10    5    6 ar  
    11    5   25 1   
    12    6    7 ar  
    13    6    9 1   
    14    7    8 ar  
    15    7   26 1   
    16    8   27 1   
    17    9   10 1   
    18    9   11 1   
    19    9   28 1   
    20   10   29 1   
    21   10   30 1   
    22   10   31 1   
    23   11   12 1   
    24   11   32 1   
    25   11   37 1   
    26   12   13 2   
    27   12   14 1   
    28   14   15 1   
    29   14   18 1   
    30   14   20 1   
    31   15   16 1   
    32   15   17 1   
    33   15   18 1   
    34   18   33 1   
    35   19   20 2   
    36   20   21 1   
    37   21   34 1   
    38   21   35 1   
    39   21   36 1   
@<TRIPOS>SUBSTRUCTURE
     1 MS2         1 TEMP              0 ****  ****    0 ROOT
