@<TRIPOS>MOLECULE
MS2
   37    36     1     0     0
SMALL
bcc


@<TRIPOS>ATOM
      1 C          -2.3970    2.0640   -1.6050 c3        1 MS2     -0.206000
      2 BR1         5.0750    4.3170    1.5260 br        1 MS2      0.057000
      3 C1          3.8660    2.8810    1.1500 c2        1 MS2     -0.163000
      4 C2A         4.3610    1.6150    0.8570 c2        1 MS2     -0.102000
      5 C3A         3.4830    0.5590    0.6290 c1        1 MS2     -0.111000
      6 C4          2.1080    0.7710    0.6960 c1        1 MS2     -0.094000
      7 C3B         1.6130    2.0380    0.9890 c1        1 MS2     -0.128000
      8 C2B         2.4920    3.0930    1.2160 c1        1 MS2     -0.104000
      9 C5          1.1520   -0.4040    0.5570 c3        1 MS2      0.051000
     10 C6          1.1020   -1.1690    1.8580 c3        1 MS2     -0.217000
     11 N1         -0.1570    0.0780    0.2370 n         1 MS2     -0.360000
     12 C7         -0.8540   -0.4330   -0.9340 c2        1 MS2      0.344000
     13 O1         -0.2810   -0.4850   -2.0100 o         1 MS2     -0.350000
     14 C8         -2.3930   -1.0330   -0.7860 cx        1 MS2     -0.579000
     15 C9A        -2.9400   -0.5820   -1.9040 cx        1 MS2     -0.004000
     16 CL15       -1.8190    0.0680   -3.0750 cl        1 MS2     -0.003500
     17 CL16       -4.3310   -1.4770   -2.4720 cl        1 MS2     -0.003500
     18 C17        -3.1440    0.1550   -0.8650 cx        1 MS2     -0.096000
     19 O9B        -2.1740   -2.4270    1.6320 o         1 MS2     -0.767000
     20 S9B        -2.1220   -2.5030    0.1950 s4        1 MS2      1.450000
     21 C12        -1.9710   -4.0950   -0.6080 c3        1 MS2     -0.689000
     22 H1         -2.0110    2.5730   -0.8620 hc        1 MS2      0.094333
     23 H2         -3.1380    2.5740   -2.0020 hc        1 MS2      0.094333
     24 H3         -1.7090    1.9040   -2.2840 hc        1 MS2      0.094333
     25 H2A         5.3310    1.4650    0.8100 ha        1 MS2      0.151000
     26 H3A         3.8320   -0.3350    0.4220 ha        1 MS2      0.148000
     27 H3B         0.6480    2.1880    1.0360 ha        1 MS2      0.133000
     28 H2B         2.1430    3.9860    1.4230 ha        1 MS2      0.148000
     29 H5          1.4660   -0.9990   -0.1600 h1        1 MS2      0.137000
     30 H61         0.7820   -0.5770    2.5740 hc        1 MS2      0.085333
     31 H62         2.0030   -1.4950    2.0810 hc        1 MS2      0.085333
     32 H63         0.4910   -1.9310    1.7660 hc        1 MS2      0.085333
     33 H99        -0.5790    0.6690    0.7990 hn        1 MS2      0.224000
     34 H17        -4.0950    0.1080   -0.6230 hc        1 MS2      0.173000
     35 H121       -1.6510   -4.7600    0.0410 h1        1 MS2      0.141000
     36 H122       -2.8480   -4.3710   -0.9540 h1        1 MS2      0.141000
     37 H123       -1.3330   -4.0270   -1.3500 h1        1 MS2      0.141000
@<TRIPOS>BOND
     1    1   18 1   
     2    1   22 1   
     3    1   23 1   
     4    1   24 1   
     5    2    3 1   
     6    3    4 1   
     7    3    8 1   
     8    4    5 1   
     9    4   25 1   
    10    5   26 1   
    11    6    7 1   
    12    6    9 1   
    13    7   27 1   
    14    8   28 1   
    15    9   10 1   
    16    9   11 1   
    17    9   29 1   
    18   10   30 1   
    19   10   31 1   
    20   10   32 1   
    21   11   12 1   
    22   11   33 1   
    23   12   13 1   
    24   12   14 1   
    25   14   15 1   
    26   14   18 1   
    27   14   20 1   
    28   15   16 1   
    29   15   17 1   
    30   15   18 1   
    31   18   34 1   
    32   19   20 1   
    33   20   21 1   
    34   21   35 1   
    35   21   36 1   
    36   21   37 1   
@<TRIPOS>SUBSTRUCTURE
     1 MS2         1 TEMP              0 ****  ****    0 ROOT
