@<TRIPOS>MOLECULE
MS4
   38    29     1     0     0
SMALL
bcc


@<TRIPOS>ATOM
      1 S2          4.8680   -2.9930   -0.7780 ss        1 MS4      2.832000
      2 O1          5.3330   -2.0780    0.3290 o         1 MS4     -0.925000
      3 O2          4.1180   -4.0440    0.0050 o         1 MS4     -0.925000
      4 O3          3.9560   -2.2720   -1.7370 o         1 MS4     -0.663000
      5 N1          6.1390   -3.6460   -1.5850 n2        1 MS4     -0.945000
      6 N3         -3.0660    5.4460   -0.3060 n2        1 MS4     -0.155000
      7 N4         -3.6140    3.8150    1.0190 n2        1 MS4     -0.126500
      8 N5         -3.3000    3.2910   -0.1780 n2        1 MS4     -0.126500
      9 N6          0.3580   -2.3750    3.1830 n1        1 MS4     -0.024000
     10 C1         -3.4690    5.1460    0.9390 c1        1 MS4     -0.119000
     11 C2         -2.9620    4.2990   -0.9960 c1        1 MS4     -0.119000
     12 C3         -2.7350    1.0060    0.2780 c1        1 MS4     -0.092000
     13 C4         -3.1260    0.6340    1.5550 c1        1 MS4     -0.100000
     14 C5         -2.3450   -0.2440    2.2900 c1        1 MS4     -0.100000
     15 C6         -1.1730   -0.7500    1.7490 c1        1 MS4      0.010000
     16 C7         -0.7830   -0.3780    0.4720 c1        1 MS4      0.006000
     17 C8         -1.5640    0.5000   -0.2630 c1        1 MS4     -0.115000
     18 C9         -0.3000   -1.6770    2.5670 c1        1 MS4     -0.101000
     19 CL          4.1810    0.4060   -0.4590 cl        1 MS4      0.005000
     20 C12         1.5600   -0.1050    0.0350 c1        1 MS4     -0.094000
     21 C13         2.7370   -0.5670   -0.5340 c1        1 MS4     -0.081000
     22 C14         2.7550   -1.7850   -1.1960 c2        1 MS4      0.144000
     23 C15         1.5960   -2.5410   -1.2890 c2        1 MS4     -0.169000
     24 C16         0.4200   -2.0780   -0.7200 c1        1 MS4     -0.081000
     25 CAO        -3.6000    1.9460   -0.5330 c2        1 MS4      0.035000
     26 CAV         0.4020   -0.8610   -0.0580 c1        1 MS4     -0.068000
     27 H11N        6.3740   -4.5180   -1.4400 hn        1 MS4      0.259500
     28 H12N        6.6210   -3.1350   -2.1700 hn        1 MS4      0.259500
     29 H1         -3.6290    5.7840    1.6600 DU        1 MS4      0.208500
     30 H2         -2.6880    4.2130   -1.9290 DU        1 MS4      0.208500
     31 HAO1       -3.4220    1.8120   -1.4870 ha        1 MS4      0.117000
     32 HAO2       -4.5440    1.7630   -0.3480 ha        1 MS4      0.117000
     33 H4         -3.9510    0.9900    1.9370 ha        1 MS4      0.156500
     34 H8         -1.2890    0.7620   -1.1630 ha        1 MS4      0.143000
     35 H5         -2.6190   -0.5060    3.1900 ha        1 MS4      0.156500
     36 H12         1.5470    0.7520    0.5020 ha        1 MS4      0.151000
     37 H15         1.6090   -3.3980   -1.7550 ha        1 MS4      0.171000
     38 H16        -0.3960   -2.6110   -0.7860 ha        1 MS4      0.149000
@<TRIPOS>BOND
     1    1    2 1   
     2    1    3 1   
     3    4   22 1   
     4    5   27 1   
     5    5   28 1   
     6    6   10 1   
     7    6   11 1   
     8    7    8 1   
     9    7   10 1   
    10    8   11 1   
    11    9   18 1   
    12   12   17 1   
    13   12   25 1   
    14   13   14 1   
    15   13   33 1   
    16   14   35 1   
    17   15   16 1   
    18   15   18 1   
    19   17   34 1   
    20   19   21 1   
    21   20   26 1   
    22   20   36 1   
    23   21   22 1   
    24   22   23 1   
    25   23   24 1   
    26   23   37 1   
    27   24   38 1   
    28   25   31 1   
    29   25   32 1   
@<TRIPOS>SUBSTRUCTURE
     1 MS4         1 TEMP              0 ****  ****    0 ROOT
