@<TRIPOS>MOLECULE
MS4
   38    40     1     0     0
SMALL
bcc


@<TRIPOS>ATOM
      1 S2         -5.3640   -0.8900   -0.9190 s6        1 MS4      1.718400
      2 O1         -5.1230   -1.0210   -2.2780 o         1 MS4     -0.634300
      3 O2         -6.3240   -1.6500   -0.2760 o         1 MS4     -0.634300
      4 O3         -3.9340   -1.5190   -0.2080 os        1 MS4     -0.471800
      5 N1         -5.3830    0.6240   -0.4770 n3        1 MS4     -1.041700
      6 N3          6.7360   -1.5560    1.8280 nc        1 MS4     -0.680000
      7 N4          6.7510   -0.1050    0.0310 nd        1 MS4     -0.524800
      8 N5          5.7350   -0.9780   -0.1040 na        1 MS4     -0.063400
      9 N6         -0.3030    3.6660   -0.4530 n1        1 MS4     -0.357800
     10 C1          7.3600   -0.4630    1.1960 cc        1 MS4      0.506900
     11 C2          5.7150   -1.8570    1.0030 cd        1 MS4      0.409400
     12 C3          3.6510    0.0510   -0.9750 ca        1 MS4     -0.098300
     13 C4          3.9330    1.4200   -0.9400 ca        1 MS4     -0.103000
     14 C5          2.8990    2.3390   -0.7910 ca        1 MS4     -0.093000
     15 C6          1.5720    1.8990   -0.6750 ca        1 MS4      0.002000
     16 C7          1.2810    0.5220   -0.7040 cp        1 MS4      0.003000
     17 C8          2.3330   -0.3920   -0.8570 ca        1 MS4     -0.113000
     18 C9          0.5350    2.8640   -0.5470 cg        1 MS4      0.233800
     19 C12        -0.8890    0.4100    0.5000 ca        1 MS4     -0.087000
     20 C13        -2.1930   -0.0770    0.6240 ca        1 MS4     -0.020600
     21 C14        -2.7010   -0.9650   -0.3450 ca        1 MS4      0.169100
     22 C15        -1.8930   -1.3570   -1.4280 ca        1 MS4     -0.143000
     23 C16        -0.5970   -0.8700   -1.5360 ca        1 MS4     -0.094000
     24 CAO         4.7570   -0.9460   -1.1740 c3        1 MS4      0.101600
     25 CAV        -0.0880    0.0200   -0.5780 cp        1 MS4     -0.064000
     26 H11N       -5.6780    0.9370    0.4170 hn        1 MS4      0.464300
     27 H12N       -5.0550    1.3730   -1.0390 hn        1 MS4      0.464300
     28 H1          8.2440    0.0350    1.6070 h5        1 MS4      0.073100
     29 H2          4.9780   -2.6560    1.1270 h5        1 MS4      0.072100
     30 HAO1        5.2870   -0.7030   -2.1420 h1        1 MS4      0.078200
     31 HAO2        4.3280   -1.9870   -1.2530 h1        1 MS4      0.078200
     32 H4          4.9730    1.7730   -1.0280 ha        1 MS4      0.163000
     33 H8          2.1030   -1.4690   -0.8810 ha        1 MS4      0.144000
     34 H5          3.1200    3.4180   -0.7650 ha        1 MS4      0.152000
     35 H12        -0.4890    1.1030    1.2580 ha        1 MS4      0.159000
     36 H15        -2.3060   -2.0480   -2.1790 ha        1 MS4      0.167000
     37 H16         0.0340   -1.1790   -2.3840 ha        1 MS4      0.144000
     38 CL         -3.1350    0.4200    1.9480 cl        1 MS4     -0.079400
@<TRIPOS>BOND
     1    1    2 2   
     2    1    3 2   
     3    1    4 1   
     4    1    5 1   
     5    4   21 1   
     6    5   26 1   
     7    5   27 1   
     8    6   10 1   
     9    6   11 2   
    10    7    8 1   
    11    7   10 2   
    12    8   11 1   
    13    8   24 1   
    14    9   18 3   
    15   10   28 1   
    16   11   29 1   
    17   12   13 ar  
    18   12   17 ar  
    19   12   24 1   
    20   13   14 ar  
    21   13   32 1   
    22   14   15 ar  
    23   14   34 1   
    24   15   16 ar  
    25   15   18 1   
    26   16   17 ar  
    27   16   25 1   
    28   17   33 1   
    29   19   20 ar  
    30   19   25 ar  
    31   19   35 1   
    32   20   21 ar  
    33   20   38 1   
    34   21   22 ar  
    35   22   23 ar  
    36   22   36 1   
    37   23   25 ar  
    38   23   37 1   
    39   24   30 1   
    40   24   31 1   
@<TRIPOS>SUBSTRUCTURE
     1 MS4         1 TEMP              0 ****  ****    0 ROOT
