@<TRIPOS>MOLECULE
MS4
   39    41     1     0     0
SMALL
bcc


@<TRIPOS>ATOM
      1 S2          0.0000    0.0000    0.0000 s6        1 MS4      1.253400
      2 O1          1.4210    0.0000    0.0000 o         1 MS4     -0.496800
      3 O2         -0.7770    0.0000    1.1890 o         1 MS4     -0.496800
      4 O3         -0.4300    1.2260   -0.7940 os        1 MS4     -0.311800
      5 N1         -0.4680   -1.3320   -0.8650 nz        1 MS4     -0.185500
      6 N3         -8.3820    6.8840   -3.6570 nc        1 MS4     -0.728000
      7 N4         -9.1170    5.7740   -1.9720 nd        1 MS4     -0.676800
      8 N5         -8.6780    4.8750   -2.9580 na        1 MS4      0.305600
      9 N6         -5.4020    1.3490    2.7550 n1        1 MS4     -0.349800
     10 C1         -8.9180    6.9780   -2.4410 cc        1 MS4      0.616900
     11 C2         -8.2330    5.6250   -3.9810 cd        1 MS4      0.275400
     12 C3         -7.9710    2.9590   -1.6490 ca        1 MS4     -0.093300
     13 C4         -8.6650    2.7990   -0.4600 ca        1 MS4     -0.051000
     14 C5         -8.0100    2.3790    0.6790 ca        1 MS4     -0.055000
     15 C6         -6.6400    2.1130    0.6390 ca        1 MS4      0.077000
     16 C7         -5.9370    2.2770   -0.5680 cp        1 MS4     -0.054000
     17 C8         -6.6160    2.7010   -1.7070 ca        1 MS4     -0.075000
     18 C9         -5.9560    1.6780    1.8190 cg        1 MS4      0.209800
     19 C12        -3.6260    2.5590    0.3210 ca        1 MS4     -0.053000
     20 C13        -2.2730    2.3000    0.2620 ca        1 MS4     -0.024600
     21 C14        -1.7630    1.4810   -0.7380 ca        1 MS4      0.032100
     22 C15        -2.6150    0.9220   -1.6820 ca        1 MS4     -0.089000
     23 C16        -3.9680    1.1780   -1.6300 ca        1 MS4     -0.108000
     24 CAV        -4.4830    2.0000   -0.6270 cp        1 MS4     -0.002000
     25 H11N       -0.4390   -1.2120   -1.8590 hn        1 MS4      0.325133
     26 H12N        0.1990   -2.0380   -0.6220 hn        1 MS4      0.325133
     27 H1         -8.9350    7.9570   -1.9770 h5        1 MS4      0.031100
     28 H2         -7.5300    5.6060   -4.8050 h5        1 MS4      0.052100
     29 HAO1       -7.7600    3.2380   -3.3950 h1        1 MS4      0.060700
     30 HAO2       -9.6670    3.3650   -3.3730 h1        1 MS4      0.060700
     31 H4         -9.6840    3.1650   -0.4890 ha        1 MS4      0.139000
     32 H8         -6.2460    2.6450   -2.7240 ha        1 MS4      0.119000
     33 H5         -8.7240    2.0440    1.4220 ha        1 MS4      0.132000
     34 H12        -3.8790    3.2410    1.1240 ha        1 MS4      0.148000
     35 H15        -2.3140    0.0920   -2.3100 ha        1 MS4      0.080000
     36 H16        -4.9480    0.9510   -2.0310 ha        1 MS4      0.164000
     37 H13        -1.4280   -1.5430   -0.6790 hn        1 MS4      0.325133
     38 Cl         -1.2040    2.9970    1.4400 cl        1 MS4      0.080600
     39 CAO        -8.7010    3.4130   -2.8860 c3        1 MS4      0.036600
@<TRIPOS>BOND
     1    1    2 2   
     2    1    3 2   
     3    1    4 1   
     4    1    5 1   
     5    4   21 1   
     6    5   25 1   
     7    5   26 1   
     8    5   37 1   
     9    6   10 1   
    10    6   11 2   
    11    7    8 1   
    12    7   10 2   
    13    8   11 1   
    14    8   39 1   
    15    9   18 3   
    16   10   27 1   
    17   11   28 1   
    18   12   13 ar  
    19   12   17 ar  
    20   12   39 1   
    21   13   14 ar  
    22   13   31 1   
    23   14   15 ar  
    24   14   33 1   
    25   15   16 ar  
    26   15   18 1   
    27   16   17 ar  
    28   16   24 1   
    29   17   32 1   
    30   19   20 ar  
    31   19   24 ar  
    32   19   34 1   
    33   20   21 ar  
    34   20   38 1   
    35   21   22 ar  
    36   22   23 ar  
    37   22   35 1   
    38   23   24 ar  
    39   23   36 1   
    40   29   39 1   
    41   30   39 1   
@<TRIPOS>SUBSTRUCTURE
     1 MS4         1 TEMP              0 ****  ****    0 ROOT
