@<TRIPOS>MOLECULE
MS4
   39    41     1     0     0
SMALL
bcc


@<TRIPOS>ATOM
      1 S2          0.1080   -0.2750    0.2910 s6        1 MS4      1.567400
      2 O1          1.2570    0.3870    0.6040 o         1 MS4     -0.539800
      3 O2         -0.7160   -0.9820    1.1130 o         1 MS4     -0.539800
      4 O3         -0.7230    0.5480   -0.8770 os        1 MS4     -0.436800
      5 N1          0.7460   -1.5990   -0.8860 n4        1 MS4     -0.796500
      6 N3         -8.5790    7.3210   -3.6350 nc        1 MS4     -0.670000
      7 N4         -9.6970    5.8610   -2.2380 nd        1 MS4     -0.525800
      8 N5         -8.8550    5.1700   -3.0320 na        1 MS4     -0.073400
      9 N6         -5.6730    1.5600    2.8610 n1        1 MS4     -0.335800
     10 C1         -9.5330    7.1600   -2.6100 cc        1 MS4      0.518900
     11 C2         -8.1610    6.0650   -3.8800 cd        1 MS4      0.409400
     12 C3         -7.9760    3.2850   -1.6900 ca        1 MS4     -0.089300
     13 C4         -8.6720    3.3310   -0.4780 ca        1 MS4     -0.077000
     14 C5         -8.0620    2.8900    0.6950 ca        1 MS4     -0.087000
     15 C6         -6.7470    2.4070    0.6660 ca        1 MS4      0.017000
     16 C7         -6.0380    2.3660   -0.5520 cp        1 MS4     -0.050000
     17 C8         -6.6660    2.8010   -1.7250 ca        1 MS4     -0.100000
     18 C9         -6.1480    1.9440    1.8710 cg        1 MS4      0.214800
     19 C12        -3.6860    2.4280    0.2440 ca        1 MS4     -0.080000
     20 C13        -2.3700    1.9660    0.2000 ca        1 MS4      0.003400
     21 C14        -2.0350    0.9480   -0.7150 ca        1 MS4      0.072100
     22 C15        -2.9980    0.3950   -1.5720 ca        1 MS4     -0.096000
     23 C16        -4.3020    0.8750   -1.5200 ca        1 MS4     -0.098000
     24 CAV        -4.6580    1.8820   -0.6090 cp        1 MS4      0.022000
     25 H11N        0.4410   -1.4210   -1.8440 hn        1 MS4      0.470133
     26 H12N        1.7670   -1.6210   -0.8930 hn        1 MS4      0.470133
     27 H1        -10.0830    8.0010   -2.1730 h5        1 MS4      0.081100
     28 H2         -7.4230    5.7480   -4.6230 h5        1 MS4      0.070100
     29 HAO1       -8.0220    3.4490   -3.8510 h1        1 MS4      0.078200
     30 HAO2       -9.6480    3.2230   -3.0370 h1        1 MS4      0.078200
     31 H4         -9.7030    3.7230   -0.4470 ha        1 MS4      0.176000
     32 H8         -6.1140    2.7710   -2.6770 ha        1 MS4      0.142000
     33 H5         -8.6130    2.9230    1.6490 ha        1 MS4      0.165000
     34 H12        -3.9650    3.2270    0.9550 ha        1 MS4      0.187000
     35 H15        -2.7160   -0.3880   -2.2910 ha        1 MS4      0.152000
     36 H16        -5.0660    0.4550   -2.1950 ha        1 MS4      0.168000
     37 H13         0.4140   -2.5270   -0.6220 hn        1 MS4      0.470133
     38 CL         -1.2070    2.6070    1.2500 cl        1 MS4     -0.039400
     39 CAO        -8.6460    3.7400   -2.9580 c3        1 MS4      0.102600
@<TRIPOS>BOND
     1    1    2 2   
     2    1    3 2   
     3    1    4 1   
     4    1    5 1   
     5    4   21 1   
     6    5   25 1   
     7    5   26 1   
     8    5   37 1   
     9    6   10 1   
    10    6   11 2   
    11    7    8 1   
    12    7   10 2   
    13    8   11 1   
    14    8   39 1   
    15    9   18 3   
    16   10   27 1   
    17   11   28 1   
    18   12   13 ar  
    19   12   17 ar  
    20   12   39 1   
    21   13   14 ar  
    22   13   31 1   
    23   14   15 ar  
    24   14   33 1   
    25   15   16 ar  
    26   15   18 1   
    27   16   17 ar  
    28   16   24 1   
    29   17   32 1   
    30   19   20 ar  
    31   19   24 ar  
    32   19   34 1   
    33   20   21 ar  
    34   20   38 1   
    35   21   22 ar  
    36   22   23 ar  
    37   22   35 1   
    38   23   24 ar  
    39   23   36 1   
    40   29   39 1   
    41   30   39 1   
@<TRIPOS>SUBSTRUCTURE
     1 MS4         1 TEMP              0 ****  ****    0 ROOT
