@<TRIPOS>MOLECULE
MS5
   48    50     1     0     0
SMALL
bcc


@<TRIPOS>ATOM
      1 OAE         5.8710   -1.1330   -0.8260 o         1 MS5     -0.642800
      2 SAZ         5.6270    0.0980   -0.2310 s6        1 MS5      1.716400
      3 OAD         6.5530    0.6610    0.6300 o         1 MS5     -0.642800
      4 NAC         5.0430    1.1240   -1.2800 n3        1 MS5     -1.039700
      5 OAR         4.3340   -0.2090    0.8450 os        1 MS5     -0.462800
      6 CAX         3.0240   -0.2650    0.4820 ca        1 MS5      0.133100
      7 CAJ         2.4080   -1.5090    0.3080 ca        1 MS5     -0.124000
      8 CAW         2.2540    0.9190    0.3760 ca        1 MS5      0.075100
      9 OAQ         2.9440    2.1160    0.4780 os        1 MS5     -0.352900
     10 CAB         2.1900    3.2120    0.9920 c3        1 MS5      0.119700
     11 CAK         0.8860    0.8390    0.1130 ca        1 MS5     -0.171000
     12 CAV         0.2780   -0.4100   -0.0510 ca        1 MS5     -0.058300
     13 CAO        -1.1900   -0.4450   -0.3540 c3        1 MS5      0.209100
     14 CAU         1.0370   -1.5830    0.0460 ca        1 MS5     -0.072300
     15 CAL         0.3860   -2.9110   -0.0970 c3        1 MS5     -0.033100
     16 CAM        -0.9650   -2.8220   -0.8050 c3        1 MS5      0.170800
     17 NAY        -1.8070   -1.7620   -0.2700 n3        1 MS5     -0.726600
     18 CAN        -3.1440   -1.7880   -0.8520 c3        1 MS5      0.214100
     19 CAS        -4.1080   -0.8250   -0.2200 ca        1 MS5     -0.060300
     20 CAI        -4.8880   -0.0070   -1.0370 ca        1 MS5     -0.156000
     21 CAG        -4.2660   -0.7820    1.1720 ca        1 MS5     -0.143000
     22 CAF        -5.2020    0.0760    1.7410 ca        1 MS5     -0.100000
     23 CAH        -5.9940    0.9000    0.9410 ca        1 MS5     -0.201000
     24 CAT        -5.8330    0.8530   -0.4480 ca        1 MS5      0.120100
     25 OAP        -6.5510    1.6200   -1.3470 os        1 MS5     -0.329900
     26 CAA        -7.5400    2.4780   -0.7890 c3        1 MS5      0.113700
     27 HAC1        4.8160    0.8920   -2.2170 hn        1 MS5      0.461800
     28 HAC2        4.7650    2.0490   -1.0470 hn        1 MS5      0.461800
     29 HAJ         3.0130   -2.4250    0.3980 ha        1 MS5      0.159000
     30 HAK         0.2810    1.7550    0.0420 ha        1 MS5      0.142000
     31 HAB1        2.9710    3.9690    1.2560 h1        1 MS5      0.047033
     32 HAB2        1.5090    3.6080    0.1990 h1        1 MS5      0.047033
     33 HAB3        1.6070    2.9110    1.8950 h1        1 MS5      0.047033
     34 HAO1       -1.7360    0.2080    0.3900 h1        1 MS5      0.050200
     35 HAO2       -1.3340    0.0170   -1.3790 h1        1 MS5      0.050200
     36 HAL1        1.0450   -3.6080   -0.6790 hc        1 MS5      0.062200
     37 HAL2        0.2460   -3.3530    0.9280 hc        1 MS5      0.062200
     38 HAM1       -0.7850   -2.6910   -1.9130 h1        1 MS5      0.034700
     39 HAM2       -1.5060   -3.8000   -0.6630 h1        1 MS5      0.034700
     40 HAN1       -3.1110   -1.5990   -1.9670 h1        1 MS5      0.043200
     41 HAN2       -3.5540   -2.8290   -0.6970 h1        1 MS5      0.043200
     42 HAI        -4.7840   -0.0220   -2.1310 ha        1 MS5      0.148000
     43 HAG        -3.6450   -1.4280    1.8100 ha        1 MS5      0.150000
     44 HAF        -5.3230    0.1070    2.8340 ha        1 MS5      0.134000
     45 HAH        -6.7300    1.5700    1.4050 ha        1 MS5      0.137000
     46 HAA1       -7.9920    2.9710   -1.6860 h1        1 MS5      0.043700
     47 HAA2       -8.3080    1.8870   -0.2340 h1        1 MS5      0.043700
     48 HAA3       -7.0700    3.2360   -0.1170 h1        1 MS5      0.043700
@<TRIPOS>BOND
     1    1    2 2   
     2    2    3 2   
     3    2    4 1   
     4    2    5 1   
     5    4   27 1   
     6    4   28 1   
     7    5    6 1   
     8    6    7 ar  
     9    6    8 ar  
    10    7   14 ar  
    11    7   29 1   
    12    8    9 1   
    13    8   11 ar  
    14    9   10 1   
    15   10   31 1   
    16   10   32 1   
    17   10   33 1   
    18   11   12 ar  
    19   11   30 1   
    20   12   13 1   
    21   12   14 ar  
    22   13   17 1   
    23   13   34 1   
    24   13   35 1   
    25   14   15 1   
    26   15   16 1   
    27   15   36 1   
    28   15   37 1   
    29   16   17 1   
    30   16   38 1   
    31   16   39 1   
    32   17   18 1   
    33   18   19 1   
    34   18   40 1   
    35   18   41 1   
    36   19   20 ar  
    37   19   21 ar  
    38   20   24 ar  
    39   20   42 1   
    40   21   22 ar  
    41   21   43 1   
    42   22   23 ar  
    43   22   44 1   
    44   23   24 ar  
    45   23   45 1   
    46   24   25 1   
    47   25   26 1   
    48   26   46 1   
    49   26   47 1   
    50   26   48 1   
@<TRIPOS>SUBSTRUCTURE
     1 MS5         1 TEMP              0 ****  ****    0 ROOT
