@<TRIPOS>MOLECULE
MS5
   49    51     1     0     0
SMALL
bcc


@<TRIPOS>ATOM
      1 OAE         0.1370   -1.2220   -0.1740 o         1 MS5     -0.551300
      2 SAZ         1.1580   -0.4530    0.3120 s6        1 MS5      1.537400
      3 OAD         1.4620   -0.2400    1.6280 o         1 MS5     -0.551300
      4 NAC         2.6870   -1.2890   -0.3360 n4        1 MS5     -0.800500
      5 OAR         1.3580    0.9700   -0.5020 os        1 MS5     -0.395800
      6 CAX         0.6770    1.2470   -1.6640 ca        1 MS5      0.027100
      7 CAJ        -0.4690    2.0540   -1.6060 ca        1 MS5     -0.075000
      8 CAW         1.2090    0.8320   -2.9070 ca        1 MS5      0.130100
      9 OAQ         2.3080   -0.0040   -2.8490 os        1 MS5     -0.408900
     10 CAB         3.0140   -0.1970   -4.0800 c3        1 MS5      0.118700
     11 CAK         0.5870    1.2450   -4.0880 ca        1 MS5     -0.178000
     12 CAV        -0.5510    2.0560   -4.0310 ca        1 MS5      0.016700
     13 CAO        -1.2010    2.4520   -5.3230 c3        1 MS5      0.192100
     14 CAU        -1.0790    2.4650   -2.7910 ca        1 MS5     -0.062300
     15 CAL        -2.2650    3.3600   -2.7360 c3        1 MS5     -0.043100
     16 CAM        -3.0420    3.3810   -4.0520 c3        1 MS5      0.164800
     17 NAY        -2.1670    3.5330   -5.2060 n3        1 MS5     -0.725600
     18 CAN        -2.9180    3.7480   -6.4400 c3        1 MS5      0.214100
     19 CAS        -2.0540    4.0080   -7.6390 ca        1 MS5     -0.075300
     20 CAI        -2.1560    3.1790   -8.7540 ca        1 MS5     -0.156000
     21 CAG        -1.1920    5.1120   -7.6590 ca        1 MS5     -0.147000
     22 CAF        -0.4360    5.3850   -8.7960 ca        1 MS5     -0.097000
     23 CAH        -0.5250    4.5680   -9.9240 ca        1 MS5     -0.195000
     24 CAT        -1.3870    3.4650   -9.8970 ca        1 MS5      0.125100
     25 OAP        -1.5480    2.5720  -10.9380 os        1 MS5     -0.328900
     26 CAA        -0.9160    2.9190  -12.1660 c3        1 MS5      0.111700
     27 HAC1        3.1770   -0.6730   -0.9950 hn        1 MS5      0.473133
     28 HAC2        2.4610   -2.1450   -0.8430 hn        1 MS5      0.473133
     29 HAJ        -0.8620    2.3810   -0.6310 ha        1 MS5      0.164000
     30 HAK         0.9870    0.9400   -5.0680 ha        1 MS5      0.165000
     31 HAB1        3.9300   -0.7590   -3.7680 h1        1 MS5      0.064367
     32 HAB2        3.2860    0.7860   -4.5340 h1        1 MS5      0.064367
     33 HAB3        2.3920   -0.8050   -4.7820 h1        1 MS5      0.064367
     34 HAO1       -1.6620    1.5140   -5.7620 h1        1 MS5      0.069200
     35 HAO2       -0.4060    2.8070   -6.0430 h1        1 MS5      0.069200
     36 HAL1       -1.9140    4.4000   -2.4910 hc        1 MS5      0.073700
     37 HAL2       -2.9620    3.0350   -1.9180 hc        1 MS5      0.073700
     38 HAM1       -3.7480    4.2600   -4.0320 h1        1 MS5      0.049200
     39 HAM2       -3.6670    2.4420   -4.1210 h1        1 MS5      0.049200
     40 HAN1       -3.6040    2.8750   -6.6580 h1        1 MS5      0.051700
     41 HAN2       -3.5660    4.6580   -6.2730 h1        1 MS5      0.051700
     42 HAI        -2.8330    2.3120   -8.7670 ha        1 MS5      0.149000
     43 HAG        -1.1200    5.7630   -6.7760 ha        1 MS5      0.145000
     44 HAF         0.2350    6.2570   -8.8120 ha        1 MS5      0.139000
     45 HAH         0.0720    4.7990  -10.8160 ha        1 MS5      0.144000
     46 HAA1       -1.2510    2.1120  -12.8670 h1        1 MS5      0.048367
     47 HAA2       -1.2600    3.9200  -12.5230 h1        1 MS5      0.048367
     48 HAA3        0.1960    2.9050  -12.0510 h1        1 MS5      0.048367
     49 HAC3        3.3410   -1.5240    0.4110 hn        1 MS5      0.473133
@<TRIPOS>BOND
     1    1    2 2   
     2    2    3 2   
     3    2    4 1   
     4    2    5 1   
     5    4   27 1   
     6    4   28 1   
     7    4   49 1   
     8    5    6 1   
     9    6    7 ar  
    10    6    8 ar  
    11    7   14 ar  
    12    7   29 1   
    13    8    9 1   
    14    8   11 ar  
    15    9   10 1   
    16   10   31 1   
    17   10   32 1   
    18   10   33 1   
    19   11   12 ar  
    20   11   30 1   
    21   12   13 1   
    22   12   14 ar  
    23   13   17 1   
    24   13   34 1   
    25   13   35 1   
    26   14   15 1   
    27   15   16 1   
    28   15   36 1   
    29   15   37 1   
    30   16   17 1   
    31   16   38 1   
    32   16   39 1   
    33   17   18 1   
    34   18   19 1   
    35   18   40 1   
    36   18   41 1   
    37   19   20 ar  
    38   19   21 ar  
    39   20   24 ar  
    40   20   42 1   
    41   21   22 ar  
    42   21   43 1   
    43   22   23 ar  
    44   22   44 1   
    45   23   24 ar  
    46   23   45 1   
    47   24   25 1   
    48   25   26 1   
    49   26   46 1   
    50   26   47 1   
    51   26   48 1   
@<TRIPOS>SUBSTRUCTURE
     1 MS5         1 TEMP              0 ****  ****    0 ROOT
