@<TRIPOS>MOLECULE
MS5
   49    51     1     0     0
SMALL
bcc


@<TRIPOS>ATOM
      1 OAE         0.1550   -1.1990   -0.1600 o         1 MS5     -0.551300
      2 SAZ         1.1660   -0.4170    0.3270 s6        1 MS5      1.537400
      3 OAD         1.4630   -0.1970    1.6430 o         1 MS5     -0.551300
      4 NAC         2.7070   -1.2390   -0.3120 n4        1 MS5     -0.800500
      5 OAR         1.3530    1.0050   -0.4920 os        1 MS5     -0.395800
      6 CAX         0.6740    1.2700   -1.6580 ca        1 MS5      0.027100
      7 CAJ        -0.4810    2.0650   -1.6070 ca        1 MS5     -0.075000
      8 CAW         1.2150    0.8580   -2.8970 ca        1 MS5      0.130100
      9 OAQ         2.3230    0.0340   -2.8320 os        1 MS5     -0.408900
     10 CAB         3.0360   -0.1550   -4.0600 c3        1 MS5      0.118700
     11 CAK         0.5940    1.2590   -4.0810 ca        1 MS5     -0.178000
     12 CAV        -0.5540    2.0580   -4.0310 ca        1 MS5      0.016700
     13 CAO        -1.2040    2.4420   -5.3270 c3        1 MS5      0.192100
     14 CAU        -1.0920    2.4640   -2.7950 ca        1 MS5     -0.062300
     15 CAL        -2.2880    3.3460   -2.7480 c3        1 MS5     -0.043100
     16 CAM        -3.0600    3.3540   -4.0670 c3        1 MS5      0.164800
     17 NAY        -2.1830    3.5130   -5.2170 n3        1 MS5     -0.725600
     18 CAN        -2.9310    3.7150   -6.4550 c3        1 MS5      0.214100
     19 CAS        -2.0650    3.9810   -7.6520 ca        1 MS5     -0.075300
     20 CAI        -2.1520    3.1460   -8.7640 ca        1 MS5     -0.156000
     21 CAG        -1.2170    5.0960   -7.6720 ca        1 MS5     -0.147000
     22 CAF        -0.4600    5.3740   -8.8070 ca        1 MS5     -0.097000
     23 CAH        -0.5330    4.5510   -9.9310 ca        1 MS5     -0.195000
     24 CAT        -1.3800    3.4380   -9.9050 ca        1 MS5      0.125100
     25 OAP        -1.5250    2.5390  -10.9430 os        1 MS5     -0.328900
     26 CAA        -0.8920    2.8890  -12.1700 c3        1 MS5      0.111700
     27 HAC1        3.1920   -0.6200   -0.9720 hn        1 MS5      0.473133
     28 HAC2        2.4910   -2.0990   -0.8180 hn        1 MS5      0.473133
     29 HAJ        -0.8820    2.3900   -0.6340 ha        1 MS5      0.164000
     30 HAK         1.0000    0.9560   -5.0590 ha        1 MS5      0.165000
     31 HAB1        3.9580   -0.7050   -3.7420 h1        1 MS5      0.064367
     32 HAB2        2.4240   -0.7720   -4.7610 h1        1 MS5      0.064367
     33 HAB3        3.2990    0.8300   -4.5150 h1        1 MS5      0.064367
     34 HAO1       -0.4090    2.8040   -6.0460 h1        1 MS5      0.069200
     35 HAO2       -1.6520    1.4970   -5.7650 h1        1 MS5      0.069200
     36 HAL1       -2.9840    3.0160   -1.9310 hc        1 MS5      0.073700
     37 HAL2       -1.9490    4.3910   -2.5050 hc        1 MS5      0.073700
     38 HAM1       -3.6740    2.4080   -4.1350 h1        1 MS5      0.049200
     39 HAM2       -3.7760    4.2240   -4.0520 h1        1 MS5      0.049200
     40 HAN1       -3.5900    4.6180   -6.2930 h1        1 MS5      0.051700
     41 HAN2       -3.6060    2.8330   -6.6730 h1        1 MS5      0.051700
     42 HAI        -2.8170    2.2710   -8.7760 ha        1 MS5      0.149000
     43 HAG        -1.1570    5.7510   -6.7910 ha        1 MS5      0.145000
     44 HAF         0.2000    6.2550   -8.8230 ha        1 MS5      0.139000
     45 HAH         0.0650    4.7870  -10.8230 ha        1 MS5      0.144000
     46 HAA1        0.2180    2.8890  -12.0500 h1        1 MS5      0.048367
     47 HAA2       -1.2140    2.0750  -12.8680 h1        1 MS5      0.048367
     48 HAA3       -1.2480    3.8840  -12.5310 h1        1 MS5      0.048367
     49 HAC3        3.3600   -1.4650    0.4380 hn        1 MS5      0.473133
@<TRIPOS>BOND
     1    1    2 2   
     2    2    3 2   
     3    2    4 1   
     4    2    5 1   
     5    4   27 1   
     6    4   28 1   
     7    4   49 1   
     8    5    6 1   
     9    6    7 ar  
    10    6    8 ar  
    11    7   14 ar  
    12    7   29 1   
    13    8    9 1   
    14    8   11 ar  
    15    9   10 1   
    16   10   31 1   
    17   10   32 1   
    18   10   33 1   
    19   11   12 ar  
    20   11   30 1   
    21   12   13 1   
    22   12   14 ar  
    23   13   17 1   
    24   13   34 1   
    25   13   35 1   
    26   14   15 1   
    27   15   16 1   
    28   15   36 1   
    29   15   37 1   
    30   16   17 1   
    31   16   38 1   
    32   16   39 1   
    33   17   18 1   
    34   18   19 1   
    35   18   40 1   
    36   18   41 1   
    37   19   20 ar  
    38   19   21 ar  
    39   20   24 ar  
    40   20   42 1   
    41   21   22 ar  
    42   21   43 1   
    43   22   23 ar  
    44   22   44 1   
    45   23   24 ar  
    46   23   45 1   
    47   24   25 1   
    48   25   26 1   
    49   26   46 1   
    50   26   47 1   
    51   26   48 1   
@<TRIPOS>SUBSTRUCTURE
     1 MS5         1 TEMP              0 ****  ****    0 ROOT
