@<TRIPOS>MOLECULE
MS5
   49    51     1     0     0
SMALL
bcc


@<TRIPOS>ATOM
      1 OAE         0.1380   -1.2290   -0.1800 o         1 MS5     -0.551300
      2 SAZ         1.1520   -0.4560    0.3120 s6        1 MS5      1.537400
      3 OAD         1.4500   -0.2440    1.6300 o         1 MS5     -0.551300
      4 NAC         2.6890   -1.2810   -0.3310 nz        1 MS5     -0.800500
      5 OAR         1.3470    0.9710   -0.4980 os        1 MS5     -0.395800
      6 CAX         0.6690    1.2460   -1.6620 ca        1 MS5      0.027100
      7 CAJ        -0.4810    2.0460   -1.6070 ca        1 MS5     -0.075000
      8 CAW         1.2080    0.8370   -2.9040 ca        1 MS5      0.130100
      9 OAQ         2.3120    0.0070   -2.8430 os        1 MS5     -0.408900
     10 CAB         3.0240   -0.1790   -4.0720 c3        1 MS5      0.118700
     11 CAK         0.5890    1.2480   -4.0860 ca        1 MS5     -0.178000
     12 CAV        -0.5540    2.0530   -4.0320 ca        1 MS5      0.016700
     13 CAO        -1.2020    2.4480   -5.3250 c3        1 MS5      0.192100
     14 CAU        -1.0900    2.4560   -2.7930 ca        1 MS5     -0.062300
     15 CAL        -2.2810    3.3440   -2.7410 c3        1 MS5     -0.043100
     16 CAM        -3.0530    3.3630   -4.0600 c3        1 MS5      0.164800
     17 NAY        -2.1750    3.5230   -5.2100 n3        1 MS5     -0.725600
     18 CAN        -2.9230    3.7350   -6.4470 c3        1 MS5      0.214100
     19 CAS        -2.0550    4.0030   -7.6420 ca        1 MS5     -0.075300
     20 CAI        -2.1480    3.1750   -8.7590 ca        1 MS5     -0.156000
     21 CAG        -1.2010    5.1130   -7.6570 ca        1 MS5     -0.147000
     22 CAF        -0.4430    5.3930   -8.7900 ca        1 MS5     -0.097000
     23 CAH        -0.5210    4.5770   -9.9190 ca        1 MS5     -0.195000
     24 CAT        -1.3750    3.4680   -9.8980 ca        1 MS5      0.125100
     25 OAP        -1.5260    2.5760  -10.9410 os        1 MS5     -0.328900
     26 CAA        -0.8920    2.9290  -12.1660 c3        1 MS5      0.111700
     27 HAC1        3.1780   -0.6610   -0.9870 hn        1 MS5      0.473133
     28 HAC2        3.3410   -1.5150    0.4180 hn        1 MS5      0.473133
     29 HAJ        -0.8800    2.3690   -0.6320 ha        1 MS5      0.164000
     30 HAK         0.9940    0.9490   -5.0650 ha        1 MS5      0.165000
     31 HAB1        3.9420   -0.7360   -3.7570 h1        1 MS5      0.064367
     32 HAB2        2.4090   -0.7890   -4.7770 h1        1 MS5      0.064367
     33 HAB3        3.2920    0.8070   -4.5220 h1        1 MS5      0.064367
     34 HAO1       -0.4050    2.8100   -6.0420 h1        1 MS5      0.069200
     35 HAO2       -1.6550    1.5080   -5.7690 h1        1 MS5      0.069200
     36 HAL1       -1.9370    4.3860   -2.4930 hc        1 MS5      0.073700
     37 HAL2       -2.9790    3.0130   -1.9270 hc        1 MS5      0.073700
     38 HAM1       -3.6720    2.4210   -4.1330 h1        1 MS5      0.049200
     39 HAM2       -3.7640    4.2370   -4.0410 h1        1 MS5      0.049200
     40 HAN1       -3.6020    2.8580   -6.6690 h1        1 MS5      0.051700
     41 HAN2       -3.5760    4.6410   -6.2800 h1        1 MS5      0.051700
     42 HAI        -2.8180    2.3040   -8.7750 ha        1 MS5      0.149000
     43 HAG        -1.1370    5.7630   -6.7720 ha        1 MS5      0.145000
     44 HAF         0.2230    6.2700   -8.8020 ha        1 MS5      0.139000
     45 HAH         0.0780    4.8140  -10.8100 ha        1 MS5      0.144000
     46 HAA1       -1.2180    2.1210  -12.8690 h1        1 MS5      0.048367
     47 HAA2       -1.2420    3.9280  -12.5220 h1        1 MS5      0.048367
     48 HAA3        0.2190    2.9220  -12.0470 h1        1 MS5      0.048367
     49 HAC3        2.4690   -2.1370   -0.8410 hn        1 MS5      0.473133
@<TRIPOS>BOND
     1    1    2 2   
     2    2    3 2   
     3    2    4 1   
     4    2    5 1   
     5    4   27 1   
     6    4   28 1   
     7    4   49 1   
     8    5    6 1   
     9    6    7 ar  
    10    6    8 ar  
    11    7   14 ar  
    12    7   29 1   
    13    8    9 1   
    14    8   11 ar  
    15    9   10 1   
    16   10   31 1   
    17   10   32 1   
    18   10   33 1   
    19   11   12 ar  
    20   11   30 1   
    21   12   13 1   
    22   12   14 ar  
    23   13   17 1   
    24   13   34 1   
    25   13   35 1   
    26   14   15 1   
    27   15   16 1   
    28   15   36 1   
    29   15   37 1   
    30   16   17 1   
    31   16   38 1   
    32   16   39 1   
    33   17   18 1   
    34   18   19 1   
    35   18   40 1   
    36   18   41 1   
    37   19   20 ar  
    38   19   21 ar  
    39   20   24 ar  
    40   20   42 1   
    41   21   22 ar  
    42   21   43 1   
    43   22   23 ar  
    44   22   44 1   
    45   23   24 ar  
    46   23   45 1   
    47   24   25 1   
    48   25   26 1   
    49   26   46 1   
    50   26   47 1   
    51   26   48 1   
@<TRIPOS>SUBSTRUCTURE
     1 MS5         1 TEMP              0 ****  ****    0 ROOT
