@<TRIPOS>MOLECULE
MS5
   48    44     1     0     0
SMALL
bcc


@<TRIPOS>ATOM
      1 OAE        -5.5650    0.7470    1.7040 o         1 MS5     -0.925000
      2 SAZ        -5.9660    0.7860    0.2100 ss        1 MS5      2.827000
      3 OAD        -5.3420    2.0370   -0.2210 o         1 MS5     -0.925000
      4 NAC        -7.6150    0.8440    0.0350 n2        1 MS5     -0.951000
      5 OAR        -5.3820   -0.4270   -0.5650 o         1 MS5     -0.650000
      6 CAX        -3.9420   -0.5090   -0.6180 c2        1 MS5      0.121000
      7 CAJ        -3.2020   -0.3580    0.5460 c1        1 MS5     -0.120000
      8 CAW        -3.2700   -0.5090   -1.9060 c2        1 MS5      0.024000
      9 OAQ        -4.0220   -0.5480   -3.0840 os        1 MS5     -0.247000
     10 CAB        -4.0160   -1.8520   -3.7470 c3        1 MS5     -0.071000
     11 CAK        -1.8400   -0.3530   -1.9740 c1        1 MS5     -0.161000
     12 CAV        -1.1110   -0.2040   -0.8290 c1        1 MS5     -0.091000
     13 CAO         0.3780    0.3950   -0.9000 c3        1 MS5     -0.036000
     14 CAU        -1.7830   -0.2030    0.4740 c1        1 MS5     -0.064000
     15 CAL        -1.0640    0.5120    1.6480 c3        1 MS5     -0.154000
     16 CAM         0.1220    1.2650    1.3110 c3        1 MS5     -0.078000
     17 NAY         0.9570    0.7280    0.3040 n3        1 MS5     -0.238000
     18 CAN         1.7100   -0.4680    0.8650 c3        1 MS5     -0.040000
     19 CAS         3.1610   -0.0860    1.1010 c2        1 MS5     -0.050000
     20 CAI         4.1340   -0.4410    0.1740 c2        1 MS5     -0.134000
     21 CAG         3.4870    0.7480    2.1630 c1        1 MS5     -0.163000
     22 CAF         4.7770    1.2250    2.2990 c1        1 MS5     -0.150500
     23 CAH         5.7550    0.8700    1.3690 c1        1 MS5     -0.150500
     24 CAT         5.4330    0.0400    0.3110 c1        1 MS5      0.074000
     25 OAP         6.3940   -0.2390   -0.6780 os        1 MS5     -0.210000
     26 CAA         7.4610   -1.1190   -0.2310 c3        1 MS5     -0.076000
     27 HAC1       -8.1150    0.3060    0.4900 hn        1 MS5      0.256500
     28 HAC2       -7.9870    1.4630   -0.4870 hn        1 MS5      0.256500
     29 HAJ        -3.6990   -0.3450    1.5060 ha        1 MS5      0.155000
     30 HAK        -1.3950   -0.3500   -2.8290 ha        1 MS5      0.139000
     31 HAB1       -4.8160   -1.9340   -4.3160 h1        1 MS5      0.086000
     32 HAB2       -4.0230   -2.5930   -3.0430 h1        1 MS5      0.086000
     33 HAB3       -3.2390   -1.9320   -4.2810 h1        1 MS5      0.086000
     34 HAO1        0.9290   -0.2570   -1.3140 h1        1 MS5      0.101500
     35 HAO2        0.3410    1.2130   -1.4460 h1        1 MS5      0.101500
     36 HAL1       -0.8080   -0.1760    2.3130 hc        1 MS5      0.097000
     37 HAL2       -1.7190    1.1380    2.0810 hc        1 MS5      0.097000
     38 HAM1        0.6680    1.3660    2.1360 h1        1 MS5      0.101000
     39 HAM2       -0.1550    2.1360    1.0300 h1        1 MS5      0.101000
     40 HAN1        1.6650   -1.2020    0.2430 h1        1 MS5      0.083500
     41 HAN2        1.2990   -0.7400    1.7260 h1        1 MS5      0.083500
     42 HAI         3.9050   -1.0340   -0.5790 ha        1 MS5      0.162000
     43 HAG         2.7540    1.0160    2.8610 ha        1 MS5      0.133000
     44 HAF         4.9970    1.7940    3.0260 ha        1 MS5      0.133500
     45 HAH         6.6780    1.2120    1.4660 ha        1 MS5      0.133500
     46 HAA1        7.0880   -1.8000    0.4220 h1        1 MS5      0.082667
     47 HAA2        7.8310   -1.5660   -0.9730 h1        1 MS5      0.082667
     48 HAA3        8.1510   -0.5950    0.2070 h1        1 MS5      0.082667
@<TRIPOS>BOND
     1    1    2 1   
     2    2    3 1   
     3    4   27 1   
     4    4   28 1   
     5    5    6 1   
     6    6    7 1   
     7    6    8 1   
     8    7   29 1   
     9    8    9 1   
    10    8   11 1   
    11    9   10 1   
    12   10   31 1   
    13   10   32 1   
    14   10   33 1   
    15   11   30 1   
    16   12   13 1   
    17   12   14 1   
    18   13   17 1   
    19   13   34 1   
    20   13   35 1   
    21   14   15 1   
    22   15   16 1   
    23   15   36 1   
    24   15   37 1   
    25   16   17 1   
    26   16   38 1   
    27   16   39 1   
    28   17   18 1   
    29   18   19 1   
    30   18   40 1   
    31   18   41 1   
    32   19   20 1   
    33   19   21 1   
    34   20   24 1   
    35   20   42 1   
    36   21   43 1   
    37   22   23 1   
    38   22   44 1   
    39   23   45 1   
    40   24   25 1   
    41   25   26 1   
    42   26   46 1   
    43   26   47 1   
    44   26   48 1   
@<TRIPOS>SUBSTRUCTURE
     1 MS5         1 TEMP              0 ****  ****    0 ROOT
