@<TRIPOS>MOLECULE
MS7
   41    38     1     0     0
SMALL
bcc


@<TRIPOS>ATOM
      1 N1          2.1160   -2.7070   -0.7620 n3        1 MS7     -0.316000
      2 C4          0.9310   -3.2270   -1.2950 c3        1 MS7     -0.038000
      3 C6          0.3700   -2.2640   -2.3320 c3        1 MS7     -0.109000
      4 C9         -0.0250   -0.9840   -1.6630 c2        1 MS7     -0.111000
      5 C10        -1.1840   -0.9280   -0.9090 c2        1 MS7     -0.099000
      6 C12        -1.5480    0.2530   -0.2850 c1        1 MS7     -0.159000
      7 C14        -0.7510    1.3820   -0.4160 c1        1 MS7      0.084000
      8 C15         0.4080    1.3280   -1.1700 c1        1 MS7     -0.205000
      9 C17         0.7720    0.1460   -1.7950 c1        1 MS7     -0.066000
     10 O19        -1.1190    2.5950    0.2390 os        1 MS7     -0.211000
     11 C20        -0.4470    2.8060    1.4950 c3        1 MS7      0.017000
     12 C23        -0.9010    4.0840    2.0930 c2        1 MS7     -0.087000
     13 C24        -2.0460    4.1160    2.8420 c2        1 MS7     -0.101000
     14 C26        -2.4470    5.2970    3.4460 c1        1 MS7     -0.132000
     15 C28        -1.6900    6.4480    3.2940 c1        1 MS7     -0.128000
     16 C30        -0.5280    6.4190    2.5340 c1        1 MS7     -0.128000
     17 C32        -0.1300    5.2490    1.9350 c1        1 MS7     -0.124000
     18 C34         1.2240   -4.5930   -1.9680 c2        1 MS7      0.251000
     19 O35         1.6790   -4.6320   -3.1300 o         1 MS7     -0.381000
     20 N36         0.9600   -5.8280   -1.2520 n         1 MS7     -0.380000
     21 C38         1.6530   -7.0400   -1.6220 c3        1 MS7     -0.078000
     22 HN1         2.1540   -2.8970    0.1630 hn        1 MS7      0.155500
     23 HN1A        2.8350   -3.0920   -1.1830 hn        1 MS7      0.155500
     24 H4          0.2470   -3.3540   -0.5450 h1        1 MS7      0.116000
     25 H6         -0.4280   -2.6720   -2.7640 hc        1 MS7      0.095000
     26 H6A         1.0530   -2.0810   -3.0130 hc        1 MS7      0.095000
     27 H10        -1.7670   -1.7530   -0.8150 ha        1 MS7      0.127000
     28 H12        -2.3730    0.2920    0.2520 ha        1 MS7      0.148000
     29 H15         0.9710    2.1250   -1.2630 ha        1 MS7      0.138000
     30 H17         1.5700    0.1070   -2.3140 ha        1 MS7      0.143000
     31 H20         0.5130    2.8400    1.3480 h1        1 MS7      0.088500
     32 H20A       -0.6590    2.0630    2.1110 h1        1 MS7      0.088500
     33 H24        -2.6010    3.2730    2.9560 ha        1 MS7      0.148000
     34 H26        -3.2700    5.3180    3.9850 ha        1 MS7      0.133000
     35 H28        -1.9710    7.2670    3.7150 ha        1 MS7      0.132000
     36 H30         0.0120    7.2400    2.4240 ha        1 MS7      0.132000
     37 H32         0.6810    5.2250    1.4080 ha        1 MS7      0.131000
     38 HN36        0.3310   -5.8510   -0.6270 hn        1 MS7      0.223000
     39 H38         1.2580   -7.8240   -1.1120 h1        1 MS7      0.084000
     40 H38A        1.5520   -7.1940   -2.6040 h1        1 MS7      0.084000
     41 H38B        2.5960   -6.9540   -1.4020 h1        1 MS7      0.084000
@<TRIPOS>BOND
     1    1    2 1   
     2    1   22 1   
     3    1   23 1   
     4    2    3 1   
     5    2   18 1   
     6    2   24 1   
     7    3    4 1   
     8    3   25 1   
     9    3   26 1   
    10    4    5 1   
    11    4    9 1   
    12    5    6 1   
    13    5   27 1   
    14    6   28 1   
    15    7    8 1   
    16    7   10 1   
    17    8   29 1   
    18    9   30 1   
    19   10   11 1   
    20   11   12 1   
    21   11   31 1   
    22   11   32 1   
    23   12   13 1   
    24   12   17 1   
    25   13   14 1   
    26   13   33 1   
    27   14   34 1   
    28   15   16 1   
    29   15   35 1   
    30   16   36 1   
    31   17   37 1   
    32   18   19 1   
    33   18   20 1   
    34   20   21 1   
    35   20   38 1   
    36   21   39 1   
    37   21   40 1   
    38   21   41 1   
@<TRIPOS>SUBSTRUCTURE
     1 MS7         1 TEMP              0 ****  ****    0 ROOT
