@<TRIPOS>MOLECULE
MS7
   43    44     1     0     0
SMALL
bcc


@<TRIPOS>ATOM
      1 N1          0.2260    0.5440   -0.2990 n4        1 MS7     -0.837600
      2 C4          1.6650    0.1290   -0.2810 c3        1 MS7      0.037500
      3 C6          2.2730    0.2740    1.1450 c3        1 MS7     -0.018100
      4 C9          1.8280    1.5310    1.7830 ca        1 MS7     -0.299300
      5 C10         0.7390    1.5170    2.6790 ca        1 MS7     -0.072000
      6 C12         0.3580    2.6630    3.3460 ca        1 MS7     -0.186500
      7 C14         1.0840    3.8690    3.1450 ca        1 MS7      0.221100
      8 C15         2.1830    3.8840    2.2620 ca        1 MS7     -0.186500
      9 C17         2.5480    2.7210    1.6010 ca        1 MS7     -0.072000
     10 O19         0.6280    4.9310    3.8450 os        1 MS7     -0.288900
     11 C20         1.3830    6.1720    3.7530 c3        1 MS7      0.183700
     12 C23         0.6980    7.1370    4.6540 ca        1 MS7     -0.136300
     13 C24         0.9830    7.1380    6.0240 ca        1 MS7     -0.096500
     14 C26         0.3690    8.0680    6.8620 ca        1 MS7     -0.126500
     15 C28        -0.5310    8.9950    6.3360 ca        1 MS7     -0.091000
     16 C30        -0.8200    8.9920    4.9710 ca        1 MS7     -0.126500
     17 C32        -0.2100    8.0630    4.1300 ca        1 MS7     -0.096500
     18 C34         1.8240   -1.3110   -0.7720 c         1 MS7      0.500100
     19 O35         0.9020   -2.0590   -1.0620 o         1 MS7     -0.366100
     20 N36         3.2270   -1.8250   -0.8740 n4        1 MS7     -0.651800
     21 C38         3.2980   -3.2390   -1.3400 c3        1 MS7      0.078100
     22 HN1         0.1350    1.3990    0.2930 hn        1 MS7      0.491467
     23 HN1A       -0.3730   -0.1920    0.0980 hn        1 MS7      0.491467
     24 H4          2.2180    0.8320   -0.9810 hx        1 MS7      0.151700
     25 H6          1.9730   -0.6100    1.7700 hc        1 MS7      0.085700
     26 H6A         3.3910    0.2750    1.0300 hc        1 MS7      0.085700
     27 H10         0.2090    0.5740    2.8870 ha        1 MS7      0.134500
     28 H12        -0.4850    2.6650    4.0580 ha        1 MS7      0.182500
     29 H15         2.7660    4.8070    2.1110 ha        1 MS7      0.182500
     30 H17         3.4280    2.7370    0.9370 ha        1 MS7      0.134500
     31 H20         1.3660    6.5140    2.6840 h1        1 MS7      0.057700
     32 H20A        2.4350    5.9700    4.0850 h1        1 MS7      0.057700
     33 H24         1.6930    6.4070    6.4400 ha        1 MS7      0.132000
     34 H26         0.5980    8.0700    7.9390 ha        1 MS7      0.150000
     35 H28        -1.0130    9.7320    6.9990 ha        1 MS7      0.153000
     36 H30        -1.5290    9.7260    4.5560 ha        1 MS7      0.150000
     37 H32        -0.4400    8.0640    3.0540 ha        1 MS7      0.132000
     38 HN36        3.7550   -1.2280   -1.5280 hn        1 MS7      0.482300
     39 H38         4.3820   -3.5440   -1.3860 hx        1 MS7      0.134033
     40 H38A        2.7420   -3.9030   -0.6210 hx        1 MS7      0.134033
     41 H38B        2.8310   -3.3260   -2.3590 hx        1 MS7      0.134033
     42 H13        -0.0860    0.7490   -1.2550 hn        1 MS7      0.491467
     43 H362        3.6700   -1.7520    0.0570 hn        1 MS7      0.482300
@<TRIPOS>BOND
     1    1    2 1   
     2    1   22 1   
     3    1   23 1   
     4    1   42 1   
     5    2    3 1   
     6    2   18 1   
     7    2   24 1   
     8    3    4 1   
     9    3   25 1   
    10    3   26 1   
    11    4    5 ar  
    12    4    9 ar  
    13    5    6 ar  
    14    5   27 1   
    15    6    7 ar  
    16    6   28 1   
    17    7    8 ar  
    18    7   10 1   
    19    8    9 ar  
    20    8   29 1   
    21    9   30 1   
    22   10   11 1   
    23   11   12 1   
    24   11   31 1   
    25   11   32 1   
    26   12   13 ar  
    27   12   17 ar  
    28   13   14 ar  
    29   13   33 1   
    30   14   15 ar  
    31   14   34 1   
    32   15   16 ar  
    33   15   35 1   
    34   16   17 ar  
    35   16   36 1   
    36   17   37 1   
    37   18   19 2   
    38   18   20 1   
    39   20   21 1   
    40   20   38 1   
    41   20   43 1   
    42   21   39 1   
    43   21   40 1   
    44   21   41 1   
@<TRIPOS>SUBSTRUCTURE
     1 MS7         1 TEMP              0 ****  ****    0 ROOT
