@<TRIPOS>MOLECULE
MS7
   43    44     1     0     0
SMALL
bcc


@<TRIPOS>ATOM
      1 N1          0.2210    0.5350   -0.2910 n4        1 MS7     -0.837600
      2 C4          1.6620    0.1250   -0.2770 c3        1 MS7      0.037500
      3 C6          2.2740    0.2740    1.1460 c3        1 MS7     -0.018100
      4 C9          1.8290    1.5320    1.7820 ca        1 MS7     -0.299300
      5 C10         0.7440    1.5170    2.6840 ca        1 MS7     -0.072000
      6 C12         0.3630    2.6630    3.3510 ca        1 MS7     -0.186500
      7 C14         1.0840    3.8700    3.1430 ca        1 MS7      0.221100
      8 C15         2.1780    3.8870    2.2540 ca        1 MS7     -0.186500
      9 C17         2.5440    2.7230    1.5940 ca        1 MS7     -0.072000
     10 O19         0.6280    4.9330    3.8430 os        1 MS7     -0.288900
     11 C20         1.3790    6.1750    3.7440 c3        1 MS7      0.183700
     12 C23         0.6980    7.1400    4.6480 ca        1 MS7     -0.136300
     13 C24         1.0030    7.1560    6.0140 ca        1 MS7     -0.096500
     14 C26         0.3920    8.0850    6.8540 ca        1 MS7     -0.126500
     15 C28        -0.5260    8.9990    6.3340 ca        1 MS7     -0.091000
     16 C30        -0.8360    8.9820    4.9730 ca        1 MS7     -0.126500
     17 C32        -0.2290    8.0520    4.1300 ca        1 MS7     -0.096500
     18 C34         1.8230   -1.3160   -0.7660 c         1 MS7      0.500100
     19 O35         0.9030   -2.0670   -1.0520 o         1 MS7     -0.366100
     20 N36         3.2280   -1.8250   -0.8710 n4        1 MS7     -0.651800
     21 C38         3.3010   -3.2410   -1.3340 c3        1 MS7      0.078100
     22 HN1        -0.3740   -0.2030    0.1090 hn        1 MS7      0.491467
     23 HN1A       -0.0950    0.7380   -1.2460 hn        1 MS7      0.491467
     24 H4          2.2100    0.8280   -0.9810 hx        1 MS7      0.151700
     25 H6          1.9800   -0.6090    1.7740 hc        1 MS7      0.085700
     26 H6A         3.3920    0.2790    1.0270 hc        1 MS7      0.085700
     27 H10         0.2180    0.5720    2.8970 ha        1 MS7      0.134500
     28 H12        -0.4760    2.6640    4.0670 ha        1 MS7      0.182500
     29 H15         2.7570    4.8110    2.0980 ha        1 MS7      0.182500
     30 H17         3.4200    2.7410    0.9250 ha        1 MS7      0.134500
     31 H20         2.4340    5.9770    4.0700 h1        1 MS7      0.057700
     32 H20A        1.3540    6.5160    2.6750 h1        1 MS7      0.057700
     33 H24         1.7270    6.4360    6.4250 ha        1 MS7      0.132000
     34 H26         0.6360    8.1000    7.9270 ha        1 MS7      0.150000
     35 H28        -1.0060    9.7350    6.9980 ha        1 MS7      0.153000
     36 H30        -1.5600    9.7030    4.5640 ha        1 MS7      0.150000
     37 H32        -0.4750    8.0410    3.0580 ha        1 MS7      0.132000
     38 HN36        3.6730   -1.7490    0.0580 hn        1 MS7      0.482300
     39 H38         2.8320   -3.3310   -2.3520 hx        1 MS7      0.134033
     40 H38A        4.3860   -3.5420   -1.3820 hx        1 MS7      0.134033
     41 H38B        2.7500   -3.9050   -0.6120 hx        1 MS7      0.134033
     42 H13         0.1290    1.3910    0.3010 hn        1 MS7      0.491467
     43 H362        3.7520   -1.2290   -1.5280 hn        1 MS7      0.482300
@<TRIPOS>BOND
     1    1    2 1   
     2    1   22 1   
     3    1   23 1   
     4    1   42 1   
     5    2    3 1   
     6    2   18 1   
     7    2   24 1   
     8    3    4 1   
     9    3   25 1   
    10    3   26 1   
    11    4    5 ar  
    12    4    9 ar  
    13    5    6 ar  
    14    5   27 1   
    15    6    7 ar  
    16    6   28 1   
    17    7    8 ar  
    18    7   10 1   
    19    8    9 ar  
    20    8   29 1   
    21    9   30 1   
    22   10   11 1   
    23   11   12 1   
    24   11   31 1   
    25   11   32 1   
    26   12   13 ar  
    27   12   17 ar  
    28   13   14 ar  
    29   13   33 1   
    30   14   15 ar  
    31   14   34 1   
    32   15   16 ar  
    33   15   35 1   
    34   16   17 ar  
    35   16   36 1   
    36   17   37 1   
    37   18   19 2   
    38   18   20 1   
    39   20   21 1   
    40   20   38 1   
    41   20   43 1   
    42   21   39 1   
    43   21   40 1   
    44   21   41 1   
@<TRIPOS>SUBSTRUCTURE
     1 MS7         1 TEMP              0 ****  ****    0 ROOT
