@<TRIPOS>MOLECULE
MS7
   43    44     1     0     0
SMALL
bcc


@<TRIPOS>ATOM
      1 N1          0.2420    0.5530   -0.3170 nz        1 MS7     -0.837600
      2 C4          1.6770    0.1280   -0.2780 c3        1 MS7      0.037500
      3 C6          2.2640    0.2670    1.1570 c3        1 MS7     -0.018100
      4 C9          1.8210    1.5270    1.7880 ca        1 MS7     -0.299300
      5 C10         0.7200    1.5220    2.6710 ca        1 MS7     -0.072000
      6 C12         0.3390    2.6700    3.3330 ca        1 MS7     -0.186500
      7 C14         1.0770    3.8700    3.1410 ca        1 MS7      0.221100
      8 C15         2.1860    3.8780    2.2720 ca        1 MS7     -0.186500
      9 C17         2.5520    2.7110    1.6150 ca        1 MS7     -0.072000
     10 O19         0.6190    4.9360    3.8360 os        1 MS7     -0.288900
     11 C20         1.3850    6.1710    3.7530 c3        1 MS7      0.183700
     12 C23         0.6980    7.1410    4.6470 ca        1 MS7     -0.136300
     13 C24         0.9820    7.1520    6.0180 ca        1 MS7     -0.096500
     14 C26         0.3650    8.0860    6.8480 ca        1 MS7     -0.126500
     15 C28        -0.5360    9.0090    6.3160 ca        1 MS7     -0.091000
     16 C30        -0.8240    8.9960    4.9500 ca        1 MS7     -0.126500
     17 C32        -0.2120    8.0620    4.1150 ca        1 MS7     -0.096500
     18 C34         1.8320   -1.3140   -0.7680 c         1 MS7      0.500100
     19 O35         0.9100   -2.0540   -1.0730 o         1 MS7     -0.366100
     20 N36         3.2330   -1.8380   -0.8480 ny        1 MS7     -0.651800
     21 C38         3.3010   -3.2520   -1.3160 c3        1 MS7      0.078100
     22 HN1        -0.3690   -0.1800    0.0690 hn        1 MS7      0.491467
     23 HN1A        0.1470    1.4080    0.2760 hn        1 MS7      0.491467
     24 H4          2.2460    0.8270   -0.9690 hx        1 MS7      0.151700
     25 H6          3.3840    0.2590    1.0590 hc        1 MS7      0.085700
     26 H6A         1.9490   -0.6150    1.7770 hc        1 MS7      0.085700
     27 H10         0.1800    0.5820    2.8710 ha        1 MS7      0.134500
     28 H12        -0.5130    2.6790    4.0340 ha        1 MS7      0.182500
     29 H15         2.7780    4.7960    2.1280 ha        1 MS7      0.182500
     30 H17         3.4400    2.7210    0.9630 ha        1 MS7      0.134500
     31 H20         2.4320    5.9600    4.0970 h1        1 MS7      0.057700
     32 H20A        1.3830    6.5140    2.6850 h1        1 MS7      0.057700
     33 H24         1.6920    6.4250    6.4390 ha        1 MS7      0.132000
     34 H26         0.5930    8.0970    7.9260 ha        1 MS7      0.150000
     35 H28        -1.0200    9.7480    6.9730 ha        1 MS7      0.153000
     36 H30        -1.5340    9.7240    4.5300 ha        1 MS7      0.150000
     37 H32        -0.4410    8.0550    3.0400 ha        1 MS7      0.132000
     38 HN36        3.7770   -1.2440   -1.4920 hn        1 MS7      0.482300
     39 H38         4.3830   -3.5650   -1.3440 hx        1 MS7      0.134033
     40 H38A        2.7280   -3.9130   -0.6090 hx        1 MS7      0.134033
     41 H38B        2.8510   -3.3320   -2.3440 hx        1 MS7      0.134033
     42 H13        -0.0550    0.7620   -1.2770 hn        1 MS7      0.491467
     43 H362        3.6610   -1.7700    0.0900 hn        1 MS7      0.482300
@<TRIPOS>BOND
     1    1    2 1   
     2    1   22 1   
     3    1   23 1   
     4    1   42 1   
     5    2    3 1   
     6    2   18 1   
     7    2   24 1   
     8    3    4 1   
     9    3   25 1   
    10    3   26 1   
    11    4    5 ar  
    12    4    9 ar  
    13    5    6 ar  
    14    5   27 1   
    15    6    7 ar  
    16    6   28 1   
    17    7    8 ar  
    18    7   10 1   
    19    8    9 ar  
    20    8   29 1   
    21    9   30 1   
    22   10   11 1   
    23   11   12 1   
    24   11   31 1   
    25   11   32 1   
    26   12   13 ar  
    27   12   17 ar  
    28   13   14 ar  
    29   13   33 1   
    30   14   15 ar  
    31   14   34 1   
    32   15   16 ar  
    33   15   35 1   
    34   16   17 ar  
    35   16   36 1   
    36   17   37 1   
    37   18   19 2   
    38   18   20 1   
    39   20   21 1   
    40   20   38 1   
    41   20   43 1   
    42   21   39 1   
    43   21   40 1   
    44   21   41 1   
@<TRIPOS>SUBSTRUCTURE
     1 MS7         1 TEMP              0 ****  ****    0 ROOT
