@<TRIPOS>MOLECULE
MS7
   41    42     1     0     0
SMALL
bcc


@<TRIPOS>ATOM
      1 N1          3.7380    0.5800    1.3420 n3        1 MS7     -0.907800
      2 C4          3.9040   -0.3080    0.2080 c3        1 MS7      0.096500
      3 C6          3.1170    0.0820   -1.0570 c3        1 MS7     -0.064100
      4 C9          1.6550    0.1300   -0.7930 ca        1 MS7     -0.123300
      5 C10         1.0560    1.3130   -0.3370 ca        1 MS7     -0.097000
      6 C12        -0.3090    1.3730   -0.0930 ca        1 MS7     -0.177000
      7 C14        -1.0970    0.2250   -0.3080 ca        1 MS7      0.128100
      8 C15        -0.5140   -0.9620   -0.7670 ca        1 MS7     -0.177000
      9 C17         0.8590   -0.9980   -1.0060 ca        1 MS7     -0.097000
     10 O19        -2.4380    0.3880   -0.0210 os        1 MS7     -0.326900
     11 C20        -3.2800   -0.7310   -0.3370 c3        1 MS7      0.174700
     12 C23        -4.6880   -0.3460   -0.0240 ca        1 MS7     -0.095300
     13 C24        -5.7280   -0.9260   -0.7600 ca        1 MS7     -0.112000
     14 C26        -7.0520   -0.6130   -0.4620 ca        1 MS7     -0.131000
     15 C28        -7.3460    0.2840    0.5660 ca        1 MS7     -0.124000
     16 C30        -6.3110    0.8690    1.2950 ca        1 MS7     -0.131000
     17 C32        -4.9840    0.5540    1.0040 ca        1 MS7     -0.112000
     18 C34         5.3930   -0.4580   -0.1800 c         1 MS7      0.654100
     19 O35         5.7650   -0.3260   -1.3630 o         1 MS7     -0.617100
     20 N36         6.2690   -0.8080    0.8230 n         1 MS7     -0.558900
     21 C38         7.6760   -0.9240    0.6070 c3        1 MS7      0.075300
     22 HN1         4.0290    1.5090    1.1070 hn        1 MS7      0.357800
     23 HN1A        2.7720    0.6040    1.6100 hn        1 MS7      0.357800
     24 H4          3.5470   -1.3330    0.5330 h1        1 MS7      0.078700
     25 H6          3.4810    1.0750   -1.4320 hc        1 MS7      0.072200
     26 H6A         3.3460   -0.6710   -1.8580 hc        1 MS7      0.072200
     27 H10         1.6740    2.2110   -0.1810 ha        1 MS7      0.133500
     28 H12        -0.7870    2.2970    0.2600 ha        1 MS7      0.144500
     29 H15        -1.1180   -1.8630   -0.9420 ha        1 MS7      0.144500
     30 H17         1.3190   -1.9290   -1.3710 ha        1 MS7      0.133500
     31 H20        -3.1650   -0.9890   -1.4240 h1        1 MS7      0.049200
     32 H20A       -2.9720   -1.6100    0.2940 h1        1 MS7      0.049200
     33 H24        -5.5000   -1.6290   -1.5750 ha        1 MS7      0.139000
     34 H26        -7.8670   -1.0730   -1.0400 ha        1 MS7      0.133500
     35 H28        -8.3920    0.5310    0.7980 ha        1 MS7      0.132000
     36 H30        -6.5400    1.5790    2.1030 ha        1 MS7      0.133500
     37 H32        -4.1630    1.0170    1.5730 ha        1 MS7      0.139000
     38 HN36        5.9500   -0.7950    1.7630 hn        1 MS7      0.323500
     39 H38         7.8960   -0.9790   -0.4930 h1        1 MS7      0.043367
     40 H38A        8.2220   -0.0420    1.0400 h1        1 MS7      0.043367
     41 H38B        8.0530   -1.8570    1.1050 h1        1 MS7      0.043367
@<TRIPOS>BOND
     1    1    2 1   
     2    1   22 1   
     3    1   23 1   
     4    2    3 1   
     5    2   18 1   
     6    2   24 1   
     7    3    4 1   
     8    3   25 1   
     9    3   26 1   
    10    4    5 ar  
    11    4    9 ar  
    12    5    6 ar  
    13    5   27 1   
    14    6    7 ar  
    15    6   28 1   
    16    7    8 ar  
    17    7   10 1   
    18    8    9 ar  
    19    8   29 1   
    20    9   30 1   
    21   10   11 1   
    22   11   12 1   
    23   11   31 1   
    24   11   32 1   
    25   12   13 ar  
    26   12   17 ar  
    27   13   14 ar  
    28   13   33 1   
    29   14   15 ar  
    30   14   34 1   
    31   15   16 ar  
    32   15   35 1   
    33   16   17 ar  
    34   16   36 1   
    35   17   37 1   
    36   18   19 2   
    37   18   20 1   
    38   20   21 1   
    39   20   38 1   
    40   21   39 1   
    41   21   40 1   
    42   21   41 1   
@<TRIPOS>SUBSTRUCTURE
     1 MS7         1 TEMP              0 ****  ****    0 ROOT
