@<TRIPOS>MOLECULE
MS8
   34    35     1     0     0
SMALL
bcc


@<TRIPOS>ATOM
      1 O          -0.1930    0.2620   -0.0590 o         1 MS8     -0.807300
      2 C           0.8680   -0.4260   -0.0660 c         1 MS8      0.914600
      3 OXT         1.1770   -1.3210   -0.8810 o         1 MS8     -0.807300
      4 CA          1.9120   -0.0920    1.0690 c3        1 MS8     -0.019500
      5 N           1.2550    0.7160    2.1360 n4        1 MS8     -0.843600
      6 CB          2.5530   -1.3610    1.6110 c3        1 MS8     -0.082400
      7 CAS         3.2870   -1.2170    2.9460 c3        1 MS8      0.011800
      8 CAJ         4.0460   -2.5150    3.2670 c3        1 MS8     -0.092400
      9 CAN         4.2330    0.0250    2.9740 c         1 MS8      0.931600
     10 OAC         3.7310    1.1710    3.2070 o         1 MS8     -0.814300
     11 OAE         5.4530   -0.1620    2.7550 o         1 MS8     -0.814300
     12 OAL         2.3020   -1.0400    3.9940 os        1 MS8     -0.437600
     13 CAR         2.0680   -2.2820    4.6650 c3        1 MS8      0.119100
     14 CAQ         3.3100   -3.1680    4.4440 c3        1 MS8      0.121100
     15 CAH         1.6740   -1.9840    6.1020 c3        1 MS8     -0.071400
     16 CAP         2.8590   -1.9860    7.0380 c3        1 MS8     -0.113400
     17 CAG         3.6850   -3.2360    6.8130 c3        1 MS8      0.134400
     18 OAK         4.2500   -3.2530    5.5130 os        1 MS8     -0.407600
     19 HA          2.7130    0.5640    0.6190 hx        1 MS8      0.094700
     20 HN          0.7470    0.0890    2.7570 hn        1 MS8      0.452467
     21 HNA         1.9900    1.2110    2.6930 hn        1 MS8      0.452467
     22 HB          1.7650   -2.1540    1.7140 hc        1 MS8      0.067200
     23 HBA         3.2800   -1.7060    0.8280 hc        1 MS8      0.067200
     24 HAJ         4.0610   -3.2060    2.3910 hc        1 MS8      0.081700
     25 HAJA        5.1060   -2.2750    3.5460 hc        1 MS8      0.081700
     26 HAR         1.1960   -2.7760    4.1440 h1        1 MS8      0.029700
     27 HAQ         2.9860   -4.2200    4.2120 h1        1 MS8      0.033700
     28 HAH         0.9330   -2.7590    6.4330 hc        1 MS8      0.043200
     29 HAHA        1.1670   -0.9850    6.1360 hc        1 MS8      0.043200
     30 HAP         2.5120   -1.9450    8.1010 hc        1 MS8      0.056700
     31 HAPA        3.4950   -1.0830    6.8380 hc        1 MS8      0.056700
     32 HAG         3.0630   -4.1580    6.9710 h1        1 MS8      0.033200
     33 HAGA        4.5790   -3.2640    7.4930 h1        1 MS8      0.033200
     34 HN3         0.5950    1.3520    1.6810 hn        1 MS8      0.452467
@<TRIPOS>BOND
     1    1    2 1   
     2    2    3 1   
     3    2    4 1   
     4    4    5 1   
     5    4    6 1   
     6    4   19 1   
     7    5   20 1   
     8    5   21 1   
     9    5   34 1   
    10    6    7 1   
    11    6   22 1   
    12    6   23 1   
    13    7    8 1   
    14    7    9 1   
    15    7   12 1   
    16    8   14 1   
    17    8   24 1   
    18    8   25 1   
    19    9   10 1   
    20    9   11 1   
    21   12   13 1   
    22   13   14 1   
    23   13   15 1   
    24   13   26 1   
    25   14   18 1   
    26   14   27 1   
    27   15   16 1   
    28   15   28 1   
    29   15   29 1   
    30   16   17 1   
    31   16   30 1   
    32   16   31 1   
    33   17   18 1   
    34   17   32 1   
    35   17   33 1   
@<TRIPOS>SUBSTRUCTURE
     1 MS8         1 TEMP              0 ****  ****    0 ROOT
