@<TRIPOS>MOLECULE
MS8
   33    34     1     0     0
SMALL
bcc


@<TRIPOS>ATOM
      1 O           1.4920   -2.5930    0.8030 o         1 MS8     -0.871800
      2 C           2.3540   -1.6690    0.9100 c         1 MS8      0.910600
      3 OXT         3.2770   -1.6980    1.7780 o         1 MS8     -0.871800
      4 CA          2.2910   -0.4260   -0.0310 c3        1 MS8      0.067500
      5 N           2.0760   -0.7790   -1.4180 n3        1 MS8     -0.908800
      6 CB          1.3270    0.6030    0.5960 c3        1 MS8     -0.096400
      7 CAS        -0.0130    0.9070   -0.0850 c3        1 MS8      0.036800
      8 CAJ        -1.0640    1.2360    1.0020 c3        1 MS8     -0.088400
      9 CAN         0.1290    2.0700   -1.1120 c         1 MS8      0.930600
     10 OAC         0.5380    1.8210   -2.2780 o         1 MS8     -0.845300
     11 OAE        -0.1660    3.2350   -0.7100 o         1 MS8     -0.845300
     12 OAL        -0.5640   -0.2300   -0.7790 os        1 MS8     -0.391600
     13 CAR        -1.2410   -1.0510    0.1870 c3        1 MS8      0.082100
     14 CAQ        -1.8020   -0.0870    1.2570 c3        1 MS8      0.109100
     15 CAH        -2.2390   -1.9240   -0.5520 c3        1 MS8     -0.064400
     16 CAP        -3.6180   -1.3120   -0.6170 c3        1 MS8     -0.112400
     17 CAG        -4.0290   -0.8430    0.7650 c3        1 MS8      0.144400
     18 OAK        -3.2040    0.2100    1.2240 os        1 MS8     -0.431600
     19 HA          3.3200    0.0460    0.0090 h1        1 MS8      0.027700
     20 HN          1.3860   -1.5100   -1.4550 hn        1 MS8      0.353800
     21 HNA         1.6960    0.0170   -1.9070 hn        1 MS8      0.353800
     22 HB          1.1250    0.2580    1.6460 hc        1 MS8      0.025700
     23 HBA         1.8630    1.5860    0.6710 hc        1 MS8      0.025700
     24 HAJ        -0.5900    1.6190    1.9330 hc        1 MS8      0.057700
     25 HAJA       -1.7680    2.0170    0.6190 hc        1 MS8      0.057700
     26 HAR        -0.4470   -1.7060    0.6670 h1        1 MS8      0.124700
     27 HAQ        -1.5930   -0.5000    2.2810 h1        1 MS8      0.029700
     28 HAH        -1.8510   -2.1010   -1.5900 hc        1 MS8      0.043200
     29 HAHA       -2.2930   -2.9160   -0.0320 hc        1 MS8      0.043200
     30 HAP        -3.6040   -0.4340   -1.3140 hc        1 MS8      0.037200
     31 HAPA       -4.3600   -2.0570   -1.0010 hc        1 MS8      0.037200
     32 HAG        -5.0600   -0.3980    0.7560 h1        1 MS8      0.012700
     33 HAGA       -4.0000   -1.6970    1.4950 h1        1 MS8      0.012700
@<TRIPOS>BOND
     1    1    2 1   
     2    2    3 1   
     3    2    4 1   
     4    4    5 1   
     5    4    6 1   
     6    4   19 1   
     7    5   20 1   
     8    5   21 1   
     9    6    7 1   
    10    6   22 1   
    11    6   23 1   
    12    7    8 1   
    13    7    9 1   
    14    7   12 1   
    15    8   14 1   
    16    8   24 1   
    17    8   25 1   
    18    9   10 1   
    19    9   11 1   
    20   12   13 1   
    21   13   14 1   
    22   13   15 1   
    23   13   26 1   
    24   14   18 1   
    25   14   27 1   
    26   15   16 1   
    27   15   28 1   
    28   15   29 1   
    29   16   17 1   
    30   16   30 1   
    31   16   31 1   
    32   17   18 1   
    33   17   32 1   
    34   17   33 1   
@<TRIPOS>SUBSTRUCTURE
     1 MS8         1 TEMP              0 ****  ****    0 ROOT
