@<TRIPOS>MOLECULE
MS8
   34    35     1     0     0
SMALL
bcc


@<TRIPOS>ATOM
      1 O          -0.1950    0.2730   -0.0520 o         1 MS8     -0.807300
      2 C           0.8620   -0.4220   -0.0610 c         1 MS8      0.914600
      3 OXT         1.1600   -1.3230   -0.8750 o         1 MS8     -0.807300
      4 CA          1.9130   -0.0940    1.0680 c3        1 MS8     -0.019500
      5 N           1.2660    0.7220    2.1350 n4        1 MS8     -0.843600
      6 CB          2.5470   -1.3660    1.6110 c3        1 MS8     -0.082400
      7 CAS         3.2870   -1.2230    2.9430 c3        1 MS8      0.011800
      8 CAJ         4.0370   -2.5260    3.2650 c3        1 MS8     -0.092400
      9 CAN         4.2420    0.0120    2.9650 c         1 MS8      0.931600
     10 OAC         3.7490    1.1620    3.1960 o         1 MS8     -0.814300
     11 OAE         5.4600   -0.1850    2.7410 o         1 MS8     -0.814300
     12 OAL         2.3070   -1.0360    3.9950 os        1 MS8     -0.437600
     13 CAR         2.0660   -2.2760    4.6690 c3        1 MS8      0.119100
     14 CAQ         3.3000   -3.1710    4.4450 c3        1 MS8      0.121100
     15 CAH         1.6790   -1.9710    6.1070 c3        1 MS8     -0.071400
     16 CAP         2.8670   -1.9800    7.0390 c3        1 MS8     -0.113400
     17 CAG         3.6830   -3.2380    6.8130 c3        1 MS8      0.134400
     18 OAK         4.2430   -3.2610    5.5120 os        1 MS8     -0.407600
     19 HA          2.7160    0.5560    0.6140 hx        1 MS8      0.094700
     20 HN          2.0060    1.2140    2.6890 hn        1 MS8      0.452467
     21 HNA         0.7550    0.1010    2.7600 hn        1 MS8      0.452467
     22 HB          1.7530   -2.1520    1.7190 hc        1 MS8      0.067200
     23 HBA         3.2680   -1.7180    0.8260 hc        1 MS8      0.067200
     24 HAJ         4.0450   -3.2190    2.3900 hc        1 MS8      0.081200
     25 HAJA        5.1000   -2.2930    3.5400 hc        1 MS8      0.081200
     26 HAR         1.1880   -2.7640    4.1520 h1        1 MS8      0.029700
     27 HAQ         2.9670   -4.2210    4.2170 h1        1 MS8      0.033700
     28 HAH         1.1800   -0.9670    6.1410 hc        1 MS8      0.043200
     29 HAHA        0.9330   -2.7390    6.4410 hc        1 MS8      0.043200
     30 HAP         3.5100   -1.0830    6.8350 hc        1 MS8      0.056700
     31 HAPA        2.5240   -1.9340    8.1030 hc        1 MS8      0.056700
     32 HAG         3.0540   -4.1540    6.9750 h1        1 MS8      0.033200
     33 HAGA        4.5780   -3.2710    7.4900 h1        1 MS8      0.033200
     34 HN3         0.6080    1.3620    1.6820 hn        1 MS8      0.452467
@<TRIPOS>BOND
     1    1    2 1   
     2    2    3 1   
     3    2    4 1   
     4    4    5 1   
     5    4    6 1   
     6    4   19 1   
     7    5   20 1   
     8    5   21 1   
     9    5   34 1   
    10    6    7 1   
    11    6   22 1   
    12    6   23 1   
    13    7    8 1   
    14    7    9 1   
    15    7   12 1   
    16    8   14 1   
    17    8   24 1   
    18    8   25 1   
    19    9   10 1   
    20    9   11 1   
    21   12   13 1   
    22   13   14 1   
    23   13   15 1   
    24   13   26 1   
    25   14   18 1   
    26   14   27 1   
    27   15   16 1   
    28   15   28 1   
    29   15   29 1   
    30   16   17 1   
    31   16   30 1   
    32   16   31 1   
    33   17   18 1   
    34   17   32 1   
    35   17   33 1   
@<TRIPOS>SUBSTRUCTURE
     1 MS8         1 TEMP              0 ****  ****    0 ROOT
