@<TRIPOS>MOLECULE
MS8
   34    35     1     0     0
SMALL
bcc


@<TRIPOS>ATOM
      1 O          -0.1910    0.2520   -0.0640 o         1 MS8     -0.807300
      2 C           0.8720   -0.4320   -0.0690 c         1 MS8      0.914600
      3 OXT         1.1850   -1.3280   -0.8830 o         1 MS8     -0.807300
      4 CA          1.9130   -0.0950    1.0670 c3        1 MS8     -0.019500
      5 N           1.2520    0.7120    2.1320 nz        1 MS8     -0.843600
      6 CB          2.5570   -1.3620    1.6110 c3        1 MS8     -0.082400
      7 CAS         3.2890   -1.2140    2.9480 c3        1 MS8      0.011800
      8 CAJ         4.0500   -2.5100    3.2710 c3        1 MS8     -0.092400
      9 CAN         4.2310    0.0310    2.9770 c         1 MS8      0.931600
     10 OAC         3.7250    1.1750    3.2070 o         1 MS8     -0.814300
     11 OAE         5.4520   -0.1530    2.7600 o         1 MS8     -0.814300
     12 OAL         2.3000   -1.0400    3.9940 os        1 MS8     -0.437600
     13 CAR         2.0690   -2.2830    4.6640 c3        1 MS8      0.119100
     14 CAQ         3.3130   -3.1660    4.4450 c3        1 MS8      0.121100
     15 CAH         1.6710   -1.9860    6.1000 c3        1 MS8     -0.071400
     16 CAP         2.8530   -1.9850    7.0390 c3        1 MS8     -0.113400
     17 CAG         3.6830   -3.2340    6.8150 c3        1 MS8      0.134400
     18 OAK         4.2510   -3.2480    5.5170 os        1 MS8     -0.407600
     19 HA          2.7120    0.5630    0.6180 hx        1 MS8      0.094700
     20 HN          0.5900    1.3460    1.6770 hn        1 MS8      0.452467
     21 HNA         0.7450    0.0840    2.7530 hn        1 MS8      0.452467
     22 HB          3.2870   -1.7040    0.8290 hc        1 MS8      0.067200
     23 HBA         1.7720   -2.1570    1.7130 hc        1 MS8      0.067200
     24 HAJ         5.1090   -2.2670    3.5520 hc        1 MS8      0.081200
     25 HAJA        4.0710   -3.2010    2.3940 hc        1 MS8      0.081200
     26 HAR         1.1990   -2.7790    4.1410 h1        1 MS8      0.029700
     27 HAQ         2.9920   -4.2180    4.2120 h1        1 MS8      0.033700
     28 HAH         1.1610   -0.9870    6.1330 hc        1 MS8      0.043200
     29 HAHA        0.9300   -2.7620    6.4290 hc        1 MS8      0.043200
     30 HAP         3.4880   -1.0810    6.8410 hc        1 MS8      0.056700
     31 HAPA        2.5040   -1.9450    8.1010 hc        1 MS8      0.056700
     32 HAG         4.5750   -3.2600    7.4970 h1        1 MS8      0.033200
     33 HAGA        3.0620   -4.1570    6.9710 h1        1 MS8      0.033200
     34 HN3         1.9850    1.2100    2.6910 hn        1 MS8      0.452467
@<TRIPOS>BOND
     1    1    2 1   
     2    2    3 1   
     3    2    4 1   
     4    4    5 1   
     5    4    6 1   
     6    4   19 1   
     7    5   20 1   
     8    5   21 1   
     9    5   34 1   
    10    6    7 1   
    11    6   22 1   
    12    6   23 1   
    13    7    8 1   
    14    7    9 1   
    15    7   12 1   
    16    8   14 1   
    17    8   24 1   
    18    8   25 1   
    19    9   10 1   
    20    9   11 1   
    21   12   13 1   
    22   13   14 1   
    23   13   15 1   
    24   13   26 1   
    25   14   18 1   
    26   14   27 1   
    27   15   16 1   
    28   15   28 1   
    29   15   29 1   
    30   16   17 1   
    31   16   30 1   
    32   16   31 1   
    33   17   18 1   
    34   17   32 1   
    35   17   33 1   
@<TRIPOS>SUBSTRUCTURE
     1 MS8         1 TEMP              0 ****  ****    0 ROOT
