@<TRIPOS>MOLECULE
MS8
   33    33     1     0     0
SMALL
bcc


@<TRIPOS>ATOM
      1 O          -1.7040   -0.9960   -4.2400 o         1 MS8     -0.577000
      2 C          -0.6430   -1.4340   -3.7690 c1        1 MS8      0.306000
      3 OXT         0.3320   -1.6900   -4.5360 os        1 MS8     -0.624000
      4 CA         -0.5280   -1.6890   -2.3110 c3        1 MS8     -0.122000
      5 N          -0.4460   -3.1040   -2.0770 n3        1 MS8     -0.326000
      6 CB          0.7400   -1.0090   -1.7680 c3        1 MS8     -0.126000
      7 CAS         0.3700   -0.0960   -0.5890 c3        1 MS8      0.021000
      8 CAJ         1.5100    0.2010    0.4710 c3        1 MS8     -0.182000
      9 CAN        -0.1570    1.1330   -1.3740 c2        1 MS8      0.331000
     10 OAC         0.6640    2.0440   -1.7730 o         1 MS8     -0.587000
     11 OAE        -1.3800    1.2330   -1.6360 o         1 MS8     -0.587000
     12 OAL        -0.5800   -0.7980    0.2400 os        1 MS8     -0.259000
     13 CAR        -0.3880   -0.2570    1.6940 c3        1 MS8      0.027000
     14 CAQ         0.9000   -0.1380    1.8700 c3        1 MS8      0.007000
     15 CAH        -1.0910    1.1030    1.6450 c3        1 MS8     -0.208000
     16 CAP        -0.7490    1.9670    2.7810 c3        1 MS8     -0.173000
     17 CAG         0.6890    2.0780    2.9680 c3        1 MS8     -0.022000
     18 OAK         1.2950    0.8510    3.0570 os        1 MS8     -0.296000
     19 HA         -1.3260   -1.3220   -1.8480 h1        1 MS8      0.094000
     20 HN         -1.2950   -3.4570   -2.0180 hn        1 MS8      0.113500
     21 HNA         0.0070   -3.5060   -2.7740 hn        1 MS8      0.113500
     22 HB          1.1470   -0.4840   -2.4640 hc        1 MS8      0.099000
     23 HBA         1.3730   -1.6950   -1.4640 hc        1 MS8      0.099000
     24 HAJ         1.7700    1.1540    0.4340 hc        1 MS8      0.089500
     25 HAJA        2.2860   -0.3670    0.2970 hc        1 MS8      0.089500
     26 HAR        -0.7960   -0.8530    2.3600 h1        1 MS8      0.071000
     27 HAQ         1.2240   -0.9950    2.1120 h1        1 MS8      0.124000
     28 HAH        -2.0420    0.9580    1.6440 hc        1 MS8      0.115000
     29 HAHA       -0.8390    1.5600    0.8130 hc        1 MS8      0.115000
     30 HAP        -1.1580    1.5910    3.6100 hc        1 MS8      0.055500
     31 HAPA       -1.1200    2.8640    2.6210 hc        1 MS8      0.055500
     32 HAG         0.8680    2.5920    3.8100 h1        1 MS8      0.079000
     33 HAGA        1.0690    2.5620    2.2160 h1        1 MS8      0.079000
@<TRIPOS>BOND
     1    1    2 1   
     2    2    4 1   
     3    4    5 1   
     4    4    6 1   
     5    4   19 1   
     6    5   20 1   
     7    5   21 1   
     8    6    7 1   
     9    6   22 1   
    10    6   23 1   
    11    7    8 1   
    12    7    9 1   
    13    7   12 1   
    14    8   14 1   
    15    8   24 1   
    16    8   25 1   
    17    9   10 1   
    18    9   11 1   
    19   12   13 1   
    20   13   14 1   
    21   13   15 1   
    22   13   26 1   
    23   14   18 1   
    24   14   27 1   
    25   15   16 1   
    26   15   28 1   
    27   15   29 1   
    28   16   17 1   
    29   16   30 1   
    30   16   31 1   
    31   17   18 1   
    32   17   32 1   
    33   17   33 1   
@<TRIPOS>SUBSTRUCTURE
     1 MS8         1 TEMP              0 ****  ****    0 ROOT
