@<TRIPOS>MOLECULE
MS9
   20    20     1     0     0
SMALL
bcc


@<TRIPOS>ATOM
      1 Cl1         0.0710   -0.0810   -0.1090 cl        1 MS9     -0.088400
      2 C2          1.7700   -0.0390   -0.0340 ca        1 MS9      0.103400
      3 C3          2.3950   -0.0420    1.2000 ca        1 MS9     -0.240000
      4 C5          3.8200   -0.0050    1.2900 ca        1 MS9      0.271600
      5 C6          4.5660    0.0170    0.0740 ca        1 MS9     -0.237600
      6 C7          3.8900    0.0250   -1.1560 ca        1 MS9     -0.012000
      7 C9          2.5080   -0.0020   -1.2280 ca        1 MS9     -0.211000
      8 C11         6.0290    0.0240    0.0820 c         1 MS9      0.662700
      9 O12         6.8120   -0.0690    1.0380 o         1 MS9     -0.580000
     10 O13         6.5960    0.1420   -1.1630 os        1 MS9     -0.438900
     11 C14         8.0240    0.1470   -1.2150 c3        1 MS9      0.129700
     12 N18         4.4140    0.0460    2.5220 nv        1 MS9     -0.863200
     13 H3          1.7940   -0.0690    2.1220 ha        1 MS9      0.150000
     14 H7          4.4840    0.0520   -2.0870 ha        1 MS9      0.158000
     15 H9          1.9970    0.0040   -2.2000 ha        1 MS9      0.153000
     16 H14         8.4240    1.0080   -0.6290 h1        1 MS9      0.051367
     17 H14A        8.4240   -0.8120   -0.8070 h1        1 MS9      0.051367
     18 H14B        8.2440    0.2540   -2.3060 h1        1 MS9      0.051367
     19 HN18        5.4020   -0.0290    2.6010 hn        1 MS9      0.445300
     20 HN1A        3.8600   -0.1000    3.3270 hn        1 MS9      0.445300
@<TRIPOS>BOND
     1    1    2 1   
     2    2    3 ar  
     3    2    7 ar  
     4    3    4 ar  
     5    3   13 1   
     6    4    5 ar  
     7    4   12 1   
     8    5    6 ar  
     9    5    8 1   
    10    6    7 ar  
    11    6   14 1   
    12    7   15 1   
    13    8    9 2   
    14    8   10 1   
    15   10   11 1   
    16   11   16 1   
    17   11   17 1   
    18   11   18 1   
    19   12   19 1   
    20   12   20 1   
@<TRIPOS>SUBSTRUCTURE
     1 MS9         1 TEMP              0 ****  ****    0 ROOT
