@<TRIPOS>MOLECULE
MS9
   20    18     1     0     0
SMALL
bcc


@<TRIPOS>ATOM
      1 CL1        -4.6850    0.4830   -0.1380 cl        1 MS9     -0.009000
      2 C2         -2.9370    0.3220   -0.1690 c2        1 MS9      0.014000
      3 C3         -2.2340    0.2330    1.0070 c2        1 MS9     -0.223000
      4 C5         -0.8460    0.1870    0.9850 c1        1 MS9      0.161000
      5 C6         -0.1690    0.2300   -0.2160 c1        1 MS9     -0.193000
      6 C7         -0.8790    0.3210   -1.4050 c1        1 MS9     -0.026000
      7 C9         -2.2640    0.3670   -1.3800 c1        1 MS9     -0.194000
      8 C11         1.3690    0.1950   -0.2280 c2        1 MS9      0.356000
      9 O12         1.9800    1.1980   -0.3210 o         1 MS9     -0.352000
     10 O13         2.0320   -1.0080   -0.0940 os        1 MS9     -0.299000
     11 C14         3.4030   -0.9820   -0.5850 c3        1 MS9     -0.060000
     12 N18        -0.1520    0.1280    2.1520 n3        1 MS9     -0.348000
     13 H3         -2.7350    0.1950    1.9050 ha        1 MS9      0.150000
     14 H7         -0.4060    0.3520   -2.2560 ha        1 MS9      0.158000
     15 H9         -2.7780    0.4290   -2.2340 ha        1 MS9      0.154000
     16 H14         3.8690   -1.7760   -0.2830 h1        1 MS9      0.091333
     17 H14A        3.4020   -0.9530   -1.5860 h1        1 MS9      0.091333
     18 H14B        3.8480   -0.2010   -0.2450 h1        1 MS9      0.091333
     19 HN18        0.7690    0.3320    2.1640 hn        1 MS9      0.218500
     20 HN1A       -0.5880   -0.0510    2.9270 hn        1 MS9      0.218500
@<TRIPOS>BOND
     1    1    2 1   
     2    2    3 1   
     3    2    7 1   
     4    3    4 1   
     5    3   13 1   
     6    4   12 1   
     7    5    6 1   
     8    5    8 1   
     9    6   14 1   
    10    7   15 1   
    11    8    9 1   
    12    8   10 1   
    13   10   11 1   
    14   11   16 1   
    15   11   17 1   
    16   11   18 1   
    17   12   19 1   
    18   12   20 1   
@<TRIPOS>SUBSTRUCTURE
     1 MS9         1 TEMP              0 ****  ****    0 ROOT
