@<TRIPOS>MOLECULE
MS9
   21    21     1     0     0
SMALL
bcc


@<TRIPOS>ATOM
      1 CL1         0.0440   -0.0390   -0.0980 cl        1 MS9      0.007600
      2 C2          1.7270   -0.0150   -0.0540 ca        1 MS9      0.057400
      3 C3          2.3810   -0.0310    1.1880 ca        1 MS9     -0.119000
      4 C5          3.7800   -0.0110    1.2270 ca        1 MS9     -0.000400
      5 C6          4.5370    0.0280    0.0310 ca        1 MS9     -0.116600
      6 C7          3.8610    0.0410   -1.1920 ca        1 MS9     -0.034000
      7 C9          2.4660    0.0190   -1.2410 ca        1 MS9     -0.088000
      8 C11         6.0130    0.0660    0.0640 c         1 MS9      0.646700
      9 O12         6.7150    0.1110    1.0880 o         1 MS9     -0.588000
     10 O13         6.6110    0.0520   -1.1470 os        1 MS9     -0.397900
     11 C14         8.0500    0.0950   -1.1620 c3        1 MS9      0.124700
     12 N18         4.4550   -0.0410    2.5250 n4        1 MS9     -0.712000
     13 H3          1.7770   -0.0590    2.1130 ha        1 MS9      0.175000
     14 H7          4.4470    0.0710   -2.1310 ha        1 MS9      0.197000
     15 H9          1.9510    0.0300   -2.2190 ha        1 MS9      0.192000
     16 H14         8.4020    1.0370   -0.6780 h1        1 MS9      0.075033
     17 H14A        8.2860    0.0740   -2.2560 h1        1 MS9      0.075033
     18 H14B        8.4570   -0.7970   -0.6300 h1        1 MS9      0.075033
     19 HN18        4.8290   -0.9850    2.6900 hn        1 MS9      0.476800
     20 HN1A        5.2600    0.6140    2.5120 hn        1 MS9      0.476800
     21 H183        3.8060    0.2120    3.2760 hn        1 MS9      0.476800
@<TRIPOS>BOND
     1    1    2 1   
     2    2    3 ar  
     3    2    7 ar  
     4    3    4 ar  
     5    3   13 1   
     6    4    5 ar  
     7    4   12 1   
     8    5    6 ar  
     9    5    8 1   
    10    6    7 ar  
    11    6   14 1   
    12    7   15 1   
    13    8    9 2   
    14    8   10 1   
    15   10   11 1   
    16   11   16 1   
    17   11   17 1   
    18   11   18 1   
    19   12   19 1   
    20   12   20 1   
    21   12   21 1   
@<TRIPOS>SUBSTRUCTURE
     1 MS9         1 TEMP              0 ****  ****    0 ROOT
