@<TRIPOS>MOLECULE
MS9
   20    20     1     0     0
SMALL
bcc


@<TRIPOS>ATOM
      1 CL1        -3.7500   -0.4130    0.0210 cl        1 MS9     -0.088400
      2 C2         -2.0580   -0.2440    0.0070 ca        1 MS9      0.103400
      3 C3         -1.5020    1.0230   -0.0200 ca        1 MS9     -0.240000
      4 C5         -0.0840    1.1910   -0.0350 ca        1 MS9      0.271600
      5 C6          0.7290    0.0190   -0.0030 ca        1 MS9     -0.237600
      6 C7          0.1220   -1.2470    0.0180 ca        1 MS9     -0.012000
      7 C9         -1.2540   -1.3950    0.0240 ca        1 MS9     -0.211000
      8 C11         2.1880    0.1090    0.0160 c         1 MS9      0.662700
      9 O12         2.9160    1.1100    0.0890 o         1 MS9     -0.580000
     10 O13         2.8260   -1.1060   -0.0490 os        1 MS9     -0.438900
     11 C14         4.2540   -1.0780   -0.0270 c3        1 MS9      0.129700
     12 N18         0.4420    2.4510   -0.1170 nh        1 MS9     -0.863200
     13 H3         -2.1540    1.9100   -0.0350 ha        1 MS9      0.150000
     14 H7          0.7670   -2.1430    0.0340 ha        1 MS9      0.158000
     15 H9         -1.7100   -2.3940    0.0420 ha        1 MS9      0.153000
     16 H14         4.5370   -2.1580   -0.0920 h1        1 MS9      0.051367
     17 H14A        4.6380   -0.5000   -0.9010 h1        1 MS9      0.051367
     18 H14B        4.6120   -0.6160    0.9240 h1        1 MS9      0.051367
     19 HN18       -0.1590    3.2290   -0.0080 hn        1 MS9      0.445300
     20 HN1A        1.4220    2.5880   -0.0280 hn        1 MS9      0.445300
@<TRIPOS>BOND
     1    1    2 1   
     2    2    3 ar  
     3    2    7 ar  
     4    3    4 ar  
     5    3   13 1   
     6    4    5 ar  
     7    4   12 1   
     8    5    6 ar  
     9    5    8 1   
    10    6    7 ar  
    11    6   14 1   
    12    7   15 1   
    13    8    9 2   
    14    8   10 1   
    15   10   11 1   
    16   11   16 1   
    17   11   17 1   
    18   11   18 1   
    19   12   19 1   
    20   12   20 1   
@<TRIPOS>SUBSTRUCTURE
     1 MS9         1 TEMP              0 ****  ****    0 ROOT
