@<TRIPOS>MOLECULE
MSA
   16    15     1     0     0
SMALL
bcc


@<TRIPOS>ATOM
      1 N          -1.3070    0.5050    0.7800 n3        1 MSA     -0.814200
      2 CA         -0.2990   -0.3690    0.2100 c3        1 MSA      0.129600
      3 C          -0.1970   -0.3190   -1.3550 c         1 MSA      0.911600
      4 O           0.0920   -1.3940   -1.9400 o         1 MSA     -0.818800
      5 OXT        -0.4740    0.7730   -1.9230 o         1 MSA     -0.818800
      6 CN         -2.6500   -0.0060    0.6410 c3        1 MSA      0.155100
      7 SB          1.3370    0.0410    0.8500 ss        1 MSA     -0.313200
      8 CG          1.1750   -0.2240    2.5730 c3        1 MSA     -0.035000
      9 H          -1.2410    1.3950    0.3060 hn        1 MSA      0.374800
     10 HA         -0.5170   -1.4300    0.5060 h2        1 MSA      0.060700
     11 HN1        -3.3640    0.7480    1.0650 h1        1 MSA      0.015700
     12 HN2        -2.9460   -0.2200   -0.4220 h1        1 MSA      0.015700
     13 HN3        -2.7460   -0.9580    1.2270 h1        1 MSA      0.015700
     14 HG1         2.1820   -0.0630    3.0180 h1        1 MSA      0.041033
     15 HG2         0.4540    0.4840    3.0390 h1        1 MSA      0.041033
     16 HG3         0.8370   -1.2600    2.8000 h1        1 MSA      0.041033
@<TRIPOS>BOND
     1    1    2 1   
     2    1    6 1   
     3    1    9 1   
     4    2    3 1   
     5    2    7 1   
     6    2   10 1   
     7    3    4 1   
     8    3    5 1   
     9    6   11 1   
    10    6   12 1   
    11    6   13 1   
    12    7    8 1   
    13    8   14 1   
    14    8   15 1   
    15    8   16 1   
@<TRIPOS>SUBSTRUCTURE
     1 MSA         1 TEMP              0 ****  ****    0 ROOT
