@<TRIPOS>MOLECULE
MSB
   19    19     1     0     0
SMALL
bcc


@<TRIPOS>ATOM
      1 S           0.0230   -0.0350   -0.0240 sy        1 MSB      1.401300
      2 OB1         1.4240    0.0080    0.0110 o         1 MSB     -0.654800
      3 OB2        -0.6770    0.0700    1.1860 o         1 MSB     -0.654800
      4 CG         -0.5180   -1.3210   -0.9190 ca        1 MSB     -0.446500
      5 CD1        -1.7920   -1.8620   -0.7020 ca        1 MSB      0.022000
      6 CD2         0.2990   -1.9050   -1.9020 ca        1 MSB      0.022000
      7 CE1        -2.2550   -2.9460   -1.4380 ca        1 MSB     -0.210500
      8 CE2        -0.1340   -2.9850   -2.6520 ca        1 MSB     -0.210500
      9 CZ         -1.4240   -3.5080   -2.4190 ca        1 MSB      0.197100
     10 OH         -1.7680   -4.5740   -3.2120 os        1 MSB     -0.316900
     11 CH         -3.0590   -5.1420   -2.9960 c3        1 MSB      0.108700
     12 HD1        -2.4360   -1.4220    0.0820 ha        1 MSB      0.159000
     13 HD2         1.3130   -1.4970   -2.0660 ha        1 MSB      0.159000
     14 HE1        -3.2580   -3.3510   -1.2440 ha        1 MSB      0.155000
     15 HE2         0.5050   -3.4440   -3.4200 ha        1 MSB      0.155000
     16 HH1        -3.1450   -5.5350   -1.9540 h1        1 MSB      0.052700
     17 HH2        -3.0980   -5.9780   -3.7400 h1        1 MSB      0.052700
     18 HH3        -3.8570   -4.3890   -3.2030 h1        1 MSB      0.052700
     19 HS1        -0.3690    0.8580   -0.7720 hs        1 MSB     -0.043200
@<TRIPOS>BOND
     1    1    2 2   
     2    1    3 2   
     3    1    4 1   
     4    1   19 1   
     5    4    5 ar  
     6    4    6 ar  
     7    5    7 ar  
     8    5   12 1   
     9    6    8 ar  
    10    6   13 1   
    11    7    9 ar  
    12    7   14 1   
    13    8    9 ar  
    14    8   15 1   
    15    9   10 1   
    16   10   11 1   
    17   11   16 1   
    18   11   17 1   
    19   11   18 1   
@<TRIPOS>SUBSTRUCTURE
     1 MSB         1 TEMP              0 ****  ****    0 ROOT
