@<TRIPOS>MOLECULE
MSB
   19    19     1     0     0
SMALL
bcc


@<TRIPOS>ATOM
      1 S           0.0260   -0.0370   -0.0240 sy        1 MSB      1.401300
      2 OB1         1.4270    0.0100    0.0030 o         1 MSB     -0.654800
      3 OB2        -0.6670    0.0630    1.1910 o         1 MSB     -0.654800
      4 CG         -0.5170   -1.3210   -0.9190 ca        1 MSB     -0.446500
      5 CD1        -1.7880   -1.8660   -0.6970 ca        1 MSB      0.022000
      6 CD2         0.2950   -1.9010   -1.9090 ca        1 MSB      0.022000
      7 CE1        -2.2530   -2.9490   -1.4340 ca        1 MSB     -0.210500
      8 CE2        -0.1390   -2.9790   -2.6600 ca        1 MSB     -0.210500
      9 CZ         -1.4260   -3.5060   -2.4210 ca        1 MSB      0.197100
     10 OH         -1.7720   -4.5710   -3.2150 os        1 MSB     -0.316900
     11 CH         -3.0600   -5.1420   -2.9940 c3        1 MSB      0.108700
     12 HD1        -2.4290   -1.4300    0.0920 ha        1 MSB      0.159000
     13 HD2         1.3080   -1.4900   -2.0770 ha        1 MSB      0.159000
     14 HE1        -3.2540   -3.3570   -1.2350 ha        1 MSB      0.155000
     15 HE2         0.4970   -3.4340   -3.4330 ha        1 MSB      0.155000
     16 HH1        -3.1400   -5.5380   -1.9530 h1        1 MSB      0.052700
     17 HH2        -3.1020   -5.9750   -3.7400 h1        1 MSB      0.052700
     18 HH3        -3.8620   -4.3900   -3.1940 h1        1 MSB      0.052700
     19 HS1        -0.3720    0.8580   -0.7660 hs        1 MSB     -0.043200
@<TRIPOS>BOND
     1    1    2 2   
     2    1    3 2   
     3    1    4 1   
     4    1   19 1   
     5    4    5 ar  
     6    4    6 ar  
     7    5    7 ar  
     8    5   12 1   
     9    6    8 ar  
    10    6   13 1   
    11    7    9 ar  
    12    7   14 1   
    13    8    9 ar  
    14    8   15 1   
    15    9   10 1   
    16   10   11 1   
    17   11   16 1   
    18   11   17 1   
    19   11   18 1   
@<TRIPOS>SUBSTRUCTURE
     1 MSB         1 TEMP              0 ****  ****    0 ROOT
