@<TRIPOS>MOLECULE
MSB
   19    19     1     0     0
SMALL
bcc


@<TRIPOS>ATOM
      1 S           1.7330   -1.2180    4.3830 sy        1 MSB      1.401300
      2 OB1         2.5920   -2.2230    4.8490 o         1 MSB     -0.654800
      3 OB2         0.4130   -1.1960    4.8560 o         1 MSB     -0.654800
      4 CG          1.7770   -1.1050    2.7300 ca        1 MSB     -0.446500
      5 CD1         0.6980   -0.5670    2.0170 ca        1 MSB      0.022000
      6 CD2         2.8930   -1.5640    2.0100 ca        1 MSB      0.022000
      7 CE1         0.7180   -0.4750    0.6310 ca        1 MSB     -0.210500
      8 CE2         2.9440   -1.4860    0.6290 ca        1 MSB     -0.210500
      9 CZ          1.8460   -0.9340   -0.0670 ca        1 MSB      0.197100
     10 OH          1.9870   -0.8930   -1.4310 os        1 MSB     -0.316900
     11 CH          0.8920   -0.3570   -2.1720 c3        1 MSB      0.108700
     12 HD1        -0.1930   -0.2200    2.5720 ha        1 MSB      0.159000
     13 HD2         3.7410   -2.0090    2.5630 ha        1 MSB      0.159000
     14 HE1        -0.1440   -0.0510    0.0980 ha        1 MSB      0.155000
     15 HE2         3.8160   -1.8470    0.0640 ha        1 MSB      0.155000
     16 HH1        -0.0290   -0.9680   -2.0080 h1        1 MSB      0.052700
     17 HH2         1.2380   -0.4370   -3.2340 h1        1 MSB      0.052700
     18 HH3         0.7150    0.7100   -1.8920 h1        1 MSB      0.052700
     19 HS1         2.2460   -0.1290    4.6330 hs        1 MSB     -0.043200
@<TRIPOS>BOND
     1    1    2 2   
     2    1    3 2   
     3    1    4 1   
     4    1   19 1   
     5    4    5 ar  
     6    4    6 ar  
     7    5    7 ar  
     8    5   12 1   
     9    6    8 ar  
    10    6   13 1   
    11    7    9 ar  
    12    7   14 1   
    13    8    9 ar  
    14    8   15 1   
    15    9   10 1   
    16   10   11 1   
    17   11   16 1   
    18   11   17 1   
    19   11   18 1   
@<TRIPOS>SUBSTRUCTURE
     1 MSB         1 TEMP              0 ****  ****    0 ROOT
