@<TRIPOS>MOLECULE
MSB
   19    15     1     0     0
SMALL
bcc


@<TRIPOS>ATOM
      1 S           1.3340    2.8240    1.1850 ss        1 MSB      2.863000
      2 OB1         0.4250    3.3550    2.1460 o         1 MSB     -0.934000
      3 OB2         1.4220    3.9010    0.2630 o         1 MSB     -0.934000
      4 CG          0.6680    1.3430    0.3980 c1        1 MSB     -0.891000
      5 CD1         1.4590    0.1900    0.2940 c2        1 MSB      0.016000
      6 CD2        -0.6250    1.3420   -0.1090 c1        1 MSB      0.028000
      7 CE1         0.9560   -0.9400   -0.3080 c1        1 MSB     -0.185000
      8 CE2        -1.1310    0.2060   -0.7140 c1        1 MSB     -0.236000
      9 CZ         -0.3440   -0.9370   -0.8160 c1        1 MSB      0.152000
     10 OH         -0.8390   -2.0670   -1.4550 os        1 MSB     -0.200000
     11 CH         -1.4920   -2.9810   -0.5780 c3        1 MSB     -0.081000
     12 HD1         2.3760    0.1910    0.6490 ha        1 MSB      0.160000
     13 HD2        -1.1670    2.1270   -0.0380 ha        1 MSB      0.158000
     14 HE1         1.5240   -1.7690   -0.3810 ha        1 MSB      0.161000
     15 HE2        -2.0130    0.2070   -1.0590 ha        1 MSB      0.149000
     16 HH1        -0.8740   -3.3140    0.0440 h1        1 MSB      0.092000
     17 HH2        -1.8740   -3.7430   -1.1090 h1        1 MSB      0.092000
     18 HH3        -2.2170   -2.5140   -0.1020 h1        1 MSB      0.092000
     19 HS1         2.4150    2.5800    1.6900 DU        1 MSB     -0.502000
@<TRIPOS>BOND
     1    1    2 1   
     2    1    3 1   
     3    4    5 1   
     4    4    6 1   
     5    5    7 1   
     6    5   12 1   
     7    6   13 1   
     8    7   14 1   
     9    8    9 1   
    10    8   15 1   
    11    9   10 1   
    12   10   11 1   
    13   11   16 1   
    14   11   17 1   
    15   11   18 1   
@<TRIPOS>SUBSTRUCTURE
     1 MSB         1 TEMP              0 ****  ****    0 ROOT
