@<TRIPOS>MOLECULE
MSD
   45    42     1     0     0
SMALL
bcc


@<TRIPOS>ATOM
      1 C2         -3.8320    4.0540    0.3740 c1        1 MSD     -0.112000
      2 C3         -3.3270    3.3480   -0.7130 c1        1 MSD      0.017000
      3 N4         -2.3020    2.4550   -0.5340 n1        1 MSD     -0.220000
      4 C5         -1.7750    2.2580    0.7110 c1        1 MSD      0.154000
      5 C6         -2.2800    2.9660    1.8010 c1        1 MSD     -0.238000
      6 C7         -3.3040    3.8580    1.6230 c1        1 MSD     -0.018000
      7 N8         -0.6860    1.3330    0.8940 n         1 MSD     -0.288000
      8 C9         -0.1130    0.6540   -0.2470 c2        1 MSD      0.182000
      9 S10         1.3460   -0.1490   -0.0950 s         1 MSD     -0.315000
     10 N11        -0.7330    0.7730   -1.5350 n         1 MSD     -0.259000
     11 C12        -1.1840   -0.4100   -2.2310 cx        1 MSD     -0.038000
     12 C13        -1.8100   -1.4890   -1.3600 cx        1 MSD     -0.200000
     13 C14        -0.4140   -1.6880   -1.9330 cx        1 MSD     -0.121000
     14 C15         0.7440   -1.5530   -0.9320 c2        1 MSD     -0.113000
     15 C16         2.0120   -1.1800   -1.3820 c2        1 MSD      0.150000
     16 C18         3.0940   -1.2020   -0.5100 c1        1 MSD     -0.252000
     17 C19         2.9150   -1.5980    0.8150 c1        1 MSD     -0.021000
     18 C20         1.6510   -1.9700    1.2660 c1        1 MSD     -0.275000
     19 C21         0.5640   -1.9480    0.3920 c1        1 MSD      0.186000
     20 O22        -0.6870   -2.4740    0.8080 oh        1 MSD     -0.269000
     21 C23         1.4680   -2.4600    2.6930 c2        1 MSD      0.296000
     22 O24         0.3620   -2.7860    3.0880 o         1 MSD     -0.352000
     23 C25         2.6780   -2.6030    3.6110 c3        1 MSD     -0.265000
     24 O41         2.2040   -0.8230   -2.7420 os        1 MSD     -0.201000
     25 C42        -4.9220    5.0880    0.1660 c1        1 MSD     -0.086000
     26 N43        -5.7430    5.8660    0.0090 n1        1 MSD     -0.035000
     27 C44         3.5650   -0.8250   -3.1510 c3        1 MSD     -0.078000
     28 HC3        -3.7050    3.4880   -1.6080 ha        1 MSD      0.195000
     29 HC6        -1.9010    2.8240    2.6980 ha        1 MSD      0.154000
     30 HC7        -3.6620    4.3590    2.3940 ha        1 MSD      0.154000
     31 HN8        -0.3290    1.2020    1.7320 hn        1 MSD      0.277000
     32 H11N       -0.7850    1.5930   -1.9440 hn        1 MSD      0.271000
     33 H12C       -1.5480   -0.3330   -3.1410 h1        1 MSD      0.181000
     34 H131       -2.5240   -2.0180   -1.7820 hc        1 MSD      0.127500
     35 H132       -1.8510   -1.2900   -0.4020 hc        1 MSD      0.127500
     36 H14C       -0.3460   -2.3290   -2.6780 hc        1 MSD      0.145000
     37 H18C        3.9820   -0.9400   -0.8270 ha        1 MSD      0.146000
     38 H19C        3.6810   -1.6130    1.4300 ha        1 MSD      0.138000
     39 H22O       -0.9470   -2.0660    1.5520 ho        1 MSD      0.263000
     40 H251        3.3250   -3.2240    3.2070 hc        1 MSD      0.108667
     41 H252        3.1000   -1.7230    3.7340 hc        1 MSD      0.108667
     42 H253        2.3890   -2.9520    4.4820 hc        1 MSD      0.108667
     43 H441        3.7480   -0.0190   -3.6840 h1        1 MSD      0.090000
     44 H442        4.1440   -0.8330   -2.3600 h1        1 MSD      0.090000
     45 H443        3.7420   -1.6250   -3.6950 h1        1 MSD      0.090000
@<TRIPOS>BOND
     1    1    6 1   
     2    1   25 1   
     3    2    3 1   
     4    2   28 1   
     5    4    5 1   
     6    4    7 1   
     7    5   29 1   
     8    6   30 1   
     9    7    8 1   
    10    7   31 1   
    11    8    9 1   
    12    8   10 1   
    13   10   11 1   
    14   10   32 1   
    15   11   12 1   
    16   11   13 1   
    17   11   33 1   
    18   12   13 1   
    19   12   34 1   
    20   12   35 1   
    21   13   14 1   
    22   13   36 1   
    23   14   15 1   
    24   14   19 1   
    25   15   16 1   
    26   15   24 1   
    27   16   37 1   
    28   17   18 1   
    29   17   38 1   
    30   18   21 1   
    31   19   20 1   
    32   20   39 1   
    33   21   22 1   
    34   21   23 1   
    35   23   40 1   
    36   23   41 1   
    37   23   42 1   
    38   24   27 1   
    39   25   26 1   
    40   27   43 1   
    41   27   44 1   
    42   27   45 1   
@<TRIPOS>SUBSTRUCTURE
     1 MSD         1 TEMP              0 ****  ****    0 ROOT
