@<TRIPOS>MOLECULE
MSD
   45    47     1     0     0
SMALL
bcc


@<TRIPOS>ATOM
      1 C2          0.0290    1.1670   -6.0090 ca        1 MSD     -0.156300
      2 C3          0.6660    1.9010   -4.9790 ca        1 MSD      0.456200
      3 N4          0.7110    1.5070   -3.7050 nb        1 MSD     -0.712000
      4 C5          0.1110    0.3120   -3.3750 ca        1 MSD      0.528200
      5 C6         -0.5410   -0.4900   -4.3500 ca        1 MSD     -0.231300
      6 C7         -0.5800   -0.0470   -5.6700 ca        1 MSD     -0.043000
      7 N8          0.2450   -0.1080   -2.0280 n         1 MSD     -0.498400
      8 C9         -0.8200   -0.6480   -1.2830 c         1 MSD      0.566400
      9 S10        -2.0830   -1.4110   -1.9500 s         1 MSD     -0.549400
     10 N11        -0.7150   -0.5080    0.0930 n         1 MSD     -0.468900
     11 C12        -1.5400   -1.2890    0.9550 cx        1 MSD      0.048700
     12 C13        -2.5640   -0.6500    1.8680 cx        1 MSD     -0.104400
     13 C14        -1.3300   -1.2750    2.4660 cx        1 MSD     -0.064400
     14 C15        -0.3130   -0.4420    3.1230 ca        1 MSD     -0.147300
     15 C16        -0.6700    0.5450    4.0620 ca        1 MSD      0.201100
     16 C18         0.3120    1.2890    4.7400 ca        1 MSD     -0.253000
     17 C19         1.6510    1.0460    4.4900 ca        1 MSD     -0.019000
     18 C20         2.0640    0.0740    3.5640 ca        1 MSD     -0.296600
     19 C21         1.0660   -0.6620    2.8850 ca        1 MSD      0.222100
     20 O22         1.3290   -1.6130    1.9390 oh        1 MSD     -0.509100
     21 C23         3.4990   -0.1420    3.3250 c         1 MSD      0.595700
     22 O24         3.9140   -0.8700    2.4070 o         1 MSD     -0.575100
     23 C25         4.4720    0.5470    4.2310 c3        1 MSD     -0.196100
     24 O41        -2.0200    0.7230    4.2610 os        1 MSD     -0.310900
     25 C42         0.0190    1.6570   -7.3370 cg        1 MSD      0.240800
     26 N43         0.0100    2.0600   -8.4290 n1        1 MSD     -0.359800
     27 C44        -2.4020    1.6830    5.2430 c3        1 MSD      0.108700
     28 HC3         1.1630    2.8650   -5.1970 h4        1 MSD      0.035100
     29 HC6        -1.0280   -1.4400   -4.0610 ha        1 MSD      0.203000
     30 HC7        -1.0860   -0.6530   -6.4380 ha        1 MSD      0.156000
     31 HN8         0.9560    0.3880   -1.5210 hn        1 MSD      0.316500
     32 H11N        0.1280   -0.1690    0.5100 hn        1 MSD      0.315500
     33 H12C       -1.8260   -2.2630    0.4830 h1        1 MSD      0.122700
     34 H131       -3.5360   -1.1620    1.9890 hc        1 MSD      0.085200
     35 H132       -2.6670    0.4490    1.9050 hc        1 MSD      0.085200
     36 H14C       -1.4300   -2.2610    2.9700 hc        1 MSD      0.096700
     37 H18C        0.0280    2.0610    5.4690 ha        1 MSD      0.147000
     38 H19C        2.4040    1.6390    5.0340 ha        1 MSD      0.140000
     39 H22O        2.2760   -1.8370    1.9300 ho        1 MSD      0.466000
     40 H251        5.5130    0.2050    4.0050 hc        1 MSD      0.068700
     41 H252        4.4200    1.6530    4.0740 hc        1 MSD      0.068700
     42 H253        4.2400    0.3160    5.2980 hc        1 MSD      0.068700
     43 H441       -3.5210    1.6210    5.2350 h1        1 MSD      0.051367
     44 H442       -1.9990    1.4050    6.2460 h1        1 MSD      0.051367
     45 H443       -2.0610    2.7050    4.9470 h1        1 MSD      0.051367
@<TRIPOS>BOND
     1    1    2 ar  
     2    1    6 ar  
     3    1   25 1   
     4    2    3 ar  
     5    2   28 1   
     6    3    4 ar  
     7    4    5 ar  
     8    4    7 1   
     9    5    6 ar  
    10    5   29 1   
    11    6   30 1   
    12    7    8 1   
    13    7   31 1   
    14    8    9 2   
    15    8   10 1   
    16   10   11 1   
    17   10   32 1   
    18   11   12 1   
    19   11   13 1   
    20   11   33 1   
    21   12   13 1   
    22   12   34 1   
    23   12   35 1   
    24   13   14 1   
    25   13   36 1   
    26   14   15 ar  
    27   14   19 ar  
    28   15   16 ar  
    29   15   24 1   
    30   16   17 ar  
    31   16   37 1   
    32   17   18 ar  
    33   17   38 1   
    34   18   19 ar  
    35   18   21 1   
    36   19   20 1   
    37   20   39 1   
    38   21   22 2   
    39   21   23 1   
    40   23   40 1   
    41   23   41 1   
    42   23   42 1   
    43   24   27 1   
    44   25   26 3   
    45   27   43 1   
    46   27   44 1   
    47   27   45 1   
@<TRIPOS>SUBSTRUCTURE
     1 MSD         1 TEMP              0 ****  ****    0 ROOT
