@<TRIPOS>MOLECULE
MSD
   47    49     1     0     0
SMALL
bcc


@<TRIPOS>ATOM
      1 C2          0.1230   -0.7450    1.9150 ca        1 MSD     -0.022300
      2 C3          1.4290   -1.1410    2.3260 ca        1 MSD      0.473200
      3 N4          2.3490   -0.2760    2.7600 nb        1 MSD     -0.729000
      4 C5          2.0000    1.0450    2.8020 ca        1 MSD      0.433200
      5 C6          0.7390    1.5390    2.4160 ca        1 MSD     -0.169300
      6 C7         -0.2130    0.6100    1.9660 ca        1 MSD     -0.032000
      7 N8          3.0150    2.0030    3.3030 n4        1 MSD     -0.610500
      8 C9          4.4360    1.6260    2.9830 c         1 MSD      0.055400
      9 S10         5.2460    2.3820    1.9510 s         1 MSD      0.243600
     10 N11         4.9340    0.4630    3.7830 n4        1 MSD     -0.548800
     11 C12         6.2990    0.6760    4.3220 cx        1 MSD     -0.023500
     12 C13         6.9500   -0.4090    5.1550 cx        1 MSD     -0.069400
     13 C14         6.5180    0.8630    5.8250 cx        1 MSD      0.012600
     14 C15         5.3650    0.8590    6.7370 ca        1 MSD     -0.207300
     15 C16         5.2680   -0.0410    7.8300 ca        1 MSD      0.231100
     16 C18         4.1780    0.0310    8.7200 ca        1 MSD     -0.217000
     17 C19         3.1570    0.9460    8.5070 ca        1 MSD      0.015000
     18 C20         3.2000    1.8220    7.4120 ca        1 MSD     -0.293600
     19 C21         4.3480    1.8140    6.5980 ca        1 MSD      0.158100
     20 O22         4.4800    2.7220    5.5600 oh        1 MSD     -0.586100
     21 C23         2.0750    2.6990    7.0420 c         1 MSD      0.633700
     22 O24         1.9780    3.0660    5.8480 o         1 MSD     -0.656100
     23 C25         1.0990    3.1030    8.0830 c3        1 MSD     -0.202100
     24 O41         6.2680   -0.9640    7.9210 os        1 MSD     -0.320900
     25 C42        -0.7990   -1.7220    1.4680 cg        1 MSD      0.163800
     26 N43        -1.5580   -2.5240    1.1000 n1        1 MSD     -0.202800
     27 C44         6.3140   -1.7700    9.1080 c3        1 MSD      0.103700
     28 HC3         1.7340   -2.2080    2.2980 h4        1 MSD      0.080100
     29 HC6         0.4780    2.6100    2.4650 ha        1 MSD      0.192000
     30 HC7        -1.2160    0.9600    1.6550 ha        1 MSD      0.209000
     31 HN8         2.8780    2.1330    4.3420 hn        1 MSD      0.507800
     32 H11N        4.3120    0.2530    4.5840 hn        1 MSD      0.480800
     33 H12C        6.9250    1.2590    3.6060 hx        1 MSD      0.155700
     34 H131        8.0300   -0.5960    4.9780 hc        1 MSD      0.126700
     35 H132        6.4090   -1.3460    5.3930 hc        1 MSD      0.126700
     36 H14C        7.2910    1.6120    6.1140 hc        1 MSD      0.145700
     37 H18C        4.1310   -0.6430    9.5920 ha        1 MSD      0.183000
     38 H19C        2.2950    0.9760    9.1970 ha        1 MSD      0.175000
     39 H22O        4.1630    3.5880    5.8790 ho        1 MSD      0.477000
     40 H251        0.4580    2.2270    8.3620 hc        1 MSD      0.097033
     41 H252        0.4340    3.9220    7.7070 hc        1 MSD      0.097033
     42 H253        1.6320    3.4590    9.0010 hc        1 MSD      0.097033
     43 H441        6.3730   -1.1250   10.0170 h1        1 MSD      0.075700
     44 H442        5.4270   -2.4470    9.1450 h1        1 MSD      0.075700
     45 H443        7.2610   -2.3550    8.9700 h1        1 MSD      0.075700
     46 H82         2.8370    2.9200    2.8540 hn        1 MSD      0.507800
     47 H112        4.9470   -0.3660    3.1630 hn        1 MSD      0.480800
@<TRIPOS>BOND
     1    1    2 ar  
     2    1    6 ar  
     3    1   25 1   
     4    2    3 ar  
     5    2   28 1   
     6    3    4 ar  
     7    4    5 ar  
     8    4    7 1   
     9    5    6 ar  
    10    5   29 1   
    11    6   30 1   
    12    7    8 1   
    13    7   31 1   
    14    7   46 1   
    15    8    9 2   
    16    8   10 1   
    17   10   11 1   
    18   10   32 1   
    19   10   47 1   
    20   11   12 1   
    21   11   13 1   
    22   11   33 1   
    23   12   13 1   
    24   12   34 1   
    25   12   35 1   
    26   13   14 1   
    27   13   36 1   
    28   14   15 ar  
    29   14   19 ar  
    30   15   16 ar  
    31   15   24 1   
    32   16   17 ar  
    33   16   37 1   
    34   17   18 ar  
    35   17   38 1   
    36   18   19 ar  
    37   18   21 1   
    38   19   20 1   
    39   20   39 1   
    40   21   22 2   
    41   21   23 1   
    42   23   40 1   
    43   23   41 1   
    44   23   42 1   
    45   24   27 1   
    46   25   26 3   
    47   27   43 1   
    48   27   44 1   
    49   27   45 1   
@<TRIPOS>SUBSTRUCTURE
     1 MSD         1 TEMP              0 ****  ****    0 ROOT
