@<TRIPOS>MOLECULE
MSD
   46    48     1     0     0
SMALL
bcc


@<TRIPOS>ATOM
      1 C2         -0.2890   -0.5230    0.9810 ca        1 MSD     -0.102300
      2 C3          0.8220    0.3540    0.9900 ca        1 MSD      0.475200
      3 N4          1.9000    0.1740    1.7640 nb        1 MSD     -0.695000
      4 C5          1.9160   -0.9150    2.5910 ca        1 MSD      0.484800
      5 C6          0.8450   -1.8500    2.6480 ca        1 MSD     -0.248300
      6 C7         -0.2620   -1.6390    1.8280 ca        1 MSD     -0.025000
      7 N8          3.0410   -1.1490    3.4290 nu        1 MSD     -0.402900
      8 C9          4.1010   -0.2920    3.6270 c2        1 MSD      0.395700
      9 S10         4.0530    1.2670    2.9330 sh        1 MSD      0.051000
     10 N11         5.1650   -0.7470    4.3500 nu        1 MSD     -0.301200
     11 C12         6.3410    0.0370    4.5540 cx        1 MSD     -0.112000
     12 C13         7.2710   -0.2690    5.7120 cx        1 MSD     -0.083400
     13 C14         6.4850    1.0090    5.7310 cx        1 MSD     -0.032400
     14 C15         5.3760    1.2940    6.6460 ca        1 MSD     -0.180300
     15 C16         4.7570    0.3590    7.4960 ca        1 MSD      0.188100
     16 C18         3.7960    0.7570    8.4400 ca        1 MSD     -0.241000
     17 C19         3.4200    2.0880    8.5230 ca        1 MSD     -0.005000
     18 C20         3.9500    3.0530    7.6540 ca        1 MSD     -0.277600
     19 C21         4.9120    2.6400    6.7090 ca        1 MSD      0.233100
     20 O22         5.4570    3.4600    5.7620 oh        1 MSD     -0.520100
     21 C23         3.4920    4.4540    7.7420 c         1 MSD      0.593700
     22 O24         3.7360    5.2690    6.8380 o         1 MSD     -0.557100
     23 C25         2.7250    4.8620    8.9580 c3        1 MSD     -0.197100
     24 O41         5.0880   -0.9700    7.3170 os        1 MSD     -0.371900
     25 C42        -1.3940   -0.2690    0.1330 cg        1 MSD      0.204800
     26 N43        -2.3020   -0.0600   -0.5640 n1        1 MSD     -0.284800
     27 C44         4.8680   -1.8340    8.4360 c3        1 MSD      0.110700
     28 HC3         0.8510    1.2500    0.3360 h4        1 MSD      0.062100
     29 HC6         0.8730   -2.7230    3.3170 ha        1 MSD      0.164000
     30 HC7        -1.1080   -2.3470    1.8510 ha        1 MSD      0.179000
     31 HN8         3.0650   -2.0650    3.8360 hn        1 MSD      0.316700
     32 H11N        5.0840   -1.5610    4.9320 hn        1 MSD      0.317700
     33 H12C        6.8060    0.3190    3.5780 h1        1 MSD      0.119700
     34 H131        8.3580   -0.2130    5.5070 hc        1 MSD      0.107200
     35 H132        7.0330   -1.0850    6.4200 hc        1 MSD      0.107200
     36 H14C        7.0630    1.9370    5.4930 hc        1 MSD      0.126700
     37 H18C        3.3410    0.0200    9.1180 ha        1 MSD      0.157000
     38 H19C        2.6730    2.3830    9.2800 ha        1 MSD      0.156000
     39 H22O        5.2560    4.3950    5.9530 ho        1 MSD      0.480000
     40 H251        2.5980    5.9740    8.9740 hc        1 MSD      0.077033
     41 H252        1.7110    4.3920    8.9440 hc        1 MSD      0.077033
     42 H253        3.2640    4.5470    9.8840 hc        1 MSD      0.077033
     43 H441        5.2620   -1.3810    9.3760 h1        1 MSD      0.059700
     44 H442        3.7780   -2.0600    8.5280 h1        1 MSD      0.059700
     45 H443        5.4430   -2.7560    8.1670 h1        1 MSD      0.059700
     46 H112        5.0300    1.8630    3.6170 hs        1 MSD      0.196800
@<TRIPOS>BOND
     1    1    2 ar  
     2    1    6 ar  
     3    1   25 1   
     4    2    3 ar  
     5    2   28 1   
     6    3    4 ar  
     7    4    5 ar  
     8    4    7 1   
     9    5    6 ar  
    10    5   29 1   
    11    6   30 1   
    12    7    8 2   
    13    7   31 1   
    14    8    9 1   
    15    8   10 1   
    16    9   46 1   
    17   10   11 1   
    18   10   32 1   
    19   11   12 1   
    20   11   13 1   
    21   11   33 1   
    22   12   13 1   
    23   12   34 1   
    24   12   35 1   
    25   13   14 1   
    26   13   36 1   
    27   14   15 ar  
    28   14   19 ar  
    29   15   16 ar  
    30   15   24 1   
    31   16   17 ar  
    32   16   37 1   
    33   17   18 ar  
    34   17   38 1   
    35   18   19 ar  
    36   18   21 1   
    37   19   20 1   
    38   20   39 1   
    39   21   22 2   
    40   21   23 1   
    41   23   40 1   
    42   23   41 1   
    43   23   42 1   
    44   24   27 1   
    45   25   26 3   
    46   27   43 1   
    47   27   44 1   
    48   27   45 1   
@<TRIPOS>SUBSTRUCTURE
     1 MSD         1 TEMP              0 ****  ****    0 ROOT
