@<TRIPOS>MOLECULE
MSE
   19    18     1     0     0
SMALL
bcc


@<TRIPOS>ATOM
      1 N           1.9630    0.2660   -1.9580 n3        1 MSE     -0.894800
      2 CA          0.6270   -0.3090   -1.8530 c3        1 MSE      0.018500
      3 C          -0.3200    0.0310   -3.0540 c         1 MSE      0.889600
      4 O           0.1450    0.7400   -3.9920 o         1 MSE     -0.840800
      5 OXT        -1.4880   -0.4440   -3.0250 o         1 MSE     -0.840800
      6 CB         -0.0940    0.0690   -0.5560 c3        1 MSE     -0.059400
      7 CG          0.6070   -0.4970    0.6510 c3        1 MSE      0.018700
      8 SE         -0.3210   -0.0490    2.1030 ss        1 MSE     -0.339200
      9 CE          0.6840   -0.7010    3.3800 c3        1 MSE     -0.037000
     10 H           2.2580    0.1550   -2.9150 hn        1 MSE      0.331800
     11 HN2         1.8950    1.2560   -1.8010 hn        1 MSE      0.331800
     12 HA          0.7610   -1.4300   -1.8660 h1        1 MSE      0.040700
     13 HB2        -1.1390   -0.3380   -0.6310 hc        1 MSE      0.062200
     14 HB3        -0.1680    1.1840   -0.4680 hc        1 MSE      0.062200
     15 HG2         1.6450   -0.0950    0.7360 h1        1 MSE      0.055200
     16 HG3         0.6720   -1.6090    0.5790 h1        1 MSE      0.055200
     17 HE1         0.1840   -0.4530    4.3440 h1        1 MSE      0.048367
     18 HE2         0.7880   -1.8060    3.2990 h1        1 MSE      0.048367
     19 HE3         1.7030   -0.2540    3.3730 h1        1 MSE      0.048367
@<TRIPOS>BOND
     1    1    2 1   
     2    1   10 1   
     3    1   11 1   
     4    2    3 1   
     5    2    6 1   
     6    2   12 1   
     7    3    4 1   
     8    3    5 1   
     9    6    7 1   
    10    6   13 1   
    11    6   14 1   
    12    7    8 1   
    13    7   15 1   
    14    7   16 1   
    15    8    9 1   
    16    9   17 1   
    17    9   18 1   
    18    9   19 1   
@<TRIPOS>SUBSTRUCTURE
     1 MSE         1 TEMP              0 ****  ****    0 ROOT
