@<TRIPOS>MOLECULE
MSF
   11    10     1     0     0
SMALL
bcc


@<TRIPOS>ATOM
      1 O5         -2.6960   -0.6030   -1.6090 o         1 MSF     -0.828300
      2 O6         -0.8080   -0.6030   -2.6990 o         1 MSF     -0.828300
      3 C1         -1.4370   -0.6030   -1.6090 c         1 MSF      0.928600
      4 C2         -0.6810   -0.6030   -0.2990 c3        1 MSF     -0.126300
      5 SE3         0.7300    0.6870   -0.3770 ss        1 MSF     -0.289200
      6 C4          1.5210    0.8730    1.3550 c3        1 MSF     -0.049000
      7 H21        -1.2900   -0.3750    0.4290 h1        1 MSF      0.039700
      8 H22        -0.3030   -1.4890   -0.1410 h1        1 MSF      0.039700
      9 H41         2.2540    1.5160    1.3110 h1        1 MSF      0.037700
     10 H42         0.8480    1.1900    1.9880 h1        1 MSF      0.037700
     11 H43         1.8640    0.0090    1.6510 h1        1 MSF      0.037700
@<TRIPOS>BOND
     1    1    3 1   
     2    2    3 1   
     3    3    4 1   
     4    4    5 1   
     5    4    7 1   
     6    4    8 1   
     7    5    6 1   
     8    6    9 1   
     9    6   10 1   
    10    6   11 1   
@<TRIPOS>SUBSTRUCTURE
     1 MSF         1 TEMP              0 ****  ****    0 ROOT
