@<TRIPOS>MOLECULE
MSF
   11    10     1     0     0
SMALL
bcc


@<TRIPOS>ATOM
      1 O5         10.3750   28.6200   24.1360 o         1 MSF     -0.828300
      2 O6          8.4010   29.1370   25.0470 o         1 MSF     -0.828300
      3 C1          9.5470   29.4430   24.6160 c         1 MSF      0.928600
      4 C2          9.9320   30.9400   24.6010 c3        1 MSF     -0.126300
      5 SE3        10.7450   31.3990   26.1010 ss        1 MSF     -0.289200
      6 C4         11.0570   33.0980   25.8130 c3        1 MSF     -0.049000
      7 H21        10.6080   31.1240   23.7350 h1        1 MSF      0.039700
      8 H22         9.0050   31.5440   24.4760 h1        1 MSF      0.039700
      9 H41        11.5770   33.4920   26.7150 h1        1 MSF      0.037700
     10 H42        11.7070   33.2560   24.9230 h1        1 MSF      0.037700
     11 H43        10.1170   33.6730   25.6580 h1        1 MSF      0.037700
@<TRIPOS>BOND
     1    1    3 1   
     2    2    3 1   
     3    3    4 1   
     4    4    5 1   
     5    4    7 1   
     6    4    8 1   
     7    5    6 1   
     8    6    9 1   
     9    6   10 1   
    10    6   11 1   
@<TRIPOS>SUBSTRUCTURE
     1 MSF         1 TEMP              0 ****  ****    0 ROOT
