@<TRIPOS>MOLECULE
MSF
   11    10     1     0     0
SMALL
bcc


@<TRIPOS>ATOM
      1 O5          0.4010    0.9810   -0.3520 o         1 MSF     -0.828300
      2 O6          1.7590   -0.6510   -1.0480 o         1 MSF     -0.828300
      3 C1          1.2670    0.0860   -0.1500 c         1 MSF      0.928600
      4 C2          1.6980   -0.1790    1.3110 c3        1 MSF     -0.126300
      5 SE3         3.1000    0.8030    1.7460 ss        1 MSF     -0.289200
      6 C4          3.3600    0.3100    3.4060 c3        1 MSF     -0.049000
      7 H21         1.9470   -1.2590    1.4170 h1        1 MSF      0.039700
      8 H22         0.8440    0.0660    1.9830 h1        1 MSF      0.039700
      9 H41         2.4790    0.5370    4.0490 h1        1 MSF      0.037700
     10 H42         3.5740   -0.7790    3.4880 h1        1 MSF      0.037700
     11 H43         4.2380    0.8810    3.7820 h1        1 MSF      0.037700
@<TRIPOS>BOND
     1    1    3 1   
     2    2    3 1   
     3    3    4 1   
     4    4    5 1   
     5    4    7 1   
     6    4    8 1   
     7    5    6 1   
     8    6    9 1   
     9    6   10 1   
    10    6   11 1   
@<TRIPOS>SUBSTRUCTURE
     1 MSF         1 TEMP              0 ****  ****    0 ROOT
