@<TRIPOS>MOLECULE
MSG
   36    38     1     0     0
SMALL
bcc


@<TRIPOS>ATOM
      1 O5'         4.1260    2.6100   -0.0650 oh        1 MSG     -0.586800
      2 C5'         3.6230    1.5520   -0.8510 c3        1 MSG      0.113400
      3 C4'         3.6450    0.2270   -0.0920 c3        1 MSG      0.053100
      4 O4'         2.7390    0.3250    1.0220 os        1 MSG     -0.420600
      5 C1'         1.6370   -0.5750    0.8760 c3        1 MSG      0.257800
      6 N9          0.4410    0.1730    0.5190 na        1 MSG     -0.110100
      7 C8          0.3250    1.5580    0.4940 cc        1 MSG     -0.075600
      8 N7         -0.9620    1.9310    0.2350 na        1 MSG      0.078900
      9 C1         -1.4250    3.2870    0.1350 c3        1 MSG     -0.048400
     10 C5         -1.7340    0.7730    0.0920 cc        1 MSG     -0.294900
     11 C6         -3.1350    0.5290   -0.1960 c         1 MSG      0.542400
     12 S6         -4.1420    1.7590   -0.4610 s         1 MSG     -0.596400
     13 N1         -3.5240   -0.7800   -0.2340 nc        1 MSG     -0.703100
     14 C2         -2.6170   -1.7920   -0.0060 cd        1 MSG      0.880200
     15 N2         -3.1070   -3.0890    0.0190 nh        1 MSG     -0.907800
     16 N3         -1.2320   -1.6550    0.2360 nd        1 MSG     -0.520300
     17 C4         -0.8520   -0.3670    0.2850 cc        1 MSG      0.103700
     18 C2'         2.0520   -1.6390   -0.1910 c3        1 MSG      0.134100
     19 O2'         2.4640   -2.7610    0.5570 oh        1 MSG     -0.576800
     20 C3'         3.2090   -0.9630   -0.9640 c3        1 MSG      0.082100
     21 O3'         4.2350   -1.9220   -1.1150 oh        1 MSG     -0.587800
     22 H5'         3.6950    2.5600    0.7990 ho        1 MSG      0.410000
     23 H5'1        4.3020    1.5020   -1.7430 h1        1 MSG      0.053200
     24 H5'2        2.5750    1.7890   -1.1830 h1        1 MSG      0.053200
     25 H4'         4.6570    0.0520    0.3690 h1        1 MSG      0.104700
     26 H1'         1.4790   -1.0530    1.8900 h2        1 MSG      0.138700
     27 H8          1.1700    2.2400    0.6690 h5        1 MSG      0.229000
     28 H11        -0.8620    3.8200   -0.6760 h1        1 MSG      0.098033
     29 H12        -2.5410    3.2530   -0.1190 h1        1 MSG      0.098033
     30 H13        -1.2700    3.8120    1.1140 h1        1 MSG      0.098033
     31 HN21       -2.4700   -3.8460    0.0230 hn        1 MSG      0.442800
     32 HN22       -4.0400   -3.2480   -0.2770 hn        1 MSG      0.442800
     33 H2'         1.2190   -1.9270   -0.8840 h1        1 MSG      0.094700
     34 H2          2.9740   -3.3330   -0.0340 ho        1 MSG      0.436000
     35 H3'         2.8570   -0.6130   -1.9720 h1        1 MSG      0.062700
     36 H1          4.9500   -1.5000   -1.6070 ho        1 MSG      0.421000
@<TRIPOS>BOND
     1    1    2 1   
     2    1   22 1   
     3    2    3 1   
     4    2   23 1   
     5    2   24 1   
     6    3    4 1   
     7    3   20 1   
     8    3   25 1   
     9    4    5 1   
    10    5    6 1   
    11    5   18 1   
    12    5   26 1   
    13    6    7 2   
    14    6   17 1   
    15    7    8 1   
    16    7   27 1   
    17    8    9 1   
    18    8   10 2   
    19    9   28 1   
    20    9   29 1   
    21    9   30 1   
    22   10   11 1   
    23   10   17 1   
    24   11   12 2   
    25   11   13 1   
    26   13   14 2   
    27   14   15 1   
    28   14   16 1   
    29   15   31 1   
    30   15   32 1   
    31   16   17 2   
    32   18   19 1   
    33   18   20 1   
    34   18   33 1   
    35   19   34 1   
    36   20   21 1   
    37   20   35 1   
    38   21   36 1   
@<TRIPOS>SUBSTRUCTURE
     1 MSG         1 TEMP              0 ****  ****    0 ROOT
