@<TRIPOS>MOLECULE
MSG
   37    39     1     0     0
SMALL
bcc


@<TRIPOS>ATOM
      1 O5'         1.0990   -2.0930    0.1910 oh        1 MSG     -0.609800
      2 C5'         2.2800   -1.3200    0.1350 c3        1 MSG      0.109400
      3 C4'         2.2720   -0.2150    1.1920 c3        1 MSG      0.082100
      4 O4'         1.5230   -0.6460    2.3450 os        1 MSG     -0.397600
      5 C1'         2.3780   -0.9350    3.4420 c3        1 MSG      0.214800
      6 N9          2.4030   -2.3800    3.6760 na        1 MSG     -0.082100
      7 C8          1.7560   -3.3530    2.9320 cc        1 MSG     -0.000600
      8 N7          1.9170   -4.5870    3.5030 na        1 MSG      0.039900
      9 C1          1.3730   -5.8110    2.9780 c3        1 MSG     -0.032400
     10 C5          2.6850   -4.4310    4.6690 cc        1 MSG     -0.240900
     11 C6          3.1640   -5.3720    5.6680 c         1 MSG      0.462400
     12 S6          2.9030   -6.9220    5.6170 s         1 MSG     -0.341400
     13 N1          3.8950   -4.7830    6.7060 nc        1 MSG     -0.648100
     14 C2          4.1010   -3.4580    6.7030 cd        1 MSG      0.709200
     15 N2          4.8920   -2.9390    7.8720 n4        1 MSG     -0.784600
     16 N3          3.7130   -2.4730    5.8110 nd        1 MSG     -0.474300
     17 C4          2.9910   -3.0210    4.7900 cc        1 MSG      0.076700
     18 C2'         3.7830   -0.3190    3.1330 c3        1 MSG      0.091100
     19 O2'         4.0510    0.7350    4.0180 oh        1 MSG     -0.569800
     20 C3'         3.6890    0.1560    1.6610 c3        1 MSG      0.088100
     21 O3'         3.7900    1.5640    1.6020 oh        1 MSG     -0.582800
     22 H5'         0.3510   -1.5020    0.0350 ho        1 MSG      0.427000
     23 H5'1        3.1060   -2.0600    0.3130 h1        1 MSG      0.068200
     24 H5'2        2.4050   -0.8580   -0.8800 h1        1 MSG      0.068200
     25 H4'         1.7150    0.6930    0.8220 h1        1 MSG      0.121700
     26 H1'         1.9090   -0.4570    4.3560 h2        1 MSG      0.130700
     27 H8          1.1920   -3.1330    1.9980 h5        1 MSG      0.285000
     28 H11         0.2520   -5.7470    2.9670 h1        1 MSG      0.104367
     29 H12         1.7010   -6.6680    3.6480 h1        1 MSG      0.104367
     30 H13         1.7550   -5.9740    1.9350 h1        1 MSG      0.104367
     31 HN21        5.7190   -2.4430    7.5260 hn        1 MSG      0.474133
     32 HN22        4.3050   -2.2930    8.4090 hn        1 MSG      0.474133
     33 H2'         4.6210   -1.0500    3.2900 h1        1 MSG      0.109700
     34 H2          3.4760    1.4830    3.7870 ho        1 MSG      0.432000
     35 H3'         4.4780   -0.3290    1.0290 h1        1 MSG      0.078700
     36 H1          4.7200    1.7920    1.7380 ho        1 MSG      0.432000
     37 H23         5.1810   -3.7250    8.4700 hn        1 MSG      0.474133
@<TRIPOS>BOND
     1    1    2 1   
     2    1   22 1   
     3    2    3 1   
     4    2   23 1   
     5    2   24 1   
     6    3    4 1   
     7    3   20 1   
     8    3   25 1   
     9    4    5 1   
    10    5    6 1   
    11    5   18 1   
    12    5   26 1   
    13    6    7 2   
    14    6   17 1   
    15    7    8 1   
    16    7   27 1   
    17    8    9 1   
    18    8   10 2   
    19    9   28 1   
    20    9   29 1   
    21    9   30 1   
    22   10   11 1   
    23   10   17 1   
    24   11   12 2   
    25   11   13 1   
    26   13   14 2   
    27   14   15 1   
    28   14   16 1   
    29   15   31 1   
    30   15   32 1   
    31   15   37 1   
    32   16   17 2   
    33   18   19 1   
    34   18   20 1   
    35   18   33 1   
    36   19   34 1   
    37   20   21 1   
    38   20   35 1   
    39   21   36 1   
@<TRIPOS>SUBSTRUCTURE
     1 MSG         1 TEMP              0 ****  ****    0 ROOT
