@<TRIPOS>MOLECULE
MSG
   36    33     1     0     0
SMALL
bcc


@<TRIPOS>ATOM
      1 O5'        -2.6390    2.4930   -3.1920 oh        1 MSG     -0.329000
      2 C5'        -1.2880    2.2810   -3.1540 c3        1 MSG     -0.041000
      3 C4'        -0.8080    2.2860   -1.7230 c3        1 MSG     -0.028000
      4 O4'        -1.0890    1.1640   -1.1490 os        1 MSG     -0.267000
      5 C1'         0.1170    0.8700   -0.1400 c3        1 MSG      0.134000
      6 N9          0.2040   -0.5100    0.1290 n3        1 MSG     -0.182000
      7 C8          0.0760   -1.5670   -0.7110 c1        1 MSG     -0.011000
      8 N7         -0.0720   -2.6750    0.0370 n2        1 MSG      0.003000
      9 C1         -0.2510   -4.0030   -0.5750 c2        1 MSG     -0.143000
     10 C5         -0.0360   -2.3040    1.3540 c1        1 MSG     -0.251000
     11 C6         -0.1250   -3.0330    2.5250 c1        1 MSG      0.099000
     12 S6         -0.0900   -4.6450    3.1880 s         1 MSG     -0.318000
     13 N1         -0.0410   -2.4040    3.7230 n1        1 MSG     -0.274000
     14 C2          0.1300   -1.0510    3.7750 c1        1 MSG      0.211000
     15 N2          0.1960   -0.5010    5.1100 n3        1 MSG     -0.337000
     16 N3          0.2170   -0.3350    2.6320 n1        1 MSG     -0.300000
     17 C4          0.1330   -0.9740    1.4050 c1        1 MSG      0.121000
     18 C2'         1.2240    1.2880   -0.7470 c3        1 MSG     -0.025000
     19 O2'         2.1850    1.8350    0.2500 oh        1 MSG     -0.293000
     20 C3'         0.7670    2.3840   -1.6870 c3        1 MSG     -0.027000
     21 O3'         1.1460    3.5850   -1.2170 oh        1 MSG     -0.320000
     22 H5'        -2.8920    2.6220   -4.0280 ho        1 MSG      0.215000
     23 H5'1       -0.8470    2.9700   -3.6330 h1        1 MSG      0.101500
     24 H5'2       -1.0870    1.4370   -3.5550 h1        1 MSG      0.101500
     25 H4'        -1.2140    3.0430   -1.2240 h1        1 MSG      0.145000
     26 H1'        -0.0150    1.3750    0.7050 h2        1 MSG      0.164000
     27 H8          0.0200   -1.5200   -1.6940 DU        1 MSG      0.258000
     28 H11         0.4370   -4.6220   -0.2280 ha        1 MSG      0.136667
     29 H12        -0.1640   -3.9300   -1.5230 ha        1 MSG      0.136667
     30 H13        -1.0990   -4.3310   -0.3650 ha        1 MSG      0.136667
     31 HN21        0.4210    0.3560    5.2300 hn        1 MSG      0.231500
     32 HN22       -0.0240   -1.0350    5.8480 hn        1 MSG      0.231500
     33 H2'         1.6590    0.5120   -1.2820 h1        1 MSG      0.170000
     34 H2          2.0390    2.7300    0.3550 ho        1 MSG      0.216000
     35 H3'         1.1540    2.2290   -2.6280 h1        1 MSG      0.110000
     36 H1          1.6590    3.9830   -1.8120 ho        1 MSG      0.227000
@<TRIPOS>BOND
     1    1    2 1   
     2    1   22 1   
     3    2    3 1   
     4    2   23 1   
     5    2   24 1   
     6    3    4 1   
     7    3   20 1   
     8    3   25 1   
     9    4    5 1   
    10    5    6 1   
    11    5   18 1   
    12    5   26 1   
    13    6    7 1   
    14    6   17 1   
    15    7    8 1   
    16    8   10 1   
    17    9   28 1   
    18    9   29 1   
    19    9   30 1   
    20   10   17 1   
    21   11   12 1   
    22   11   13 1   
    23   14   15 1   
    24   14   16 1   
    25   15   31 1   
    26   15   32 1   
    27   18   19 1   
    28   18   20 1   
    29   18   33 1   
    30   19   34 1   
    31   20   21 1   
    32   20   35 1   
    33   21   36 1   
@<TRIPOS>SUBSTRUCTURE
     1 MSG         1 TEMP              0 ****  ****    0 ROOT
