@<TRIPOS>MOLECULE
MSG
   36    38     1     0     0
SMALL
bcc


@<TRIPOS>ATOM
      1 O5'         1.0950   -1.9930    0.1200 oh        1 MSG     -0.605800
      2 C5'         2.2790   -1.2190    0.1330 c3        1 MSG      0.111400
      3 C4'         2.2400   -0.1440    1.2200 c3        1 MSG      0.048100
      4 O4'         1.4570   -0.6160    2.3280 os        1 MSG     -0.406600
      5 C1'         2.2900   -0.9470    3.4370 c3        1 MSG      0.223800
      6 N9          2.3520   -2.3850    3.6230 na        1 MSG     -0.111100
      7 C8          1.7450   -3.3720    2.8610 cc        1 MSG     -0.048600
      8 N7          1.9960   -4.6050    3.3910 na        1 MSG      0.063900
      9 C1          1.5180   -5.8480    2.8540 c3        1 MSG     -0.042400
     10 C5          2.7920   -4.4420    4.5350 cc        1 MSG     -0.286900
     11 C6          3.3620   -5.3550    5.5050 c         1 MSG      0.539400
     12 S6          3.1140   -6.9410    5.3890 s         1 MSG     -0.588400
     13 N1          4.1020   -4.7830    6.5060 nc        1 MSG     -0.698100
     14 C2          4.2920   -3.4230    6.5580 cd        1 MSG      0.862200
     15 N2          5.1500   -2.9360    7.5490 nv        1 MSG     -0.887800
     16 N3          3.7550   -2.4570    5.6820 nd        1 MSG     -0.539300
     17 C4          3.0290   -3.0210    4.6970 cc        1 MSG      0.088700
     18 C2'         3.6920   -0.2950    3.1920 c3        1 MSG      0.087100
     19 O2'         3.8310    0.8080    4.0590 oh        1 MSG     -0.591800
     20 C3'         3.6460    0.2260    1.7360 c3        1 MSG      0.134100
     21 O3'         3.8960    1.6020    1.6130 oh        1 MSG     -0.571800
     22 H5'         0.3470   -1.3830    0.1320 ho        1 MSG      0.415000
     23 H5'1        3.0980   -1.9660    0.3170 h1        1 MSG      0.061200
     24 H5'2        2.4340   -0.7320   -0.8660 h1        1 MSG      0.061200
     25 H4'         1.6930    0.7680    0.8530 h1        1 MSG      0.096700
     26 H1'         1.7880   -0.5000    4.3490 h2        1 MSG      0.120700
     27 H8          1.1580   -3.1560    1.9480 h5        1 MSG      0.259000
     28 H11         1.9140   -5.9860    1.8140 h1        1 MSG      0.096700
     29 H12         0.3960   -5.8440    2.8350 h1        1 MSG      0.096700
     30 H13         1.8950   -6.6870    3.5330 h1        1 MSG      0.096700
     31 HN21        5.0610   -1.9790    7.7950 hn        1 MSG      0.427300
     32 HN22        5.3750   -3.5630    8.2870 hn        1 MSG      0.427300
     33 H2'         4.5350   -1.0230    3.3290 h1        1 MSG      0.092700
     34 H2          4.1520    0.4630    4.9040 ho        1 MSG      0.441000
     35 H3'         4.4470   -0.2630    1.1160 h1        1 MSG      0.097700
     36 H1          3.4300    2.0660    2.3230 ho        1 MSG      0.429000
@<TRIPOS>BOND
     1    1    2 1   
     2    1   22 1   
     3    2    3 1   
     4    2   23 1   
     5    2   24 1   
     6    3    4 1   
     7    3   20 1   
     8    3   25 1   
     9    4    5 1   
    10    5    6 1   
    11    5   18 1   
    12    5   26 1   
    13    6    7 2   
    14    6   17 1   
    15    7    8 1   
    16    7   27 1   
    17    8    9 1   
    18    8   10 2   
    19    9   28 1   
    20    9   29 1   
    21    9   30 1   
    22   10   11 1   
    23   10   17 1   
    24   11   12 2   
    25   11   13 1   
    26   13   14 2   
    27   14   15 1   
    28   14   16 1   
    29   15   31 1   
    30   15   32 1   
    31   16   17 2   
    32   18   19 1   
    33   18   20 1   
    34   18   33 1   
    35   19   34 1   
    36   20   21 1   
    37   20   35 1   
    38   21   36 1   
@<TRIPOS>SUBSTRUCTURE
     1 MSG         1 TEMP              0 ****  ****    0 ROOT
