@<TRIPOS>MOLECULE
MSG
   36    38     1     0     0
SMALL
bcc


@<TRIPOS>ATOM
      1 O5'         1.1680   -2.0870    0.0930 oh        1 MSG     -0.604800
      2 C5'         2.2840   -1.2200    0.1300 c3        1 MSG      0.107400
      3 C4'         2.1260   -0.1470    1.2070 c3        1 MSG      0.081100
      4 O4'         1.3750   -0.6820    2.3100 os        1 MSG     -0.403600
      5 C1'         2.2270   -0.9720    3.4160 c3        1 MSG      0.226800
      6 N9          2.3160   -2.4060    3.6250 na        1 MSG     -0.111100
      7 C8          1.7340   -3.4160    2.8740 cc        1 MSG     -0.044600
      8 N7          2.0260   -4.6380    3.4110 na        1 MSG      0.062900
      9 C1          1.5780   -5.8980    2.8890 c3        1 MSG     -0.042400
     10 C5          2.8300   -4.4420    4.5440 cc        1 MSG     -0.285900
     11 C6          3.4410   -5.3300    5.5130 c         1 MSG      0.538400
     12 S6          3.2380   -6.9230    5.4130 s         1 MSG     -0.587400
     13 N1          4.1770   -4.7290    6.4990 nc        1 MSG     -0.697100
     14 C2          4.3290   -3.3630    6.5370 cd        1 MSG      0.861200
     15 N2          5.1870   -2.8430    7.5120 nh        1 MSG     -0.886800
     16 N3          3.7530   -2.4210    5.6610 nd        1 MSG     -0.543300
     17 C4          3.0270   -3.0140    4.6930 cc        1 MSG      0.087700
     18 C2'         3.6190   -0.3070    3.1420 c3        1 MSG      0.087100
     19 O2'         3.8630    0.6960    4.0980 oh        1 MSG     -0.594800
     20 C3'         3.4800    0.3490    1.7490 c3        1 MSG      0.135100
     21 O3'         3.4310    1.7590    1.7650 oh        1 MSG     -0.587800
     22 H5'         0.3740   -1.5370    0.0620 ho        1 MSG      0.415000
     23 H5'1        2.4260   -0.7260   -0.8680 h1        1 MSG      0.060700
     24 H5'2        3.1560   -1.8950    0.3420 h1        1 MSG      0.060700
     25 H4'         1.5030    0.7130    0.8330 h1        1 MSG      0.109700
     26 H1'         1.7320   -0.5170    4.3270 h2        1 MSG      0.122700
     27 H8          1.1380   -3.2240    1.9620 h5        1 MSG      0.258000
     28 H11         1.9900   -6.7210    3.5670 h1        1 MSG      0.096700
     29 H12         1.9620   -6.0310    1.8440 h1        1 MSG      0.096700
     30 H13         0.4570   -5.9280    2.8880 h1        1 MSG      0.096700
     31 HN21        5.0640   -1.8900    7.7590 hn        1 MSG      0.426300
     32 HN22        5.4370   -3.4590    8.2530 hn        1 MSG      0.426300
     33 H2'         4.4520   -1.0610    3.1400 h1        1 MSG      0.082700
     34 H2          4.1330    0.2480    4.9140 ho        1 MSG      0.446000
     35 H3'         4.3300    0.0280    1.0860 h1        1 MSG      0.064700
     36 H1          3.9960    2.0760    2.4850 ho        1 MSG      0.437000
@<TRIPOS>BOND
     1    1    2 1   
     2    1   22 1   
     3    2    3 1   
     4    2   23 1   
     5    2   24 1   
     6    3    4 1   
     7    3   20 1   
     8    3   25 1   
     9    4    5 1   
    10    5    6 1   
    11    5   18 1   
    12    5   26 1   
    13    6    7 2   
    14    6   17 1   
    15    7    8 1   
    16    7   27 1   
    17    8    9 1   
    18    8   10 2   
    19    9   28 1   
    20    9   29 1   
    21    9   30 1   
    22   10   11 1   
    23   10   17 1   
    24   11   12 2   
    25   11   13 1   
    26   13   14 2   
    27   14   15 1   
    28   14   16 1   
    29   15   31 1   
    30   15   32 1   
    31   16   17 2   
    32   18   19 1   
    33   18   20 1   
    34   18   33 1   
    35   19   34 1   
    36   20   21 1   
    37   20   35 1   
    38   21   36 1   
@<TRIPOS>SUBSTRUCTURE
     1 MSG         1 TEMP              0 ****  ****    0 ROOT
