@<TRIPOS>MOLECULE
MSH
   26    25     1     0     0
SMALL
bcc


@<TRIPOS>ATOM
      1 S1         -0.1630   -0.2970    0.1270 s6        1 MSH      1.312000
      2 O2         -0.7170    0.8180    0.7770 o         1 MSH     -0.652300
      3 O3         -0.6640   -0.5830   -1.1520 o         1 MSH     -0.652300
      4 C4         -0.3460   -1.6600    1.1110 c3        1 MSH     -0.367300
      5 C5          2.1920   -0.8500   -2.2790 c3        1 MSH     -0.112100
      6 C6          2.2240   -1.1810   -0.8070 c3        1 MSH     -0.044400
      7 C7          1.5590   -0.1100    0.0450 c3        1 MSH     -0.273900
      8 C8          2.2400   -0.0050    1.4010 c3        1 MSH     -0.047400
      9 C9          2.0640    1.3600    2.0370 c3        1 MSH     -0.101400
     10 C10         2.7140    1.4100    3.3960 c3        1 MSH     -0.090100
     11 HC41        0.5170   -2.3680    1.1060 h1        1 MSH      0.119700
     12 HC42       -1.2350   -2.2630    0.7920 h1        1 MSH      0.119700
     13 HC43       -0.5230   -1.3860    2.1830 h1        1 MSH      0.119700
     14 HC51        2.6790   -1.6700   -2.8600 hc        1 MSH      0.049033
     15 HC52        1.1400   -0.7370   -2.6400 hc        1 MSH      0.049033
     16 HC53        2.7430    0.1000   -2.4820 hc        1 MSH      0.049033
     17 HC61        1.7150   -2.1680   -0.6360 hc        1 MSH      0.043200
     18 HC62        3.2940   -1.3110   -0.4890 hc        1 MSH      0.043200
     19 HC71        1.7440    0.8790   -0.4760 h1        1 MSH      0.122700
     20 HC81        3.3400   -0.2010    1.2850 hc        1 MSH      0.045700
     21 HC82        1.8440   -0.7990    2.0890 hc        1 MSH      0.045700
     22 HC91        0.9710    1.6060    2.1300 hc        1 MSH      0.060200
     23 HC92        2.5220    2.1400    1.3730 hc        1 MSH      0.060200
     24 H101        3.8070    1.1920    3.3220 hc        1 MSH      0.034367
     25 H102        2.2530    0.6600    4.0830 hc        1 MSH      0.034367
     26 H103        2.5860    2.4250    3.8450 hc        1 MSH      0.034367
@<TRIPOS>BOND
     1    1    2 2   
     2    1    3 2   
     3    1    4 1   
     4    1    7 1   
     5    4   11 1   
     6    4   12 1   
     7    4   13 1   
     8    5    6 1   
     9    5   14 1   
    10    5   15 1   
    11    5   16 1   
    12    6    7 1   
    13    6   17 1   
    14    6   18 1   
    15    7    8 1   
    16    7   19 1   
    17    8    9 1   
    18    8   20 1   
    19    8   21 1   
    20    9   10 1   
    21    9   22 1   
    22    9   23 1   
    23   10   24 1   
    24   10   25 1   
    25   10   26 1   
@<TRIPOS>SUBSTRUCTURE
     1 MSH         1 TEMP              0 ****  ****    0 ROOT
