@<TRIPOS>MOLECULE
MSH
   26    25     1     0     0
SMALL
bcc


@<TRIPOS>ATOM
      1 S1          0.9670    0.1820   -0.7230 s6        1 MSH      1.312000
      2 O2          1.9070   -0.4430    0.1130 o         1 MSH     -0.652300
      3 O3          1.0480   -0.1270   -2.0900 o         1 MSH     -0.652300
      4 C4          1.0810    1.8590   -0.5270 c3        1 MSH     -0.367300
      5 C5         -1.9850   -0.6670   -2.2080 c3        1 MSH     -0.112100
      6 C6         -1.7150    0.3160   -1.0960 c3        1 MSH     -0.044400
      7 C7         -0.6290   -0.1660   -0.1440 c3        1 MSH     -0.273900
      8 C8         -0.9010    0.3260    1.2690 c3        1 MSH     -0.047400
      9 C9         -0.2620   -0.5560    2.3250 c3        1 MSH     -0.101400
     10 C10        -0.5170   -0.0130    3.7080 c3        1 MSH     -0.090100
     11 HC41        1.7010    2.3120   -1.3440 h1        1 MSH      0.119700
     12 HC42        0.1070    2.4050   -0.5480 h1        1 MSH      0.119700
     13 HC43        1.5800    2.1380    0.4350 h1        1 MSH      0.119700
     14 HC51       -2.7770   -0.2630   -2.8850 hc        1 MSH      0.049033
     15 HC52       -1.0620   -0.8480   -2.8140 hc        1 MSH      0.049033
     16 HC53       -2.3390   -1.6420   -1.7960 hc        1 MSH      0.049033
     17 HC61       -2.6690    0.4900   -0.5290 hc        1 MSH      0.043200
     18 HC62       -1.4170    1.3060   -1.5370 hc        1 MSH      0.043200
     19 HC71       -0.7110   -1.2950   -0.1050 h1        1 MSH      0.122700
     20 HC81       -2.0090    0.3480    1.4520 hc        1 MSH      0.045700
     21 HC82       -0.5360    1.3810    1.3840 hc        1 MSH      0.045700
     22 HC91        0.8440   -0.6340    2.1450 hc        1 MSH      0.060200
     23 HC92       -0.6830   -1.5930    2.2460 hc        1 MSH      0.060200
     24 H101       -0.0500   -0.6800    4.4730 hc        1 MSH      0.034367
     25 H102       -0.0800    1.0090    3.8180 hc        1 MSH      0.034367
     26 H103       -1.6120    0.0490    3.9140 hc        1 MSH      0.034367
@<TRIPOS>BOND
     1    1    2 2   
     2    1    3 2   
     3    1    4 1   
     4    1    7 1   
     5    4   11 1   
     6    4   12 1   
     7    4   13 1   
     8    5    6 1   
     9    5   14 1   
    10    5   15 1   
    11    5   16 1   
    12    6    7 1   
    13    6   17 1   
    14    6   18 1   
    15    7    8 1   
    16    7   19 1   
    17    8    9 1   
    18    8   20 1   
    19    8   21 1   
    20    9   10 1   
    21    9   22 1   
    22    9   23 1   
    23   10   24 1   
    24   10   25 1   
    25   10   26 1   
@<TRIPOS>SUBSTRUCTURE
     1 MSH         1 TEMP              0 ****  ****    0 ROOT
