@<TRIPOS>MOLECULE
MSH
   26    25     1     0     0
SMALL
bcc


@<TRIPOS>ATOM
      1 S1         -0.1560   -0.2870    0.1060 s6        1 MSH      1.312000
      2 O2         -0.7110    0.8350    0.7430 o         1 MSH     -0.652300
      3 O3         -0.6430   -0.5760   -1.1790 o         1 MSH     -0.652300
      4 C4         -0.3620   -1.6430    1.0950 c3        1 MSH     -0.367300
      5 C5          2.2250   -0.8680   -2.2680 c3        1 MSH     -0.112100
      6 C6          2.2360   -1.1930   -0.7940 c3        1 MSH     -0.044400
      7 C7          1.5670   -0.1120    0.0450 c3        1 MSH     -0.273900
      8 C8          2.2320   -0.0070    1.4080 c3        1 MSH     -0.047400
      9 C9          2.0570    1.3610    2.0370 c3        1 MSH     -0.101400
     10 C10         2.6900    1.4130    3.4040 c3        1 MSH     -0.090100
     11 HC41        0.4950   -2.3590    1.1010 h1        1 MSH      0.119700
     12 HC42       -1.2530   -2.2400    0.7680 h1        1 MSH      0.119700
     13 HC43       -0.5480   -1.3630    2.1620 h1        1 MSH      0.119700
     14 HC51        2.7140   -1.6930   -2.8400 hc        1 MSH      0.049033
     15 HC52        1.1780   -0.7480   -2.6430 hc        1 MSH      0.049033
     16 HC53        2.7860    0.0770   -2.4680 hc        1 MSH      0.049033
     17 HC61        1.7170   -2.1750   -0.6260 hc        1 MSH      0.043200
     18 HC62        3.3000   -1.3280   -0.4630 hc        1 MSH      0.043200
     19 HC71        1.7660    0.8730   -0.4780 h1        1 MSH      0.122700
     20 HC81        3.3320   -0.2100    1.3060 hc        1 MSH      0.045700
     21 HC82        1.8230   -0.7960    2.0950 hc        1 MSH      0.045700
     22 HC91        0.9650    1.6140    2.1150 hc        1 MSH      0.060200
     23 HC92        2.5280    2.1370    1.3760 hc        1 MSH      0.060200
     24 H101        3.7830    1.1880    3.3440 hc        1 MSH      0.034367
     25 H102        2.2160    0.6680    4.0880 hc        1 MSH      0.034367
     26 H103        2.5620    2.4300    3.8480 hc        1 MSH      0.034367
@<TRIPOS>BOND
     1    1    2 2   
     2    1    3 2   
     3    1    4 1   
     4    1    7 1   
     5    4   11 1   
     6    4   12 1   
     7    4   13 1   
     8    5    6 1   
     9    5   14 1   
    10    5   15 1   
    11    5   16 1   
    12    6    7 1   
    13    6   17 1   
    14    6   18 1   
    15    7    8 1   
    16    7   19 1   
    17    8    9 1   
    18    8   20 1   
    19    8   21 1   
    20    9   10 1   
    21    9   22 1   
    22    9   23 1   
    23   10   24 1   
    24   10   25 1   
    25   10   26 1   
@<TRIPOS>SUBSTRUCTURE
     1 MSH         1 TEMP              0 ****  ****    0 ROOT
