@<TRIPOS>MOLECULE
MSI
   48    51     1     0     0
SMALL
bcc


@<TRIPOS>ATOM
      1 S1         -2.0270    1.3060    0.1240 sy        1 MSI      1.522200
      2 N1          0.8910   -0.3710    4.9440 n         1 MSI     -0.387000
      3 N2         -2.2090   -0.0590   -0.7330 n3        1 MSI     -0.824500
      4 O4         -3.2980    1.7930    0.5000 o         1 MSI     -0.651800
      5 O5         -1.1760    2.1960   -0.5650 o         1 MSI     -0.651800
      6 C2          2.2470   -0.2810    4.5230 c         1 MSI      0.602500
      7 C3          2.2390    0.1830    3.0420 c         1 MSI      0.534700
      8 C4          0.1790    0.7320    1.5580 ca        1 MSI      0.090000
      9 C5         -1.2260    0.7930    1.5200 ca        1 MSI     -0.439500
     10 C6         -1.9570    0.4640    2.6690 ca        1 MSI      0.055000
     11 C7         -1.3500    0.0650    3.8590 ca        1 MSI     -0.214000
     12 C8          0.0460   -0.0030    3.8920 ca        1 MSI      0.164600
     13 C9          0.8110    0.3380    2.7170 ca        1 MSI     -0.272600
     14 C20        -1.1520   -0.7750   -1.4260 c3        1 MSI      0.244500
     15 C10        -1.6930   -2.1770   -1.7840 c3        1 MSI     -0.078400
     16 C11        -3.1750   -2.1690   -1.4290 c3        1 MSI     -0.087400
     17 C12        -3.4510   -0.8060   -0.7770 c3        1 MSI      0.230800
     18 C13        -0.6680   -0.0350   -2.6940 c3        1 MSI      0.100400
     19 C14         1.1020   -0.2950   -4.2670 ca        1 MSI      0.125100
     20 C15         2.2070   -1.0580   -4.6910 ca        1 MSI     -0.177500
     21 C16         2.9250   -0.6440   -5.8070 ca        1 MSI     -0.097500
     22 C17         2.5570    0.5120   -6.4990 ca        1 MSI     -0.163000
     23 C18         1.4630    1.2600   -6.0700 ca        1 MSI     -0.097500
     24 C19         0.7260    0.8650   -4.9530 ca        1 MSI     -0.177500
     25 HC4         0.7700    1.0160    0.6670 ha        1 MSI      0.173000
     26 HC6        -3.0610    0.5390    2.6340 ha        1 MSI      0.161000
     27 HC7        -1.9530   -0.1810    4.7440 ha        1 MSI      0.155000
     28 H20        -0.2630   -0.8760   -0.7340 h1        1 MSI      0.057700
     29 H101       -1.1440   -2.9540   -1.1960 hc        1 MSI      0.062700
     30 H102       -1.5290   -2.3910   -2.8680 hc        1 MSI      0.062700
     31 H111       -3.4240   -2.9980   -0.7220 hc        1 MSI      0.054200
     32 H112       -3.8070   -2.2950   -2.3420 hc        1 MSI      0.054200
     33 H121       -3.8510   -0.9360    0.2680 h1        1 MSI      0.047700
     34 H122       -4.2170   -0.2310   -1.3690 h1        1 MSI      0.047700
     35 H131       -1.4620   -0.0220   -3.4840 h1        1 MSI      0.063700
     36 H132       -0.3460    1.0140   -2.4500 h1        1 MSI      0.063700
     37 HC15        2.4860   -1.9630   -4.1350 ha        1 MSI      0.144500
     38 HC16        3.7910   -1.2330   -6.1450 ha        1 MSI      0.133000
     39 HC17        3.1320    0.8320   -7.3800 ha        1 MSI      0.133000
     40 HC18        1.1740    2.1730   -6.6120 ha        1 MSI      0.133000
     41 HC19       -0.1310    1.4700   -4.6250 ha        1 MSI      0.144500
     42 HC11        1.3510   -0.9720    6.8830 h1        1 MSI      0.058033
     43 HC12       -0.1250    0.1040    6.7200 h1        1 MSI      0.058033
     44 HC13       -0.2110   -1.6440    6.1960 h1        1 MSI      0.058033
     45 C1          0.4520   -0.7380    6.2510 c3        1 MSI      0.083300
     46 O1          0.4560   -0.7950   -3.1520 os        1 MSI     -0.337900
     47 O2          3.2150   -0.5380    5.2350 o         1 MSI     -0.525500
     48 O3          3.2380    0.3540    2.3630 o         1 MSI     -0.435100
@<TRIPOS>BOND
     1    1    3 1   
     2    1    4 2   
     3    1    5 2   
     4    1    9 1   
     5    2    6 1   
     6    2   12 1   
     7    2   45 1   
     8    3   14 1   
     9    3   17 1   
    10    6    7 1   
    11    6   47 2   
    12    7   13 1   
    13    7   48 2   
    14    8    9 ar  
    15    8   13 ar  
    16    8   25 1   
    17    9   10 ar  
    18   10   11 ar  
    19   10   26 1   
    20   11   12 ar  
    21   11   27 1   
    22   12   13 ar  
    23   14   15 1   
    24   14   18 1   
    25   14   28 1   
    26   15   16 1   
    27   15   29 1   
    28   15   30 1   
    29   16   17 1   
    30   16   31 1   
    31   16   32 1   
    32   17   33 1   
    33   17   34 1   
    34   18   35 1   
    35   18   36 1   
    36   18   46 1   
    37   19   20 ar  
    38   19   24 ar  
    39   19   46 1   
    40   20   21 ar  
    41   20   37 1   
    42   21   22 ar  
    43   21   38 1   
    44   22   23 ar  
    45   22   39 1   
    46   23   24 ar  
    47   23   40 1   
    48   24   41 1   
    49   42   45 1   
    50   43   45 1   
    51   44   45 1   
@<TRIPOS>SUBSTRUCTURE
     1 MSI         1 TEMP              0 ****  ****    0 ROOT
