@<TRIPOS>MOLECULE
MSI
   48    46     1     0     0
SMALL
bcc


@<TRIPOS>ATOM
      1 S1         -1.6810    1.1870   -1.7700 sy        1 MSI      1.475800
      2 N1          0.7530   -6.1820    3.1850 n2        1 MSI     -0.735100
      3 N2         -0.0050    1.3940   -2.2380 n3        1 MSI     -0.409300
      4 O4         -2.4210    0.6240   -2.8040 o         1 MSI     -0.600300
      5 O5         -2.1240    2.3540   -1.1620 o         1 MSI     -0.600300
      6 C2         -1.2920   -6.6800    1.9880 c         1 MSI      0.381800
      7 C3         -1.9740   -5.3470    2.1800 c         1 MSI      0.504100
      8 C4         -0.3030    0.0890    0.0720 c1        1 MSI     -0.003800
      9 C5         -1.4370   -0.0590   -0.5870 ce        1 MSI     -0.273200
     10 C6         -2.3130   -1.2050   -0.5510 ce        1 MSI     -0.117100
     11 C7         -2.2790   -2.1330    0.3700 c1        1 MSI      0.009200
     12 C8         -2.2920   -3.0410    1.3010 c2        1 MSI     -0.178300
     13 C9         -1.4850   -4.2860    1.2410 c3        1 MSI     -0.135200
     14 C20         1.2000    0.9120   -1.5560 c3        1 MSI      0.190000
     15 C10         5.1310    0.8140    2.3570 c2        1 MSI     -0.176300
     16 C11         6.2330   -0.1280    2.0660 c3        1 MSI     -0.057900
     17 C12        -0.0370    2.1540   -3.2940 c1        1 MSI     -0.106500
     18 C13         0.8770    0.6720   -0.0840 c2        1 MSI      0.030800
     19 C14         1.4980    1.2090    2.1440 c2        1 MSI     -0.002900
     20 C15         4.9340    1.3810    3.5120 c1        1 MSI     -0.031800
     21 C16         4.7470    1.9810    4.6590 ce        1 MSI     -0.043800
     22 C17         3.9540    1.4720    5.7020 cg        1 MSI     -0.167300
     23 C18         3.2870    1.0570    6.6060 c1        1 MSI     -0.136500
     24 C19         0.2890    1.1440    2.6950 c2        1 MSI     -0.261000
     25 HC4        -0.4160   -4.0550    1.5150 hc        1 MSI      0.097200
     26 HC6        -3.0580   -1.2660   -1.3710 ha        1 MSI      0.169000
     27 HC7        -2.9220   -2.9170    2.2040 ha        1 MSI      0.168000
     28 H20         1.5580   -0.0400   -2.0350 h1        1 MSI      0.090700
     29 H101        2.0160    1.6860   -1.6230 h1        1 MSI      0.090700
     30 H102        4.4480    1.0290    1.5100 ha        1 MSI      0.145000
     31 H111        6.8820   -0.3020    2.9590 hc        1 MSI      0.048367
     32 H112        5.8120   -1.1110    1.7370 hc        1 MSI      0.048367
     33 H121        0.8700    2.4980   -3.8130 ha        1 MSI      0.036500
     34 H122        6.8680    0.2770    1.2390 hc        1 MSI      0.048367
     35 H131        3.5360    2.6530    0.0530 ha        1 MSI      0.002500
     36 H132        3.8140    2.2010   -0.3690 ha        1 MSI      0.002500
     37 HC15        2.4560    1.3650    2.6780 h4        1 MSI      0.183000
     38 HC16        5.2290    2.9590    4.8620 ha        1 MSI      0.154000
     39 HC17        2.6990    0.6940    7.4100 ha        1 MSI      0.168500
     40 HC18       -0.6460    1.0010    2.1380 ha        1 MSI      0.143500
     41 HC19        0.1710    1.2340    3.7840 ha        1 MSI      0.143500
     42 HC11       -1.4820   -4.7100    0.1990 hc        1 MSI      0.097200
     43 HC12        1.4360   -6.4720    3.8540 hn        1 MSI      0.406400
     44 HC13       -0.3560   -7.9860    3.4590 h4        1 MSI      0.001800
     45 C1         -0.2080   -6.9950    2.9750 ce        1 MSI      0.380200
     46 O1          1.8160    1.1250    0.7900 os        1 MSI     -0.219200
     47 O2         -1.6040   -7.4690    1.0990 o         1 MSI     -0.470100
     48 O3         -2.8280   -5.1890    3.0520 o         1 MSI     -0.491100
@<TRIPOS>BOND
     1    1    3 1   
     2    1    4 2   
     3    1    5 2   
     4    1    9 1   
     5    2   43 1   
     6    2   45 2   
     7    3   14 1   
     8    3   17 3   
     9    6    7 1   
    10    6   45 1   
    11    6   47 2   
    12    7   13 1   
    13    7   48 2   
    14    8    9 2   
    15    8   18 2   
    16    9   10 1   
    17   10   11 2   
    18   10   26 1   
    19   11   12 2   
    20   12   13 1   
    21   12   27 1   
    22   13   25 1   
    23   13   42 1   
    24   14   18 1   
    25   14   28 1   
    26   14   29 1   
    27   15   16 1   
    28   15   20 2   
    29   15   30 1   
    30   16   31 1   
    31   16   32 1   
    32   16   34 1   
    33   17   33 1   
    34   18   46 1   
    35   19   24 2   
    36   19   37 1   
    37   19   46 1   
    38   20   21 2   
    39   21   22 1   
    40   21   38 1   
    41   22   23 3   
    42   23   39 1   
    43   24   40 1   
    44   24   41 1   
    45   35   36 1   
    46   44   45 1   
@<TRIPOS>SUBSTRUCTURE
     1 MSI         1 TEMP              0 ****  ****    0 ROOT
