@<TRIPOS>MOLECULE
MSI
   48    47     1     0     0
SMALL
bcc


@<TRIPOS>ATOM
      1 S1         -0.5570    0.6120    0.1690 s6        1 MSI      2.759000
      2 N1         -0.5680   -5.7730    1.3050 ns        1 MSI     -0.199000
      3 N2          1.0830    0.0370    0.5550 n3        1 MSI     -0.375000
      4 O4         -0.6750    1.4690   -0.9250 o         1 MSI     -0.888500
      5 O5         -1.4540    0.6050    1.2350 o         1 MSI     -0.888500
      6 C2          0.7440   -5.6200    0.6500 c2        1 MSI      0.245000
      7 C3          1.0440   -4.2660   -0.0010 c2        1 MSI      0.272000
      8 C4          0.3560   -1.9690   -0.5000 c3        1 MSI      0.050000
      9 C5         -0.8450   -1.0340   -0.6600 c3        1 MSI     -0.728000
     10 C6         -2.1290   -1.6020   -0.2280 c2        1 MSI     -0.046000
     11 C7         -2.2470   -2.6630    0.5750 c2        1 MSI     -0.202000
     12 C8         -1.0390   -3.3570    1.1100 c3        1 MSI      0.022000
     13 C9          0.1310   -3.2420    0.2220 c2        1 MSI     -0.476000
     14 C20         1.7480    1.0710    1.2190 c2        1 MSI     -0.325000
     15 C10         5.0400   -1.5930    0.8390 c2        1 MSI     -0.232000
     16 C11         4.6230   -2.8460    0.9600 c2        1 MSI     -0.232000
     17 C12         1.4320   -1.1670    0.2150 c2        1 MSI      0.023000
     18 C13         0.8220    2.0800    1.2480 c1        1 MSI     -0.316000
     19 C14         0.0770    4.2390    1.7280 c2        1 MSI     -0.032000
     20 C15         2.9530   -0.1540    7.6070 c1        1 MSI      0.216000
     21 C16         3.2540    0.9620    6.9690 c2        1 MSI     -0.357000
     22 C17         2.7770    1.4010    5.7320 c1        1 MSI     -0.138000
     23 C18         2.3760    1.7860    4.6720 c1        1 MSI     -0.171000
     24 C19        -0.7750    4.3500    0.7120 c2        1 MSI     -0.266000
     25 HC4        -0.9340   -0.7880   -1.7570 h1        1 MSI      0.161000
     26 HC6        -3.0290   -1.0790   -0.5980 ha        1 MSI      0.140000
     27 HC7        -3.2280   -3.0380    0.8980 ha        1 MSI      0.126000
     28 H20         2.7760    0.9580    1.5650 h4        1 MSI      0.172000
     29 H101        4.8580   -0.9890   -0.0600 ha        1 MSI      0.116750
     30 H102        5.6050   -1.0750    1.6260 ha        1 MSI      0.116750
     31 H111        4.8190   -3.4470    1.8590 ha        1 MSI      0.116750
     32 H112        0.7790   -2.2170   -1.5210 hc        1 MSI      0.140000
     33 H121        2.4220   -1.6240    0.4160 h4        1 MSI      0.206000
     34 H122        4.0600   -3.3730    0.1720 ha        1 MSI      0.116750
     35 H131        5.0720    1.0960    1.2200 ha        1 MSI      0.000500
     36 H132        5.0560    1.7310    1.4540 ha        1 MSI      0.000500
     37 HC15        0.1880    4.9270    2.5800 h4        1 MSI      0.153000
     38 HC16        3.9770    1.6490    7.4720 ha        1 MSI      0.200000
     39 HC17        2.0140    2.1240    3.7280 ha        1 MSI      0.247000
     40 HC18       -0.8170    3.6230   -0.1120 ha        1 MSI      0.140000
     41 HC19       -1.4870    5.1830    0.6590 ha        1 MSI      0.140000
     42 HC11       -0.8160   -6.6990    1.6150 hn        1 MSI      0.248000
     43 HC12       -0.7910   -2.8750    2.1200 hc        1 MSI      0.147000
     44 HC13       -2.3690   -4.9370    1.9670 h4        1 MSI      0.168000
     45 C1         -1.3810   -4.7630    1.4810 c2        1 MSI      0.157000
     46 O1          1.0610    3.2510    1.8590 os        1 MSI     -0.120000
     47 O2          1.4400   -6.6260    0.6810 o         1 MSI     -0.220000
     48 O3          2.0930   -4.2390   -0.6810 o         1 MSI     -0.388000
@<TRIPOS>BOND
     1    1    3 1   
     2    1    4 1   
     3    1    5 1   
     4    1    9 1   
     5    2    6 1   
     6    2   42 1   
     7    2   45 1   
     8    3   14 1   
     9    3   17 1   
    10    6    7 1   
    11    6   47 1   
    12    7   13 1   
    13    7   48 1   
    14    8    9 1   
    15    8   13 1   
    16    8   17 1   
    17    8   32 1   
    18    9   10 1   
    19    9   25 1   
    20   10   11 1   
    21   10   26 1   
    22   11   12 1   
    23   11   27 1   
    24   12   13 1   
    25   12   43 1   
    26   12   45 1   
    27   14   18 1   
    28   14   28 1   
    29   15   16 1   
    30   15   29 1   
    31   15   30 1   
    32   16   31 1   
    33   16   34 1   
    34   17   33 1   
    35   18   46 1   
    36   19   24 1   
    37   19   37 1   
    38   19   46 1   
    39   20   21 1   
    40   21   22 1   
    41   21   38 1   
    42   22   23 1   
    43   23   39 1   
    44   24   40 1   
    45   24   41 1   
    46   35   36 1   
    47   44   45 1   
@<TRIPOS>SUBSTRUCTURE
     1 MSI         1 TEMP              0 ****  ****    0 ROOT
