@<TRIPOS>MOLECULE
MSI
   48    47     1     0     0
SMALL
bcc


@<TRIPOS>ATOM
      1 S1         -2.4070    0.3540   -0.1450 s6        1 MSI      2.817000
      2 N1         -0.9250   -5.1260    0.3090 n         1 MSI     -0.335000
      3 N2         -1.1790    0.5080    0.9070 n3        1 MSI     -0.745000
      4 O4         -1.9990    0.7790   -1.4310 o         1 MSI     -0.922500
      5 O5         -3.5900    0.9380    0.3310 o         1 MSI     -0.922500
      6 C2         -1.0690   -5.3330    1.7230 c2        1 MSI      0.228000
      7 C3         -1.7680   -4.0610    2.3050 c2        1 MSI      0.301000
      8 C4         -2.5670   -1.9740    1.0380 c1        1 MSI     -0.105000
      9 C5         -2.7110   -1.3790   -0.3010 c3        1 MSI     -0.787000
     10 C6         -2.0590   -2.0620   -1.4320 c2        1 MSI     -0.002000
     11 C7         -1.4760   -3.2790   -1.3120 c2        1 MSI     -0.219000
     12 C8         -1.4480   -3.9090   -0.0150 c2        1 MSI      0.234000
     13 C9         -1.9870   -3.2140    1.1300 c2        1 MSI     -0.334000
     14 C20        -1.3940    0.2810    2.3130 c3        1 MSI     -0.069000
     15 C10         6.0170    1.2920    3.0030 c2        1 MSI     -0.159000
     16 C11         6.2330    0.1480    2.3590 c2        1 MSI     -0.225000
     17 C12         0.1200    0.7390    0.4540 c2        1 MSI     -0.077000
     18 C13         1.2880    0.5290    1.1010 c2        1 MSI     -0.091000
     19 C14         2.4120    0.3790    3.1720 c3        1 MSI      0.056000
     20 C15         6.1920    4.6930    1.7520 c1        1 MSI      0.173000
     21 C16         5.9940    3.7130    2.5980 c2        1 MSI     -0.497000
     22 C17         6.8400    2.5160    2.8240 c3        1 MSI     -0.047000
     23 C18         3.1440    2.6770    3.8740 c1        1 MSI      0.174000
     24 C19         2.2210    1.7780    3.6440 c2        1 MSI     -0.512000
     25 HC4        -3.8380   -1.4640   -0.4840 h1        1 MSI      0.230000
     26 HC6        -2.0750   -1.5350   -2.4040 ha        1 MSI      0.163000
     27 HC7        -1.0130   -3.7890   -2.1690 ha        1 MSI      0.148000
     28 H20        -2.4990    0.2390    2.5170 h1        1 MSI      0.101667
     29 H101       -0.9300   -0.6930    2.6330 h1        1 MSI      0.101667
     30 H102        5.1970    1.3930    3.7370 ha        1 MSI      0.116000
     31 H111        7.5650    2.3840    1.9750 hc        1 MSI      0.095000
     32 H112        7.0370    0.0210    1.6220 ha        1 MSI      0.114000
     33 H121        0.1680    1.1420   -0.5820 h4        1 MSI      0.172000
     34 H122        5.6190   -0.7460    2.5310 ha        1 MSI      0.114000
     35 H131        2.2560    0.7950    0.6520 h4        1 MSI      0.147000
     36 H132       -0.9290    1.1120    2.9060 h1        1 MSI      0.101667
     37 HC15        3.3870    0.2660    2.6240 h1        1 MSI      0.105000
     38 HC16        5.0820    3.7650    3.2440 ha        1 MSI      0.221000
     39 HC17        7.4470    2.6800    3.7600 hc        1 MSI      0.095000
     40 HC18        1.1550    2.0470    3.8190 ha        1 MSI      0.214000
     41 HC19        2.3720   -0.3310    4.0460 h1        1 MSI      0.105000
     42 HC11        1.3970   -7.2570   -1.1950 ha        1 MSI      0.056000
     43 HC12       -0.4770   -5.8050   -0.3350 hn        1 MSI      0.315000
     44 HC13       -0.2460   -8.0230   -1.5080 ha        1 MSI      0.056000
     45 C1          0.3070   -7.1460   -1.1470 c1        1 MSI     -0.033000
     46 O1          1.3280   -0.0590    2.3540 os        1 MSI     -0.213000
     47 O2         -0.6830   -6.3520    2.2890 o         1 MSI     -0.255000
     48 O3         -2.0170   -3.9290    3.4910 o         1 MSI     -0.203000
@<TRIPOS>BOND
     1    1    3 1   
     2    1    4 1   
     3    1    5 1   
     4    1    9 1   
     5    2    6 1   
     6    2   12 1   
     7    2   43 1   
     8    3   14 1   
     9    3   17 1   
    10    6    7 1   
    11    6   47 1   
    12    7   13 1   
    13    7   48 1   
    14    8    9 1   
    15    8   13 1   
    16    9   10 1   
    17    9   25 1   
    18   10   11 1   
    19   10   26 1   
    20   11   12 1   
    21   11   27 1   
    22   12   13 1   
    23   14   28 1   
    24   14   29 1   
    25   14   36 1   
    26   15   16 1   
    27   15   22 1   
    28   15   30 1   
    29   16   32 1   
    30   16   34 1   
    31   17   18 1   
    32   17   33 1   
    33   18   35 1   
    34   18   46 1   
    35   19   24 1   
    36   19   37 1   
    37   19   41 1   
    38   19   46 1   
    39   20   21 1   
    40   21   22 1   
    41   21   38 1   
    42   22   31 1   
    43   22   39 1   
    44   23   24 1   
    45   24   40 1   
    46   42   45 1   
    47   44   45 1   
@<TRIPOS>SUBSTRUCTURE
     1 MSI         1 TEMP              0 ****  ****    0 ROOT
