@<TRIPOS>MOLECULE
MSJ
   50    51     1     0     0
SMALL
bcc


@<TRIPOS>ATOM
      1 O1          1.3790    0.3210   -4.6440 o         1 MSJ     -0.553500
      2 C2          1.9410   -0.3300   -3.7560 c         1 MSJ      0.706700
      3 N3          2.4900   -1.5940   -4.0850 ns        1 MSJ     -0.576500
      4 C4          3.1340   -2.3970   -3.1510 c         1 MSJ      0.830500
      5 N5          3.2420   -1.9510   -1.8100 n         1 MSJ     -0.415000
      6 C6          2.7290   -0.7040   -1.4580 cc        1 MSJ      0.028600
      7 C7          2.1030    0.0940   -2.3570 cd        1 MSJ     -0.276200
      8 O8          3.6270   -3.5090   -3.4830 o         1 MSJ     -0.738500
      9 C9          3.8500   -2.8320   -0.8300 c3        1 MSJ      0.308800
     10 C10         7.7010   -3.8620   -3.4780 c3        1 MSJ      0.160200
     11 O10         5.2070   -3.1350   -1.1260 os        1 MSJ     -0.466600
     12 C11         6.1430   -2.1100   -0.7790 c3        1 MSJ      0.115400
     13 C12         7.5130   -2.5860   -1.2340 c3        1 MSJ     -0.096400
     14 S12         5.9960   -5.9950   -4.4090 sy        1 MSJ      1.480200
     15 C13         7.7120   -2.5090   -2.7320 c3        1 MSJ     -0.098400
     16 O13         7.2100   -6.6490   -4.5660 o         1 MSJ     -0.583300
     17 C14         4.9710   -6.8000   -3.4530 ca        1 MSJ     -0.516500
     18 C15         3.5900   -6.5160   -3.4590 ca        1 MSJ      0.014000
     19 C16         2.6990   -7.2800   -2.7150 ca        1 MSJ     -0.155500
     20 C17         3.1660   -8.3460   -1.9440 ca        1 MSJ     -0.010000
     21 N17         6.3860   -4.5760   -3.2600 ny        1 MSJ     -0.711900
     22 C18         4.5340   -8.6420   -1.9180 ca        1 MSJ     -0.155500
     23 O19         5.4150   -5.3650   -5.4950 o         1 MSJ     -0.583300
     24 C20         5.4210   -7.8810   -2.6640 ca        1 MSJ      0.014000
     25 C25         7.8890   -3.5600   -4.9730 c3        1 MSJ     -0.134100
     26 C26         8.8770   -4.7200   -3.0000 c3        1 MSJ     -0.134100
     27 HN3         2.4070   -1.9430   -5.0190 hn        1 MSJ      0.363500
     28 H6          2.8570   -0.4130   -0.3980 h4        1 MSJ      0.174000
     29 H7          1.6880    1.0770   -2.0920 ha        1 MSJ      0.198000
     30 H9          3.3460   -3.8440   -0.8800 h2        1 MSJ      0.088200
     31 H9A         3.7590   -2.3670    0.1920 h2        1 MSJ      0.088200
     32 H11         6.1290   -1.9710    0.3360 h1        1 MSJ      0.052200
     33 H11A        5.8610   -1.1460   -1.2780 h1        1 MSJ      0.052200
     34 H12         7.6860   -3.6260   -0.8530 hc        1 MSJ      0.071200
     35 H12A        8.2700   -1.9230   -0.7320 hc        1 MSJ      0.071200
     36 H13         6.9380   -1.8360   -3.1910 hc        1 MSJ      0.075200
     37 H13A        8.7130   -2.0420   -2.9430 hc        1 MSJ      0.075200
     38 H15         3.2150   -5.6710   -4.0710 ha        1 MSJ      0.174500
     39 H16         1.6210   -7.0490   -2.7430 ha        1 MSJ      0.167500
     40 H17         2.4590   -8.9590   -1.3590 ha        1 MSJ      0.164000
     41 HN17        5.6430   -3.8670   -3.3550 hn        1 MSJ      0.466300
     42 H18         4.9040   -9.4870   -1.3140 ha        1 MSJ      0.167500
     43 H20         6.4980   -8.1360   -2.6630 ha        1 MSJ      0.174500
     44 H25         8.0130   -4.5030   -5.5620 hc        1 MSJ      0.075867
     45 H25A        8.8180   -2.9520   -5.0980 hc        1 MSJ      0.075867
     46 H25B        7.0280   -2.9810   -5.3860 hc        1 MSJ      0.075867
     47 H26         9.8120   -4.1120   -3.0820 hc        1 MSJ      0.075867
     48 H26A        8.7580   -5.0360   -1.9360 hc        1 MSJ      0.075867
     49 H26B        9.0000   -5.6310   -3.6380 hc        1 MSJ      0.075867
     50 H172        6.3570   -4.8650   -2.2810 hn        1 MSJ      0.466300
@<TRIPOS>BOND
     1    1    2 2   
     2    2    3 1   
     3    2    7 1   
     4    3    4 1   
     5    3   27 1   
     6    4    5 1   
     7    4    8 2   
     8    5    6 1   
     9    5    9 1   
    10    6    7 2   
    11    6   28 1   
    12    7   29 1   
    13    9   11 1   
    14    9   30 1   
    15    9   31 1   
    16   10   15 1   
    17   10   21 1   
    18   10   25 1   
    19   10   26 1   
    20   11   12 1   
    21   12   13 1   
    22   12   32 1   
    23   12   33 1   
    24   13   15 1   
    25   13   34 1   
    26   13   35 1   
    27   14   16 2   
    28   14   17 1   
    29   14   21 1   
    30   14   23 2   
    31   15   36 1   
    32   15   37 1   
    33   17   18 ar  
    34   17   24 ar  
    35   18   19 ar  
    36   18   38 1   
    37   19   20 ar  
    38   19   39 1   
    39   20   22 ar  
    40   20   40 1   
    41   21   41 1   
    42   21   50 1   
    43   22   24 ar  
    44   22   42 1   
    45   24   43 1   
    46   25   44 1   
    47   25   45 1   
    48   25   46 1   
    49   26   47 1   
    50   26   48 1   
    51   26   49 1   
@<TRIPOS>SUBSTRUCTURE
     1 MSJ         1 TEMP              0 ****  ****    0 ROOT
