@<TRIPOS>MOLECULE
MSJ
   50    51     1     0     0
SMALL
bcc


@<TRIPOS>ATOM
      1 O1          1.1440    0.0620   -4.1060 o         1 MSJ     -0.557500
      2 C2          1.8240   -0.5410   -3.2670 c         1 MSJ      0.707700
      3 N3          2.4310   -1.7640   -3.6410 n         1 MSJ     -0.581500
      4 C4          3.2060   -2.5200   -2.7640 c         1 MSJ      0.829500
      5 N5          3.3890   -2.0600   -1.4350 n         1 MSJ     -0.414000
      6 C6          2.8230   -0.8480   -1.0450 cc        1 MSJ      0.030600
      7 C7          2.0740   -0.0980   -1.8880 cd        1 MSJ     -0.278200
      8 O8          3.7460   -3.5910   -3.1460 o         1 MSJ     -0.728500
      9 C9          4.1200   -2.8920   -0.4970 c3        1 MSJ      0.312800
     10 C10         7.5970   -3.7750   -3.6380 c3        1 MSJ      0.163200
     11 O10         5.4600   -3.1420   -0.8940 os        1 MSJ     -0.466600
     12 C11         6.3730   -2.0570   -0.6990 c3        1 MSJ      0.118400
     13 C12         7.6530   -2.4190   -1.4350 c3        1 MSJ     -0.099400
     14 S12         6.7240   -6.5060   -3.4660 sy        1 MSJ      1.476200
     15 C13         7.4980   -2.4000   -2.9410 c3        1 MSJ     -0.096400
     16 O13         7.5400   -6.8730   -2.4050 o         1 MSJ     -0.587300
     17 C14         5.1900   -6.9850   -3.2950 ca        1 MSJ     -0.511500
     18 C15         4.3130   -7.0260   -4.3990 ca        1 MSJ      0.014000
     19 C16         3.0190   -7.5110   -4.2690 ca        1 MSJ     -0.148000
     20 C17         2.5650   -7.9670   -3.0290 ca        1 MSJ     -0.006000
     21 N17         6.4860   -4.6890   -3.1630 n4        1 MSJ     -0.720900
     22 C18         3.4170   -7.9370   -1.9200 ca        1 MSJ     -0.148000
     23 O19         7.1860   -6.5810   -4.7710 o         1 MSJ     -0.587300
     24 C20         4.7110   -7.4510   -2.0530 ca        1 MSJ      0.014000
     25 C25         7.4640   -3.5310   -5.1490 c3        1 MSJ     -0.138100
     26 C26         8.9670   -4.4020   -3.3630 c3        1 MSJ     -0.138100
     27 HN3         2.2860   -2.1270   -4.5600 hn        1 MSJ      0.357500
     28 H6          3.0180   -0.5410    0.0010 h4        1 MSJ      0.175000
     29 H7          1.6190    0.8580   -1.5900 ha        1 MSJ      0.198000
     30 H9          3.6620   -3.9260   -0.4860 h2        1 MSJ      0.087200
     31 H9A         4.0930   -2.4090    0.5210 h2        1 MSJ      0.087200
     32 H11         6.5670   -1.9520    0.4020 h1        1 MSJ      0.053700
     33 H11A        5.9390   -1.1020   -1.0950 h1        1 MSJ      0.053700
     34 H12         8.4280   -1.6630   -1.1340 hc        1 MSJ      0.073200
     35 H12A        8.0170   -3.4170   -1.0730 hc        1 MSJ      0.073200
     36 H13         8.3080   -1.7610   -3.3870 hc        1 MSJ      0.074700
     37 H13A        6.5180   -1.9270   -3.2200 hc        1 MSJ      0.074700
     38 H15         4.6730   -6.6830   -5.3870 ha        1 MSJ      0.162500
     39 H16         2.3510   -7.5400   -5.1460 ha        1 MSJ      0.168000
     40 H17         1.5380   -8.3560   -2.9250 ha        1 MSJ      0.165000
     41 HN17        5.6160   -4.3500   -3.5880 hn        1 MSJ      0.473300
     42 H18         3.0650   -8.3070   -0.9430 ha        1 MSJ      0.168000
     43 H20         5.3880   -7.4480   -1.1780 ha        1 MSJ      0.162500
     44 H25         8.3000   -2.8620   -5.4730 hc        1 MSJ      0.077200
     45 H25A        6.4970   -3.0300   -5.3930 hc        1 MSJ      0.077200
     46 H25B        7.5430   -4.4870   -5.7250 hc        1 MSJ      0.077200
     47 H26         9.1630   -5.2510   -4.0660 hc        1 MSJ      0.077200
     48 H26A        9.0640   -4.7730   -2.3130 hc        1 MSJ      0.077200
     49 H26B        9.7530   -3.6260   -3.5350 hc        1 MSJ      0.077200
     50 H172        6.3810   -4.5310   -2.1550 hn        1 MSJ      0.473300
@<TRIPOS>BOND
     1    1    2 2   
     2    2    3 1   
     3    2    7 1   
     4    3    4 1   
     5    3   27 1   
     6    4    5 1   
     7    4    8 2   
     8    5    6 1   
     9    5    9 1   
    10    6    7 2   
    11    6   28 1   
    12    7   29 1   
    13    9   11 1   
    14    9   30 1   
    15    9   31 1   
    16   10   15 1   
    17   10   21 1   
    18   10   25 1   
    19   10   26 1   
    20   11   12 1   
    21   12   13 1   
    22   12   32 1   
    23   12   33 1   
    24   13   15 1   
    25   13   34 1   
    26   13   35 1   
    27   14   16 2   
    28   14   17 1   
    29   14   21 1   
    30   14   23 2   
    31   15   36 1   
    32   15   37 1   
    33   17   18 ar  
    34   17   24 ar  
    35   18   19 ar  
    36   18   38 1   
    37   19   20 ar  
    38   19   39 1   
    39   20   22 ar  
    40   20   40 1   
    41   21   41 1   
    42   21   50 1   
    43   22   24 ar  
    44   22   42 1   
    45   24   43 1   
    46   25   44 1   
    47   25   45 1   
    48   25   46 1   
    49   26   47 1   
    50   26   48 1   
    51   26   49 1   
@<TRIPOS>SUBSTRUCTURE
     1 MSJ         1 TEMP              0 ****  ****    0 ROOT
