@<TRIPOS>MOLECULE
MSJ
   49    50     1     0     0
SMALL
bcc


@<TRIPOS>ATOM
      1 O1          6.5270   -3.0220    0.9690 o         1 MSJ     -0.604500
      2 C2          6.0650   -1.8840    0.7910 c         1 MSJ      0.713700
      3 N3          6.3620   -1.2040   -0.4040 n         1 MSJ     -0.586500
      4 C4          5.8730    0.0780   -0.6970 c         1 MSJ      0.810500
      5 N5          5.0530    0.7300    0.2700 n         1 MSJ     -0.404000
      6 C6          4.7340    0.0700    1.4490 cc        1 MSJ      0.039600
      7 C7          5.2090   -1.1660    1.7460 cd        1 MSJ     -0.310200
      8 O8          6.1790    0.6450   -1.7650 o         1 MSJ     -0.629500
      9 C9          4.4020    1.9790   -0.0860 c3        1 MSJ      0.289800
     10 C10        -1.7740    1.3900   -0.2340 c3        1 MSJ      0.274200
     11 O10         3.1150    1.8190   -0.6610 os        1 MSJ     -0.413600
     12 C11         2.0840    1.4700    0.2620 c3        1 MSJ      0.118400
     13 C12         0.7720    1.6010   -0.4980 c3        1 MSJ     -0.081400
     14 S12        -4.3690    0.6000    0.3070 sy        1 MSJ      1.518200
     15 C13        -0.3700    1.1220    0.3690 c3        1 MSJ     -0.085400
     16 O13        -4.7520    1.3570   -0.8210 o         1 MSJ     -0.657800
     17 C14        -4.5570   -1.0440   -0.0430 ca        1 MSJ     -0.377500
     18 C15        -4.9230   -1.9470    0.9640 ca        1 MSJ     -0.018500
     19 C16        -5.1100   -3.2970    0.6790 ca        1 MSJ     -0.157000
     20 C17        -4.9350   -3.7630   -0.6250 ca        1 MSJ     -0.067000
     21 N17        -2.7820    0.7280    0.5930 n3        1 MSJ     -0.922100
     22 C18        -4.5780   -2.8740   -1.6400 ca        1 MSJ     -0.157000
     23 O19        -5.0600    0.8640    1.5120 o         1 MSJ     -0.657800
     24 C20        -4.3910   -1.5260   -1.3460 ca        1 MSJ     -0.018500
     25 C25        -2.0170    2.9110   -0.2710 c3        1 MSJ     -0.124600
     26 C26        -1.8050    0.8760   -1.6830 c3        1 MSJ     -0.124600
     27 HN3         6.9410   -1.6360   -1.0920 hn        1 MSJ      0.354500
     28 H6          4.0800    0.6320    2.1430 h4        1 MSJ      0.159000
     29 H7          4.9870   -1.6780    2.6900 ha        1 MSJ      0.179000
     30 H9          4.3450    2.6190    0.8400 h2        1 MSJ      0.091200
     31 H9A         4.9970    2.4770   -0.9110 h2        1 MSJ      0.091200
     32 H11         2.2380    0.4160    0.6150 h1        1 MSJ      0.028200
     33 H11A        2.1100    2.1630    1.1450 h1        1 MSJ      0.028200
     34 H12         0.6320    2.6700   -0.8020 hc        1 MSJ      0.065200
     35 H12A        0.8380    0.9900   -1.4370 hc        1 MSJ      0.065200
     36 H13        -0.3110    1.6300    1.3690 hc        1 MSJ      0.045200
     37 H13A       -0.2450    0.0190    0.5390 hc        1 MSJ      0.045200
     38 H15        -5.0830   -1.5730    1.9910 ha        1 MSJ      0.152500
     39 H16        -5.4010   -3.9930    1.4790 ha        1 MSJ      0.141000
     40 H17        -5.0840   -4.8300   -0.8540 ha        1 MSJ      0.137000
     41 HN17       -2.4110    0.3880    1.4490 hn        1 MSJ      0.442800
     42 H18        -4.4480   -3.2370   -2.6710 ha        1 MSJ      0.141000
     43 H20        -4.1220   -0.8200   -2.1510 ha        1 MSJ      0.152500
     44 H25        -1.2680    3.3940   -0.9410 hc        1 MSJ      0.052533
     45 H25A       -3.0370    3.1320   -0.6720 hc        1 MSJ      0.052533
     46 H25B       -1.9230    3.3520    0.7490 hc        1 MSJ      0.052533
     47 H26        -1.5390   -0.2070   -1.7260 hc        1 MSJ      0.052533
     48 H26A       -2.8160    1.0280   -2.1350 hc        1 MSJ      0.052533
     49 H26B       -1.0690    1.4520   -2.2940 hc        1 MSJ      0.052533
@<TRIPOS>BOND
     1    1    2 2   
     2    2    3 1   
     3    2    7 1   
     4    3    4 1   
     5    3   27 1   
     6    4    5 1   
     7    4    8 2   
     8    5    6 1   
     9    5    9 1   
    10    6    7 2   
    11    6   28 1   
    12    7   29 1   
    13    9   11 1   
    14    9   30 1   
    15    9   31 1   
    16   10   15 1   
    17   10   21 1   
    18   10   25 1   
    19   10   26 1   
    20   11   12 1   
    21   12   13 1   
    22   12   32 1   
    23   12   33 1   
    24   13   15 1   
    25   13   34 1   
    26   13   35 1   
    27   14   16 2   
    28   14   17 1   
    29   14   21 1   
    30   14   23 2   
    31   15   36 1   
    32   15   37 1   
    33   17   18 ar  
    34   17   24 ar  
    35   18   19 ar  
    36   18   38 1   
    37   19   20 ar  
    38   19   39 1   
    39   20   22 ar  
    40   20   40 1   
    41   21   41 1   
    42   22   24 ar  
    43   22   42 1   
    44   24   43 1   
    45   25   44 1   
    46   25   45 1   
    47   25   46 1   
    48   26   47 1   
    49   26   48 1   
    50   26   49 1   
@<TRIPOS>SUBSTRUCTURE
     1 MSJ         1 TEMP              0 ****  ****    0 ROOT
