@<TRIPOS>MOLECULE
MSJ
   50    51     1     0     0
SMALL
bcc


@<TRIPOS>ATOM
      1 O1          1.2470    0.2760   -4.4600 o         1 MSJ     -0.553500
      2 C2          1.8490   -0.3760   -3.5990 c         1 MSJ      0.706700
      3 N3          2.4080   -1.6260   -3.9620 n         1 MSJ     -0.576500
      4 C4          3.0950   -2.4300   -3.0600 c         1 MSJ      0.830500
      5 N5          3.2400   -1.9980   -1.7180 n         1 MSJ     -0.415000
      6 C6          2.7180   -0.7640   -1.3340 cc        1 MSJ      0.028600
      7 C7          2.0500    0.0340   -2.2010 cd        1 MSJ     -0.276200
      8 O8          3.5950   -3.5290   -3.4220 o         1 MSJ     -0.738500
      9 C9          3.8950   -2.8810   -0.7700 c3        1 MSJ      0.308800
     10 C10         7.6720   -3.8100   -3.5560 c3        1 MSJ      0.160200
     11 O10         5.2460   -3.1570   -1.1140 os        1 MSJ     -0.466600
     12 C11         6.1760   -2.1200   -0.7840 c3        1 MSJ      0.115400
     13 C12         7.5370   -2.5660   -1.2900 c3        1 MSJ     -0.096400
     14 S12         5.9740   -5.9620   -4.4580 sy        1 MSJ      1.480200
     15 C13         7.6850   -2.4660   -2.7940 c3        1 MSJ     -0.098400
     16 O13         7.1930   -6.5910   -4.6630 o         1 MSJ     -0.583300
     17 C14         4.9950   -6.7970   -3.4790 ca        1 MSJ     -0.516500
     18 C15         3.6110   -6.5370   -3.4350 ca        1 MSJ      0.014000
     19 C16         2.7590   -7.3260   -2.6710 ca        1 MSJ     -0.155500
     20 C17         3.2700   -8.3930   -1.9300 ca        1 MSJ     -0.010000
     21 N17         6.3780   -4.5500   -3.3040 n4        1 MSJ     -0.711900
     22 C18         4.6430   -8.6650   -1.9540 ca        1 MSJ     -0.155500
     23 O19         5.3460   -5.3280   -5.5150 o         1 MSJ     -0.583300
     24 C20         5.4910   -7.8790   -2.7190 ca        1 MSJ      0.014000
     25 C25         7.8050   -3.4870   -5.0520 c3        1 MSJ     -0.134100
     26 C26         8.8790   -4.6530   -3.1290 c3        1 MSJ     -0.134100
     27 HN3         2.2990   -1.9650   -4.8970 hn        1 MSJ      0.363500
     28 H6          2.8760   -0.4840   -0.2740 h4        1 MSJ      0.174000
     29 H7          1.6280    1.0060   -1.9100 ha        1 MSJ      0.198000
     30 H9          3.4060   -3.9000   -0.8160 h2        1 MSJ      0.088200
     31 H9A         3.8290   -2.4300    0.2600 h2        1 MSJ      0.088200
     32 H11         6.1960   -1.9960    0.3320 h1        1 MSJ      0.052200
     33 H11A        5.8610   -1.1550   -1.2600 h1        1 MSJ      0.052200
     34 H12         7.7410   -3.6070   -0.9280 hc        1 MSJ      0.071200
     35 H12A        8.3000   -1.8970   -0.8050 hc        1 MSJ      0.071200
     36 H13         6.8850   -1.8020   -3.2170 hc        1 MSJ      0.075200
     37 H13A        8.6710   -1.9800   -3.0310 hc        1 MSJ      0.075200
     38 H15         3.2010   -5.6910   -4.0220 ha        1 MSJ      0.174500
     39 H16         1.6770   -7.1130   -2.6610 ha        1 MSJ      0.167500
     40 H17         2.5940   -9.0250   -1.3300 ha        1 MSJ      0.164000
     41 HN17        5.6200   -3.8530   -3.3650 hn        1 MSJ      0.466300
     42 H18         5.0470   -9.5110   -1.3750 ha        1 MSJ      0.167500
     43 H20         6.5710   -8.1150   -2.7580 ha        1 MSJ      0.174500
     44 H25         7.9260   -4.4200   -5.6570 hc        1 MSJ      0.075867
     45 H25A        8.7190   -2.8610   -5.2000 hc        1 MSJ      0.075867
     46 H25B        6.9210   -2.9170   -5.4290 hc        1 MSJ      0.075867
     47 H26         9.8000   -4.0280   -3.2340 hc        1 MSJ      0.075867
     48 H26A        8.8000   -4.9840   -2.0660 hc        1 MSJ      0.075867
     49 H26B        8.9960   -5.5550   -3.7820 hc        1 MSJ      0.075867
     50 H172        6.3870   -4.8520   -2.3290 hn        1 MSJ      0.466300
@<TRIPOS>BOND
     1    1    2 2   
     2    2    3 1   
     3    2    7 1   
     4    3    4 1   
     5    3   27 1   
     6    4    5 1   
     7    4    8 2   
     8    5    6 1   
     9    5    9 1   
    10    6    7 2   
    11    6   28 1   
    12    7   29 1   
    13    9   11 1   
    14    9   30 1   
    15    9   31 1   
    16   10   15 1   
    17   10   21 1   
    18   10   25 1   
    19   10   26 1   
    20   11   12 1   
    21   12   13 1   
    22   12   32 1   
    23   12   33 1   
    24   13   15 1   
    25   13   34 1   
    26   13   35 1   
    27   14   16 2   
    28   14   17 1   
    29   14   21 1   
    30   14   23 2   
    31   15   36 1   
    32   15   37 1   
    33   17   18 ar  
    34   17   24 ar  
    35   18   19 ar  
    36   18   38 1   
    37   19   20 ar  
    38   19   39 1   
    39   20   22 ar  
    40   20   40 1   
    41   21   41 1   
    42   21   50 1   
    43   22   24 ar  
    44   22   42 1   
    45   24   43 1   
    46   25   44 1   
    47   25   45 1   
    48   25   46 1   
    49   26   47 1   
    50   26   48 1   
    51   26   49 1   
@<TRIPOS>SUBSTRUCTURE
     1 MSJ         1 TEMP              0 ****  ****    0 ROOT
