@<TRIPOS>MOLECULE
MSL
   22    21     1     0     0
SMALL
bcc


@<TRIPOS>ATOM
      1 OXT        -2.0580    0.8940    2.0830 o         1 MSL     -0.840800
      2 C          -2.5120    0.1780    1.1480 c         1 MSL      0.887600
      3 O          -3.7100    0.1920    0.7470 o         1 MSL     -0.840800
      4 CA         -1.5180   -0.8170    0.4550 c3        1 MSL      0.020500
      5 N          -2.0700   -1.5220   -0.6940 n3        1 MSL     -0.889800
      6 CB         -0.2320   -0.0540    0.1350 c3        1 MSL     -0.034400
      7 CG          0.9350   -0.9680   -0.1630 c3        1 MSL     -0.323600
      8 SD          2.4560   -0.1880   -0.2970 s6        1 MSL      1.328700
      9 OE          3.3860   -1.1980   -0.7210 o         1 MSL     -0.674800
     10 NE          2.4150    0.9890   -0.9630 n2        1 MSL     -1.158900
     11 CE          2.7830    0.0350    1.3820 c3        1 MSL     -0.345300
     12 HA         -1.2790   -1.6050    1.2280 h1        1 MSL      0.041700
     13 H          -2.9940   -1.8290   -0.4360 hn        1 MSL      0.332300
     14 H2         -2.1940   -0.8630   -1.4430 hn        1 MSL      0.332300
     15 HB2        -0.0070    0.5810    1.0360 hc        1 MSL      0.050700
     16 HB3        -0.4060    0.6340   -0.7330 hc        1 MSL      0.050700
     17 HG2         0.7010   -1.5320   -1.1070 h1        1 MSL      0.110700
     18 HG3         0.9730   -1.7570    0.6340 h1        1 MSL      0.110700
     19 HE          2.1590    1.8560   -1.2810 hn        1 MSL      0.544400
     20 HE1         1.9330    0.4970    1.9390 h1        1 MSL      0.099033
     21 HE2         2.9960   -0.9450    1.8710 h1        1 MSL      0.099033
     22 HE3         3.6750    0.6810    1.5550 h1        1 MSL      0.099033
@<TRIPOS>BOND
     1    1    2 1   
     2    2    3 1   
     3    2    4 1   
     4    4    5 1   
     5    4    6 1   
     6    4   12 1   
     7    5   13 1   
     8    5   14 1   
     9    6    7 1   
    10    6   15 1   
    11    6   16 1   
    12    7    8 1   
    13    7   17 1   
    14    7   18 1   
    15    8    9 2   
    16    8   10 2   
    17    8   11 1   
    18   10   19 1   
    19   11   20 1   
    20   11   21 1   
    21   11   22 1   
@<TRIPOS>SUBSTRUCTURE
     1 MSL         1 TEMP              0 ****  ****    0 ROOT
