@<TRIPOS>MOLECULE
MSM
    9     8     1     0     0
SMALL
bcc


@<TRIPOS>ATOM
      1 CB1         0.0170    0.0000    0.0140 c3        1 MSM     -0.045000
      2 SG1         1.7680    0.0000    0.0560 ss        1 MSM     -0.281200
      3 CD1         2.1130    0.0000    1.7740 c3        1 MSM     -0.045000
      4 HB11       -0.2700   -0.0000   -1.0630 h1        1 MSM      0.061700
      5 HB12       -0.4110   -0.9030    0.5030 h1        1 MSM      0.061700
      6 HB13       -0.4110    0.9030    0.5030 h1        1 MSM      0.061700
      7 HD11        1.7050   -0.9030    2.2800 h1        1 MSM      0.061700
      8 HD12        1.7050    0.9030    2.2800 h1        1 MSM      0.061700
      9 HD13        3.2230   -0.0000    1.8690 h1        1 MSM      0.061700
@<TRIPOS>BOND
     1    1    2 1   
     2    1    4 1   
     3    1    5 1   
     4    1    6 1   
     5    2    3 1   
     6    3    7 1   
     7    3    8 1   
     8    3    9 1   
@<TRIPOS>SUBSTRUCTURE
     1 MSM         1 TEMP              0 ****  ****    0 ROOT
