@<TRIPOS>MOLECULE
MSM
    9     8     1     0     0
SMALL
bcc


@<TRIPOS>ATOM
      1 CB1         1.3680   -0.5800    0.0000 c3        1 MSM     -0.045000
      2 SG1         0.0000    0.5130    0.0000 ss        1 MSM     -0.281200
      3 CD1        -1.3680   -0.5800   -0.0000 c3        1 MSM     -0.045000
      4 HB11        1.3820   -1.2300    0.9030 h1        1 MSM      0.061700
      5 HB12        1.3820   -1.2300   -0.9030 h1        1 MSM      0.061700
      6 HB13        2.2800    0.0610   -0.0000 h1        1 MSM      0.061700
      7 HD11       -1.3820   -1.2300   -0.9030 h1        1 MSM      0.061700
      8 HD12       -1.3820   -1.2300    0.9030 h1        1 MSM      0.061700
      9 HD13       -2.2800    0.0610   -0.0000 h1        1 MSM      0.061700
@<TRIPOS>BOND
     1    1    2 1   
     2    1    4 1   
     3    1    5 1   
     4    1    6 1   
     5    2    3 1   
     6    3    7 1   
     7    3    8 1   
     8    3    9 1   
@<TRIPOS>SUBSTRUCTURE
     1 MSM         1 TEMP              0 ****  ****    0 ROOT
