@<TRIPOS>MOLECULE
MSM
    9     8     1     0     0
SMALL
bcc


@<TRIPOS>ATOM
      1 CB1         0.0120   -0.0020    0.0200 c3        1 MSM     -0.045000
      2 SG1         1.7630    0.0030    0.0520 ss        1 MSM     -0.281200
      3 CD1         2.1180    0.0020    1.7680 c3        1 MSM     -0.045000
      4 HB11       -0.2810   -0.0010   -1.0560 h1        1 MSM      0.061700
      5 HB12       -0.4110   -0.9070    0.5100 h1        1 MSM      0.061700
      6 HB13       -0.4160    0.9000    0.5130 h1        1 MSM      0.061700
      7 HD11        1.7150   -0.9030    2.2750 h1        1 MSM      0.061700
      8 HD12        1.7110    0.9030    2.2770 h1        1 MSM      0.061700
      9 HD13        3.2290    0.0040    1.8560 h1        1 MSM      0.061700
@<TRIPOS>BOND
     1    1    2 1   
     2    1    4 1   
     3    1    5 1   
     4    1    6 1   
     5    2    3 1   
     6    3    7 1   
     7    3    8 1   
     8    3    9 1   
@<TRIPOS>SUBSTRUCTURE
     1 MSM         1 TEMP              0 ****  ****    0 ROOT
