@<TRIPOS>MOLECULE
MSN
   25    25     1     0     0
SMALL
bcc


@<TRIPOS>ATOM
      1 C5         -0.0390    0.1230    0.0370 c3        1 MSN      0.100500
      2 N5         -0.4120    0.7900   -1.2490 n4        1 MSN     -0.823600
      3 C4          1.4870   -0.2180    0.1000 c3        1 MSN      0.105100
      4 O4          2.2190    0.6140   -0.7690 oh        1 MSN     -0.612800
      5 C3          1.8650   -0.0210    1.5840 c3        1 MSN      0.079100
      6 O3          3.1720    0.4990    1.6860 oh        1 MSN     -0.588800
      7 C2          0.9050    1.0680    2.1180 c3        1 MSN      0.155100
      8 O2          1.4400    2.3600    1.8940 oh        1 MSN     -0.604800
      9 C1         -0.3720    0.9840    1.2660 c3        1 MSN     -0.050600
     10 S6         -1.7260    0.1690    2.0610 ss        1 MSN     -0.260200
     11 C7         -2.3380    1.3510    3.2010 c3        1 MSN     -0.043000
     12 H5         -0.6240   -0.8480    0.0830 hx        1 MSN      0.129700
     13 HN51       -1.3710    1.1460   -1.1990 hn        1 MSN      0.467467
     14 HN52       -0.3260    0.1190   -2.0180 hn        1 MSN      0.467467
     15 H4          1.6570   -1.2710   -0.2530 h1        1 MSN      0.103700
     16 HO4         2.6930    1.2830   -0.2450 ho        1 MSN      0.461000
     17 H3          1.7500   -0.9800    2.1530 h1        1 MSN      0.091700
     18 HO3         3.7920   -0.2400    1.6280 ho        1 MSN      0.442000
     19 H2          0.6870    0.9120    3.2080 h1        1 MSN      0.092700
     20 HO2         2.2630    2.4270    2.4010 ho        1 MSN      0.448000
     21 H1         -0.6670    2.0360    1.0040 h1        1 MSN      0.111700
     22 H71        -1.5840    1.6200    3.9740 h1        1 MSN      0.086700
     23 H72        -2.6910    2.2790    2.7000 h1        1 MSN      0.086700
     24 H73        -3.2050    0.8510    3.6990 h1        1 MSN      0.086700
     25 H53         0.2430    1.5660   -1.4220 hn        1 MSN      0.467467
@<TRIPOS>BOND
     1    1    2 1   
     2    1    3 1   
     3    1    9 1   
     4    1   12 1   
     5    2   13 1   
     6    2   14 1   
     7    2   25 1   
     8    3    4 1   
     9    3    5 1   
    10    3   15 1   
    11    4   16 1   
    12    5    6 1   
    13    5    7 1   
    14    5   17 1   
    15    6   18 1   
    16    7    8 1   
    17    7    9 1   
    18    7   19 1   
    19    8   20 1   
    20    9   10 1   
    21    9   21 1   
    22   10   11 1   
    23   11   22 1   
    24   11   23 1   
    25   11   24 1   
@<TRIPOS>SUBSTRUCTURE
     1 MSN         1 TEMP              0 ****  ****    0 ROOT
