@<TRIPOS>MOLECULE
MSN
   25    25     1     0     0
SMALL
bcc


@<TRIPOS>ATOM
      1 C5         -0.0300    0.1480    0.0200 c3        1 MSN      0.099500
      2 N5         -0.3900    0.8440   -1.2540 nz        1 MSN     -0.823600
      3 C4          1.4930   -0.2060    0.0850 c3        1 MSN      0.105100
      4 O4          2.2360    0.6410   -0.7580 oh        1 MSN     -0.612800
      5 C3          1.8610   -0.0480    1.5770 c3        1 MSN      0.079100
      6 O3          3.1710    0.4590    1.7010 oh        1 MSN     -0.588800
      7 C2          0.9050    1.0350    2.1300 c3        1 MSN      0.155100
      8 O2          1.4530    2.3270    1.9440 oh        1 MSN     -0.604800
      9 C1         -0.3640    0.9850    1.2660 c3        1 MSN     -0.050600
     10 S6         -1.7340    0.1670    2.0300 ss        1 MSN     -0.260200
     11 C7         -2.3430    1.3300    3.1910 c3        1 MSN     -0.043000
     12 H5         -0.6230   -0.8200    0.0420 hx        1 MSN      0.129700
     13 HN51        0.2740    1.6180   -1.4070 hn        1 MSN      0.467800
     14 HN52       -1.3450    1.2090   -1.2010 hn        1 MSN      0.467800
     15 H4          1.6580   -1.2520   -0.2920 h1        1 MSN      0.103700
     16 HO4         2.7120    1.2940   -0.2130 ho        1 MSN      0.461000
     17 H3          1.7340   -1.0200    2.1220 h1        1 MSN      0.091700
     18 HO3         3.7860   -0.2840    1.6290 ho        1 MSN      0.442000
     19 H2          0.6770    0.8540    3.2140 h1        1 MSN      0.092700
     20 HO2         2.2730    2.3740    2.4590 ho        1 MSN      0.448000
     21 H1         -0.6450    2.0460    1.0240 h1        1 MSN      0.111700
     22 H71        -1.5930    1.5730    3.9770 h1        1 MSN      0.086700
     23 H72        -2.6810    2.2730    2.7080 h1        1 MSN      0.086700
     24 H73        -3.2210    0.8290    3.6710 h1        1 MSN      0.086700
     25 H53        -0.3060    0.1890   -2.0360 hn        1 MSN      0.467800
@<TRIPOS>BOND
     1    1    2 1   
     2    1    3 1   
     3    1    9 1   
     4    1   12 1   
     5    2   13 1   
     6    2   14 1   
     7    2   25 1   
     8    3    4 1   
     9    3    5 1   
    10    3   15 1   
    11    4   16 1   
    12    5    6 1   
    13    5    7 1   
    14    5   17 1   
    15    6   18 1   
    16    7    8 1   
    17    7    9 1   
    18    7   19 1   
    19    8   20 1   
    20    9   10 1   
    21    9   21 1   
    22   10   11 1   
    23   11   22 1   
    24   11   23 1   
    25   11   24 1   
@<TRIPOS>SUBSTRUCTURE
     1 MSN         1 TEMP              0 ****  ****    0 ROOT
