@<TRIPOS>MOLECULE
MSN
   24    24     1     0     0
SMALL
bcc


@<TRIPOS>ATOM
      1 C5         -0.0620   -1.3480   -0.3810 c3        1 MSN      0.154500
      2 N5         -0.0090   -2.5020    0.4830 n3        1 MSN     -0.882800
      3 C4         -1.4910   -0.8580   -0.7720 c3        1 MSN      0.066100
      4 O4         -2.4120   -0.9990    0.2930 oh        1 MSN     -0.599800
      5 C3         -1.3060    0.6290   -1.1270 c3        1 MSN      0.080100
      6 O3         -2.4760    1.4030   -0.9930 oh        1 MSN     -0.593800
      7 C2         -0.2090    1.1200   -0.1530 c3        1 MSN      0.104100
      8 O2         -0.8080    1.5900    1.0480 oh        1 MSN     -0.615800
      9 C1          0.6410   -0.1040    0.2100 c3        1 MSN     -0.009600
     10 S6          2.2550   -0.0290   -0.5170 ss        1 MSN     -0.265200
     11 C7          3.1390    1.0040    0.5870 c3        1 MSN     -0.047000
     12 H5          0.4660   -1.6290   -1.3430 h1        1 MSN      0.084700
     13 HN51       -0.5000   -2.3270    1.3390 hn        1 MSN      0.355800
     14 HN52       -0.4280   -3.2890    0.0250 hn        1 MSN      0.355800
     15 H4         -1.9300   -1.4520   -1.6130 h1        1 MSN      0.094700
     16 HO4        -2.0520   -0.5080    1.0480 ho        1 MSN      0.416000
     17 H3         -0.9800    0.7570   -2.1930 h1        1 MSN      0.093700
     18 HO3        -3.0200    1.0100   -0.2960 ho        1 MSN      0.419000
     19 H2          0.4120    1.9340   -0.6130 h1        1 MSN      0.068700
     20 HO2        -1.3630    2.3420    0.8010 ho        1 MSN      0.420000
     21 H1          0.7280   -0.1660    1.3260 h1        1 MSN      0.102700
     22 H71         4.1740    1.0760    0.1780 h1        1 MSN      0.066033
     23 H72         2.6990    2.0240    0.6480 h1        1 MSN      0.066033
     24 H73         3.1830    0.5750    1.6130 h1        1 MSN      0.066033
@<TRIPOS>BOND
     1    1    2 1   
     2    1    3 1   
     3    1    9 1   
     4    1   12 1   
     5    2   13 1   
     6    2   14 1   
     7    3    4 1   
     8    3    5 1   
     9    3   15 1   
    10    4   16 1   
    11    5    6 1   
    12    5    7 1   
    13    5   17 1   
    14    6   18 1   
    15    7    8 1   
    16    7    9 1   
    17    7   19 1   
    18    8   20 1   
    19    9   10 1   
    20    9   21 1   
    21   10   11 1   
    22   11   22 1   
    23   11   23 1   
    24   11   24 1   
@<TRIPOS>SUBSTRUCTURE
     1 MSN         1 TEMP              0 ****  ****    0 ROOT
