@<TRIPOS>MOLECULE
MSN
   25    25     1     0     0
SMALL
bcc


@<TRIPOS>ATOM
      1 C5         -0.0380    0.1290    0.0330 c3        1 MSN      0.099500
      2 N5         -0.4300    0.8020   -1.2440 n4        1 MSN     -0.823600
      3 C4          1.4920   -0.1930    0.0810 c3        1 MSN      0.105100
      4 O4          2.2070    0.6610   -0.7810 oh        1 MSN     -0.612800
      5 C3          1.8770   -0.0120    1.5660 c3        1 MSN      0.079100
      6 O3          3.1780    0.5230    1.6680 oh        1 MSN     -0.588800
      7 C2          0.9070    1.0580    2.1210 c3        1 MSN      0.155100
      8 O2          1.4270    2.3590    1.9150 oh        1 MSN     -0.604800
      9 C1         -0.3720    0.9740    1.2720 c3        1 MSN     -0.050600
     10 S6         -1.7180    0.1410    2.0630 ss        1 MSN     -0.260200
     11 C7         -2.3330    1.3060    3.2190 c3        1 MSN     -0.043000
     12 H5         -0.6100   -0.8500    0.0750 hx        1 MSN      0.129700
     13 HN51        0.2160    1.5860   -1.4170 hn        1 MSN      0.467800
     14 HN52       -0.3450    0.1380   -2.0190 hn        1 MSN      0.467800
     15 H4          1.6740   -1.2390   -0.2880 h1        1 MSN      0.103700
     16 HO4         2.6760    1.3290   -0.2490 ho        1 MSN      0.461000
     17 H3          1.7760   -0.9800    2.1220 h1        1 MSN      0.091700
     18 HO3         3.8070   -0.2090    1.5950 ho        1 MSN      0.442000
     19 H2          0.6950    0.8820    3.2090 h1        1 MSN      0.092700
     20 HO2         2.2520    2.4260    2.4200 ho        1 MSN      0.448000
     21 H1         -0.6750    2.0270    1.0220 h1        1 MSN      0.111700
     22 H71        -1.5780    1.5710    3.9920 h1        1 MSN      0.086700
     23 H72        -3.1960    0.7960    3.7140 h1        1 MSN      0.086700
     24 H73        -2.6930    2.2380    2.7300 h1        1 MSN      0.086700
     25 H53        -1.3910    1.1490   -1.1820 hn        1 MSN      0.467800
@<TRIPOS>BOND
     1    1    2 1   
     2    1    3 1   
     3    1    9 1   
     4    1   12 1   
     5    2   13 1   
     6    2   14 1   
     7    2   25 1   
     8    3    4 1   
     9    3    5 1   
    10    3   15 1   
    11    4   16 1   
    12    5    6 1   
    13    5    7 1   
    14    5   17 1   
    15    6   18 1   
    16    7    8 1   
    17    7    9 1   
    18    7   19 1   
    19    8   20 1   
    20    9   10 1   
    21    9   21 1   
    22   10   11 1   
    23   11   22 1   
    24   11   23 1   
    25   11   24 1   
@<TRIPOS>SUBSTRUCTURE
     1 MSN         1 TEMP              0 ****  ****    0 ROOT
