@<TRIPOS>MOLECULE
MSO
   20    19     1     0     0
SMALL
bcc


@<TRIPOS>ATOM
      1 N           1.8520    0.4070   -2.3690 n3        1 MSO     -0.889800
      2 CA          0.7710   -0.4240   -1.8550 c3        1 MSO      0.021500
      3 CB          0.2100    0.0730   -0.5230 c3        1 MSO     -0.047400
      4 C          -0.4300   -0.6140   -2.8440 c         1 MSO      0.887600
      5 CG          1.1930   -0.0590    0.6140 c3        1 MSO     -0.075100
      6 SE          0.4140    0.4080    2.1100 s4        1 MSO      0.215600
      7 OE          1.5250    0.6100    3.1070 o         1 MSO     -0.540200
      8 CE         -0.3250   -1.1040    2.5670 c3        1 MSO     -0.112800
      9 O          -0.3150   -0.1480   -4.0130 o         1 MSO     -0.841300
     10 OXT        -1.4400   -1.2400   -2.4180 o         1 MSO     -0.841300
     11 H           2.0250    0.1130   -3.3170 hn        1 MSO      0.331800
     12 H2          1.5240    1.3550   -2.4270 hn        1 MSO      0.331800
     13 HCA         1.2080   -1.4520   -1.6920 h1        1 MSO      0.042700
     14 HB2        -0.7090   -0.5430   -0.3130 hc        1 MSO      0.048700
     15 HB3        -0.1150    1.1420   -0.6210 hc        1 MSO      0.048700
     16 HG2         2.0740    0.6100    0.4370 h1        1 MSO      0.091200
     17 HG3         1.6010   -1.0990    0.6380 h1        1 MSO      0.091200
     18 HE1        -1.0600   -0.9120    3.3820 h1        1 MSO      0.079700
     19 HE2        -0.8670   -1.5530    1.7030 h1        1 MSO      0.079700
     20 HE3         0.4060   -1.8550    2.9440 h1        1 MSO      0.079700
@<TRIPOS>BOND
     1    1    2 1   
     2    1   11 1   
     3    1   12 1   
     4    2    3 1   
     5    2    4 1   
     6    2   13 1   
     7    3    5 1   
     8    3   14 1   
     9    3   15 1   
    10    4    9 1   
    11    4   10 1   
    12    5    6 1   
    13    5   16 1   
    14    5   17 1   
    15    6    7 2   
    16    6    8 1   
    17    8   18 1   
    18    8   19 1   
    19    8   20 1   
@<TRIPOS>SUBSTRUCTURE
     1 MSO         1 TEMP              0 ****  ****    0 ROOT
