@<TRIPOS>MOLECULE
MSO
   20    19     1     0     0
SMALL
bcc


@<TRIPOS>ATOM
      1 N           0.7640   -0.8680   -2.6410 n3        1 MSO     -0.907800
      2 CA          0.1300    0.1610   -1.8910 c3        1 MSO      0.003500
      3 CB          0.6380    0.1320   -0.4670 c3        1 MSO     -0.042400
      4 C           0.4450    1.5040   -2.5110 c         1 MSO      0.892600
      5 CG         -0.5040   -0.1970    0.4680 c3        1 MSO     -0.071100
      6 SE          0.1400   -0.2440    2.2690 s4        1 MSO      0.277600
      7 OE          1.7290   -0.0790    2.5680 o         1 MSO     -0.566200
      8 CE         -1.0860   -0.4850    3.7180 c3        1 MSO     -0.104800
      9 O          -0.4890    2.2940   -2.8070 o         1 MSO     -0.837800
     10 OXT         1.6400    1.8310   -2.7300 o         1 MSO     -0.837800
     11 H           0.3750   -1.6730   -2.4450 hn        1 MSO      0.336300
     12 H2          0.6730   -0.6940   -3.5360 hn        1 MSO      0.336300
     13 HCA        -0.8370    0.0190   -1.8950 h1        1 MSO      0.039700
     14 HB2         1.0080    1.0080   -0.2350 hc        1 MSO      0.054700
     15 HB3         1.3350   -0.5490   -0.3840 hc        1 MSO      0.054700
     16 HG2        -1.1990    0.4870    0.3880 h1        1 MSO      0.074700
     17 HG3        -0.8770   -1.0700    0.2330 h1        1 MSO      0.074700
     18 HE1        -1.6910   -1.2280    3.5140 h1        1 MSO      0.075033
     19 HE2        -1.6070    0.3350    3.8450 h1        1 MSO      0.075033
     20 HE3        -0.5870   -0.6860    4.5380 h1        1 MSO      0.075033
@<TRIPOS>BOND
     1    1    2 1   
     2    1   11 1   
     3    1   12 1   
     4    2    3 1   
     5    2    4 1   
     6    2   13 1   
     7    3    5 1   
     8    3   14 1   
     9    3   15 1   
    10    4    9 1   
    11    4   10 1   
    12    5    6 1   
    13    5   16 1   
    14    5   17 1   
    15    6    7 2   
    16    6    8 1   
    17    8   18 1   
    18    8   19 1   
    19    8   20 1   
@<TRIPOS>SUBSTRUCTURE
     1 MSO         1 TEMP              0 ****  ****    0 ROOT
