@<TRIPOS>MOLECULE
MSP
   56    58     1     0     0
SMALL
bcc


@<TRIPOS>ATOM
      1 N2          3.1570    2.3780    1.2090 n3        1 MSP     -0.903800
      2 CA          3.5790    1.4200    0.2090 c3        1 MSP      0.111500
      3 CB          5.0920    1.1570    0.1010 c3        1 MSP     -0.112400
      4 CG          5.8470    2.4150   -0.2390 c3        1 MSP     -0.022300
      5 SD          7.4460    1.9190   -0.8090 ss        1 MSP     -0.273200
      6 CE          8.2500    3.4570   -1.0420 c3        1 MSP     -0.047000
      7 C9          2.9250    0.0530    0.5010 c         1 MSP      0.689100
      8 N8          2.1410   -0.5270   -0.5000 n         1 MSP     -0.694300
      9 S1          1.4430   -2.0090   -0.5170 s6        1 MSP      1.698100
     10 O1S         0.7360   -2.1110   -1.7170 o         1 MSP     -0.636300
     11 O2S         2.2720   -3.0240   -0.0930 o         1 MSP     -0.636300
     12 O5'         0.2370   -1.9300    0.6350 os        1 MSP     -0.547500
     13 C5'        -0.9610   -1.2250    0.4140 c3        1 MSP      0.167400
     14 C4'        -2.1480   -2.1920    0.4660 c3        1 MSP      0.085100
     15 O4'        -3.3450   -1.4190    0.5630 os        1 MSP     -0.423600
     16 C3'        -2.2630   -3.1010   -0.7720 c3        1 MSP      0.073100
     17 O3'        -2.3590   -4.4650   -0.4290 oh        1 MSP     -0.584800
     18 C2'        -3.5390   -2.6320   -1.5100 c3        1 MSP      0.085100
     19 O2'        -4.5360   -3.6370   -1.4800 oh        1 MSP     -0.591800
     20 C1'        -4.0980   -1.4440   -0.6710 c3        1 MSP      0.389300
     21 N9         -4.0900   -0.1900   -1.3930 nh        1 MSP     -0.715600
     22 C8         -2.8430    0.3340   -1.8850 c2        1 MSP      0.522100
     23 N7         -2.6020    1.6150   -1.6810 ne        1 MSP     -0.561300
     24 C5         -3.6710    2.0920   -0.8810 ce        1 MSP     -0.149600
     25 C6         -3.7020    3.1960   -0.0550 c2        1 MSP      0.339000
     26 N6         -2.8890    4.3250   -0.2470 nh        1 MSP     -0.810600
     27 N1         -4.6320    3.1780    1.0080 nh        1 MSP     -0.768000
     28 C2         -5.3210    1.9780    1.2670 c2        1 MSP      0.629100
     29 N3         -5.3830    0.9170    0.5230 n2        1 MSP     -0.620900
     30 C4         -4.7720    1.0010   -0.7920 c3        1 MSP      0.406900
     31 O1          3.0940   -0.5260    1.5820 o         1 MSP     -0.541100
     32 HN21        3.2710    2.0060    2.1330 hn        1 MSP      0.367300
     33 HN22        3.6890    3.2210    1.1200 hn        1 MSP      0.367300
     34 HA          3.2270    1.8290   -0.7860 h1        1 MSP      0.071700
     35 HB1         5.2600    0.3860   -0.6990 hc        1 MSP      0.077200
     36 HB2         5.4680    0.7250    1.0670 hc        1 MSP      0.077200
     37 HG1         5.9450    3.0790    0.6540 h1        1 MSP      0.058700
     38 HG2         5.3180    2.9950   -1.0340 h1        1 MSP      0.058700
     39 HE1         7.7380    4.0850   -1.8050 h1        1 MSP      0.065367
     40 HE2         8.3250    4.0370   -0.0960 h1        1 MSP      0.065367
     41 HE3         9.2780    3.2160   -1.4020 h1        1 MSP      0.065367
     42 HN8         1.9810    0.0760   -1.2810 hn        1 MSP      0.344500
     43 H5'1       -1.0560   -0.4780    1.2490 h1        1 MSP      0.057700
     44 H5'2       -0.9300   -0.6900   -0.5750 h1        1 MSP      0.057700
     45 H4'        -2.0910   -2.8000    1.4110 h1        1 MSP      0.097700
     46 H3'        -1.3510   -3.0330   -1.4280 h1        1 MSP      0.116700
     47 H2         -3.1170   -4.5640    0.1660 ho        1 MSP      0.415000
     48 H1         -3.3140   -2.3520   -2.5720 h1        1 MSP      0.069700
     49 H2'        -4.1620   -4.4100   -1.9270 ho        1 MSP      0.420000
     50 H1'        -5.1640   -1.6500   -0.3490 h2        1 MSP      0.129700
     51 H8         -2.1750   -0.3240   -2.4620 h5        1 MSP      0.059800
     52 HN61       -2.1750    4.1690   -0.9290 hn        1 MSP      0.404800
     53 HN62       -2.5390    4.7400    0.5910 hn        1 MSP      0.404800
     54 HN1        -4.9470    4.0250    1.4140 hn        1 MSP      0.449800
     55 H3         -5.8520    1.9690    2.2440 h5        1 MSP      0.050800
     56 H4         -5.6060    1.2330   -1.5280 h2        1 MSP      0.088700
@<TRIPOS>BOND
     1    1    2 1   
     2    1   32 1   
     3    1   33 1   
     4    2    3 1   
     5    2    7 1   
     6    2   34 1   
     7    3    4 1   
     8    3   35 1   
     9    3   36 1   
    10    4    5 1   
    11    4   37 1   
    12    4   38 1   
    13    5    6 1   
    14    6   39 1   
    15    6   40 1   
    16    6   41 1   
    17    7    8 1   
    18    7   31 2   
    19    8    9 1   
    20    8   42 1   
    21    9   10 2   
    22    9   11 2   
    23    9   12 1   
    24   12   13 1   
    25   13   14 1   
    26   13   43 1   
    27   13   44 1   
    28   14   15 1   
    29   14   16 1   
    30   14   45 1   
    31   15   20 1   
    32   16   17 1   
    33   16   18 1   
    34   16   46 1   
    35   17   47 1   
    36   18   19 1   
    37   18   20 1   
    38   18   48 1   
    39   19   49 1   
    40   20   21 1   
    41   20   50 1   
    42   21   22 1   
    43   21   30 1   
    44   22   23 2   
    45   22   51 1   
    46   23   24 1   
    47   24   25 2   
    48   24   30 1   
    49   25   26 1   
    50   25   27 1   
    51   26   52 1   
    52   26   53 1   
    53   27   28 1   
    54   27   54 1   
    55   28   29 2   
    56   28   55 1   
    57   29   30 1   
    58   30   56 1   
@<TRIPOS>SUBSTRUCTURE
     1 MSP         1 TEMP              0 ****  ****    0 ROOT
