@<TRIPOS>MOLECULE
MSQ
   40    36     1     0     0
SMALL
bcc


@<TRIPOS>ATOM
      1 N1          1.0390    0.2020   -1.4300 n1        1 MSQ     -0.234000
      2 C2          2.4120    0.1120   -1.4030 c1        1 MSQ      0.002000
      3 N3          3.0760    0.1030   -0.2030 n1        1 MSQ     -0.188000
      4 C4          2.3750    0.1850    0.9670 c1        1 MSQ     -0.048500
      5 C5          1.0150    0.2740    0.9410 c1        1 MSQ     -0.048500
      6 C6          0.3440    0.2820   -0.2780 c1        1 MSQ      0.169000
      7 C7          3.0610    0.1760    2.2090 c2        1 MSQ     -0.176500
      8 C8          2.3460    0.2590    3.4000 c1        1 MSQ      0.080000
      9 C9          0.9590    0.3500    3.3730 c1        1 MSQ      0.080000
     10 C10         0.2860    0.3580    2.1550 c2        1 MSQ     -0.176500
     11 N12        -0.8130    0.7820   -0.9630 n3        1 MSQ     -0.243000
     12 C14        -1.4520   -0.0180   -1.9710 c2        1 MSQ      0.067000
     13 C15        -1.4010    0.3740   -3.3060 c2        1 MSQ     -0.106000
     14 C16        -2.0920   -0.3500   -4.2710 c1        1 MSQ     -0.214000
     15 C17        -2.8350   -1.4680   -3.9030 c1        1 MSQ     -0.126500
     16 C18        -2.8860   -1.8600   -2.5690 c1        1 MSQ     -0.126500
     17 C19        -2.1950   -1.1360   -1.6040 c1        1 MSQ     -0.181000
     18 S21        -1.9390    0.0880   -5.9900 ss        1 MSQ      0.252000
     19 C22        -3.5230    0.6100   -6.6140 c3        1 MSQ     -0.372000
     20 O26         3.3300    0.4210    4.4090 os        1 MSQ     -0.183000
     21 C27         3.7820   -0.8020    4.9740 c3        1 MSQ     -0.082500
     22 O31         1.0880    0.7360    4.7340 os        1 MSQ     -0.183000
     23 C32        -0.1530    0.9900    5.3810 c3        1 MSQ     -0.082500
     24 H21         2.9150    0.0530   -2.2410 ha        1 MSQ      0.191000
     25 H71         4.0390    0.1120    2.2280 ha        1 MSQ      0.152000
     26 H101       -0.6920    0.4230    2.1370 ha        1 MSQ      0.152000
     27 H121       -1.1460    1.6120   -0.7570 hn        1 MSQ      0.221000
     28 H151       -0.8770    1.1630   -3.5660 ha        1 MSQ      0.162000
     29 H171       -3.3220   -1.9790   -4.5830 ha        1 MSQ      0.133000
     30 H181       -3.4100   -2.6490   -2.3100 ha        1 MSQ      0.133000
     31 H191       -2.2310   -1.4130   -0.6620 ha        1 MSQ      0.129000
     32 H221       -3.9360    1.2350   -5.9790 h1        1 MSQ      0.109000
     33 H222       -3.4030    1.0570   -7.4810 h1        1 MSQ      0.109000
     34 H223       -4.1050   -0.1730   -6.7280 h1        1 MSQ      0.109000
     35 H271        3.2830   -1.5510    4.5780 h1        1 MSQ      0.087333
     36 H272        3.6360   -0.7890    5.9460 h1        1 MSQ      0.087333
     37 H273        4.7430   -0.9140    4.7890 h1        1 MSQ      0.087333
     38 H321        0.0120    1.4340    6.2420 h1        1 MSQ      0.087333
     39 H322       -0.7050    1.5710    4.8130 h1        1 MSQ      0.087333
     40 H323       -0.6220    0.1400    5.5350 h1        1 MSQ      0.087333
@<TRIPOS>BOND
     1    1    6 1   
     2    2    3 1   
     3    2   24 1   
     4    4    5 1   
     5    4    7 1   
     6    5   10 1   
     7    6   11 1   
     8    7    8 1   
     9    7   25 1   
    10    8   20 1   
    11    9   10 1   
    12    9   22 1   
    13   10   26 1   
    14   11   12 1   
    15   11   27 1   
    16   12   13 1   
    17   12   17 1   
    18   13   14 1   
    19   13   28 1   
    20   14   18 1   
    21   15   16 1   
    22   15   29 1   
    23   16   30 1   
    24   17   31 1   
    25   18   19 1   
    26   19   32 1   
    27   19   33 1   
    28   19   34 1   
    29   20   21 1   
    30   21   35 1   
    31   21   36 1   
    32   21   37 1   
    33   22   23 1   
    34   23   38 1   
    35   23   39 1   
    36   23   40 1   
@<TRIPOS>SUBSTRUCTURE
     1 MSQ         1 TEMP              0 ****  ****    0 ROOT
