@<TRIPOS>MOLECULE
MSQ
   40    42     1     0     0
SMALL
bcc


@<TRIPOS>ATOM
      1 N1          1.4720   -0.6540   -0.6140 nb        1 MSQ     -0.760000
      2 C2          2.5770   -0.8090    0.1870 ca        1 MSQ      0.664900
      3 N3          2.6560   -0.7130    1.5140 nb        1 MSQ     -0.714000
      4 C4          1.4810   -0.3940    2.1700 ca        1 MSQ      0.446600
      5 C5          0.2590   -0.1800    1.4610 ca        1 MSQ     -0.280600
      6 C6          0.3120   -0.3430    0.0070 ca        1 MSQ      0.690200
      7 C7          1.4890   -0.2710    3.5950 ca        1 MSQ     -0.254300
      8 C8          0.3370    0.0650    4.2690 ca        1 MSQ      0.144100
      9 C9         -0.8830    0.3040    3.5450 ca        1 MSQ      0.106100
     10 C10        -0.9100    0.1820    2.1730 ca        1 MSQ     -0.164000
     11 N12        -0.8620   -0.1270   -0.7310 nh        1 MSQ     -0.722300
     12 C14        -0.9360   -0.3110   -2.1320 ca        1 MSQ      0.148600
     13 C15        -0.0530    0.3500   -3.0030 ca        1 MSQ     -0.106000
     14 C16        -0.1980    0.2200   -4.3920 ca        1 MSQ      0.012900
     15 C17        -1.2300   -0.5620   -4.9130 ca        1 MSQ     -0.159000
     16 C18        -2.1130   -1.2140   -4.0530 ca        1 MSQ     -0.094000
     17 C19        -1.9760   -1.1020   -2.6760 ca        1 MSQ     -0.181000
     18 S21         0.9440    1.0700   -5.3120 ss        1 MSQ     -0.157000
     19 C22         0.5320    0.7710   -6.9840 c3        1 MSQ     -0.072000
     20 O26         0.2290    0.2080    5.6330 os        1 MSQ     -0.299900
     21 C27         1.4220   -0.0110    6.3810 c3        1 MSQ      0.106700
     22 O31        -1.9580    0.6450    4.3390 os        1 MSQ     -0.299900
     23 C32        -3.1630    0.9760    3.6570 c3        1 MSQ      0.107700
     24 H21         3.5120   -1.0580   -0.3590 h5        1 MSQ      0.054100
     25 H71         2.4340   -0.4480    4.1320 ha        1 MSQ      0.164000
     26 H101       -1.8450    0.3930    1.6350 ha        1 MSQ      0.140000
     27 H121       -1.6950   -0.3880   -0.2450 hn        1 MSQ      0.425800
     28 H151        0.7650    0.9740   -2.6080 ha        1 MSQ      0.162000
     29 H171       -1.3550   -0.6710   -6.0000 ha        1 MSQ      0.133000
     30 H181       -2.9240   -1.8300   -4.4710 ha        1 MSQ      0.133000
     31 H191       -2.6810   -1.6300   -2.0170 ha        1 MSQ      0.129000
     32 H221        1.2850    1.3420   -7.5780 h1        1 MSQ      0.069700
     33 H222        0.6010   -0.3060   -7.2560 h1        1 MSQ      0.069700
     34 H223       -0.4860    1.1370   -7.2460 h1        1 MSQ      0.069700
     35 H271        1.0950    0.1590    7.4390 h1        1 MSQ      0.049700
     36 H272        1.7870   -1.0580    6.2430 h1        1 MSQ      0.049700
     37 H273        2.2110    0.7230    6.0880 h1        1 MSQ      0.049700
     38 H321       -3.8600    1.2520    4.4880 h1        1 MSQ      0.046367
     39 H322       -3.0060    1.8420    2.9690 h1        1 MSQ      0.046367
     40 H323       -3.5520    0.0920    3.0950 h1        1 MSQ      0.046367
@<TRIPOS>BOND
     1    1    2 ar  
     2    1    6 ar  
     3    2    3 ar  
     4    2   24 1   
     5    3    4 ar  
     6    4    5 ar  
     7    4    7 ar  
     8    5    6 ar  
     9    5   10 ar  
    10    6   11 1   
    11    7    8 ar  
    12    7   25 1   
    13    8    9 ar  
    14    8   20 1   
    15    9   10 ar  
    16    9   22 1   
    17   10   26 1   
    18   11   12 1   
    19   11   27 1   
    20   12   13 ar  
    21   12   17 ar  
    22   13   14 ar  
    23   13   28 1   
    24   14   15 ar  
    25   14   18 1   
    26   15   16 ar  
    27   15   29 1   
    28   16   17 ar  
    29   16   30 1   
    30   17   31 1   
    31   18   19 1   
    32   19   32 1   
    33   19   33 1   
    34   19   34 1   
    35   20   21 1   
    36   21   35 1   
    37   21   36 1   
    38   21   37 1   
    39   22   23 1   
    40   23   38 1   
    41   23   39 1   
    42   23   40 1   
@<TRIPOS>SUBSTRUCTURE
     1 MSQ         1 TEMP              0 ****  ****    0 ROOT
