@<TRIPOS>MOLECULE
MSQ
   40    42     1     0     0
SMALL
bcc


@<TRIPOS>ATOM
      1 N1          0.1880   -0.0160   -0.2030 nb        1 MSQ     -0.760000
      2 C2          1.5520   -0.0840   -0.0630 ca        1 MSQ      0.664900
      3 N3          2.2660   -0.1310    1.0620 nb        1 MSQ     -0.714000
      4 C4          1.5440   -0.0840    2.2400 ca        1 MSQ      0.446600
      5 C5          0.1190    0.0120    2.2450 ca        1 MSQ     -0.280600
      6 C6         -0.5380    0.0300    0.9370 ca        1 MSQ      0.690200
      7 C7          2.2430   -0.1280    3.4880 ca        1 MSQ     -0.254300
      8 C8          1.5480   -0.0620    4.6740 ca        1 MSQ      0.144100
      9 C9          0.1140    0.0600    4.6700 ca        1 MSQ      0.106100
     10 C10        -0.5740    0.0960    3.4770 ca        1 MSQ     -0.164000
     11 N12        -1.9360    0.1400    0.8940 nu        1 MSQ     -0.722300
     12 C14        -2.6750    0.1090   -0.3120 ca        1 MSQ      0.148600
     13 C15        -2.3940    1.0000   -1.3630 ca        1 MSQ     -0.106000
     14 C16        -3.1930    1.0100   -2.5150 ca        1 MSQ      0.012900
     15 C17        -4.2780    0.1380   -2.6170 ca        1 MSQ     -0.159000
     16 C18        -4.5650   -0.7420   -1.5750 ca        1 MSQ     -0.094000
     17 C19        -3.7770   -0.7700   -0.4310 ca        1 MSQ     -0.181000
     18 S21        -2.7270    2.1330   -3.6970 ss        1 MSQ     -0.157000
     19 C22        -3.8830    1.9680   -4.9980 c3        1 MSQ     -0.072000
     20 O26         2.1150   -0.0990    5.9280 os        1 MSQ     -0.299900
     21 C27         3.5350   -0.2090    5.9700 c3        1 MSQ      0.106700
     22 O31        -0.4540    0.1290    5.9250 os        1 MSQ     -0.299900
     23 C32        -1.8610    0.3390    5.9650 c3        1 MSQ      0.107700
     24 H21         2.1140   -0.1140   -1.0210 h5        1 MSQ      0.054100
     25 H71         3.3400   -0.2120    3.4720 ha        1 MSQ      0.164000
     26 H101       -1.6660    0.2140    3.4940 ha        1 MSQ      0.140000
     27 H121       -2.3970   -0.3070    1.6600 hn        1 MSQ      0.425800
     28 H151       -1.5430    1.6970   -1.2980 ha        1 MSQ      0.162000
     29 H171       -4.9120    0.1370   -3.5160 ha        1 MSQ      0.133000
     30 H181       -5.4210   -1.4270   -1.6620 ha        1 MSQ      0.133000
     31 H191       -4.0200   -1.4780    0.3750 ha        1 MSQ      0.129000
     32 H221       -3.8660    0.9550   -5.4580 h1        1 MSQ      0.069700
     33 H222       -3.5710    2.7170   -5.7640 h1        1 MSQ      0.069700
     34 H223       -4.9240    2.1930   -4.6770 h1        1 MSQ      0.069700
     35 H271        3.8710   -1.1600    5.4890 h1        1 MSQ      0.049700
     36 H272        3.7570   -0.2180    7.0670 h1        1 MSQ      0.049700
     37 H273        4.0130    0.6720    5.4760 h1        1 MSQ      0.049700
     38 H321       -2.0790    0.4000    7.0620 h1        1 MSQ      0.046367
     39 H322       -2.4010   -0.5240    5.5050 h1        1 MSQ      0.046367
     40 H323       -2.1360    1.2930    5.4540 h1        1 MSQ      0.046367
@<TRIPOS>BOND
     1    1    2 ar  
     2    1    6 ar  
     3    2    3 ar  
     4    2   24 1   
     5    3    4 ar  
     6    4    5 ar  
     7    4    7 ar  
     8    5    6 ar  
     9    5   10 ar  
    10    6   11 1   
    11    7    8 ar  
    12    7   25 1   
    13    8    9 ar  
    14    8   20 1   
    15    9   10 ar  
    16    9   22 1   
    17   10   26 1   
    18   11   12 1   
    19   11   27 1   
    20   12   13 ar  
    21   12   17 ar  
    22   13   14 ar  
    23   13   28 1   
    24   14   15 ar  
    25   14   18 1   
    26   15   16 ar  
    27   15   29 1   
    28   16   17 ar  
    29   16   30 1   
    30   17   31 1   
    31   18   19 1   
    32   19   32 1   
    33   19   33 1   
    34   19   34 1   
    35   20   21 1   
    36   21   35 1   
    37   21   36 1   
    38   21   37 1   
    39   22   23 1   
    40   23   38 1   
    41   23   39 1   
    42   23   40 1   
@<TRIPOS>SUBSTRUCTURE
     1 MSQ         1 TEMP              0 ****  ****    0 ROOT
