@<TRIPOS>MOLECULE
MSQ
   41    43     1     0     0
SMALL
bcc


@<TRIPOS>ATOM
      1 N1          0.7370    2.0730   -0.0210 nb        1 MSQ     -0.687000
      2 C2          2.0090    1.5630    0.0820 ca        1 MSQ      0.654900
      3 N3          2.4820    0.7760    1.0560 nb        1 MSQ     -0.626000
      4 C4          1.6130    0.4330    2.0610 ca        1 MSQ      0.455600
      5 C5          0.2430    0.8910    2.0670 ca        1 MSQ     -0.215600
      6 C6         -0.1130    1.7330    0.9630 ca        1 MSQ      0.515200
      7 C7          2.0670   -0.4010    3.1340 ca        1 MSQ     -0.253300
      8 C8          1.2120   -0.7580    4.1480 ca        1 MSQ      0.169100
      9 C9         -0.1650   -0.3000    4.1390 ca        1 MSQ      0.184100
     10 C10        -0.6250    0.5020    3.1180 ca        1 MSQ     -0.242000
     11 N12        -1.4870    2.2940    0.8650 n4        1 MSQ     -0.621100
     12 C14        -2.3720    1.4750    0.0230 ca        1 MSQ     -0.022400
     13 C15        -2.2180    1.5100   -1.3680 ca        1 MSQ     -0.100000
     14 C16        -3.0790    0.7510   -2.1810 ca        1 MSQ      0.006900
     15 C17        -4.0730   -0.0290   -1.5750 ca        1 MSQ     -0.110000
     16 C18        -4.2130   -0.0580   -0.1900 ca        1 MSQ     -0.078000
     17 C19        -3.3670    0.6880    0.6280 ca        1 MSQ     -0.138000
     18 S21        -2.7990    0.8770   -3.8330 ss        1 MSQ     -0.077000
     19 C22        -3.9890   -0.1360   -4.6130 c3        1 MSQ     -0.090000
     20 O26         1.5310   -1.5410    5.2200 os        1 MSQ     -0.282900
     21 C27         2.8750   -2.0250    5.2840 c3        1 MSQ      0.100700
     22 O31        -0.9010   -0.7410    5.2020 os        1 MSQ     -0.273900
     23 C32        -2.2620   -0.3180    5.2720 c3        1 MSQ      0.102700
     24 H21         2.7050    1.8490   -0.7390 h5        1 MSQ      0.091100
     25 H71         3.1160   -0.7440    3.1230 ha        1 MSQ      0.187000
     26 H101       -1.6770    0.8150    3.1210 ha        1 MSQ      0.130000
     27 H121       -1.8760    2.3610    1.8130 hn        1 MSQ      0.467800
     28 H151       -1.4280    2.1180   -1.8460 ha        1 MSQ      0.177000
     29 H171       -4.7570   -0.6310   -2.1980 ha        1 MSQ      0.163000
     30 H181       -5.0010   -0.6780    0.2690 ha        1 MSQ      0.165000
     31 H191       -3.4910    0.6490    1.7210 ha        1 MSQ      0.144000
     32 H221       -3.7800   -0.0280   -5.7070 h1        1 MSQ      0.088033
     33 H222       -5.0350    0.1930   -4.4170 h1        1 MSQ      0.088033
     34 H223       -3.8920   -1.2100   -4.3370 h1        1 MSQ      0.088033
     35 H271        3.0980   -2.6730    4.4020 h1        1 MSQ      0.065367
     36 H272        3.5940   -1.1730    5.3480 h1        1 MSQ      0.065367
     37 H273        2.8780   -2.6230    6.2320 h1        1 MSQ      0.065367
     38 H321       -2.6250   -0.8040    6.2150 h1        1 MSQ      0.058700
     39 H322       -2.3240    0.7940    5.3500 h1        1 MSQ      0.058700
     40 H323       -2.8340   -0.6910    4.3890 h1        1 MSQ      0.058700
     41 H122       -1.4400    3.2410    0.4550 hn        1 MSQ      0.467800
@<TRIPOS>BOND
     1    1    2 ar  
     2    1    6 ar  
     3    2    3 ar  
     4    2   24 1   
     5    3    4 ar  
     6    4    5 ar  
     7    4    7 ar  
     8    5    6 ar  
     9    5   10 ar  
    10    6   11 1   
    11    7    8 ar  
    12    7   25 1   
    13    8    9 ar  
    14    8   20 1   
    15    9   10 ar  
    16    9   22 1   
    17   10   26 1   
    18   11   12 1   
    19   11   27 1   
    20   11   41 1   
    21   12   13 ar  
    22   12   17 ar  
    23   13   14 ar  
    24   13   28 1   
    25   14   15 ar  
    26   14   18 1   
    27   15   16 ar  
    28   15   29 1   
    29   16   17 ar  
    30   16   30 1   
    31   17   31 1   
    32   18   19 1   
    33   19   32 1   
    34   19   33 1   
    35   19   34 1   
    36   20   21 1   
    37   21   35 1   
    38   21   36 1   
    39   21   37 1   
    40   22   23 1   
    41   23   38 1   
    42   23   39 1   
    43   23   40 1   
@<TRIPOS>SUBSTRUCTURE
     1 MSQ         1 TEMP              0 ****  ****    0 ROOT
