@<TRIPOS>MOLECULE
MSQ
   40    42     1     0     0
SMALL
bcc


@<TRIPOS>ATOM
      1 N1          0.1890   -0.0150   -0.2030 nb        1 MSQ     -0.760000
      2 C2          1.5530   -0.0840   -0.0620 ca        1 MSQ      0.664900
      3 N3          2.2670   -0.1320    1.0630 nb        1 MSQ     -0.714000
      4 C4          1.5440   -0.0850    2.2410 ca        1 MSQ      0.446600
      5 C5          0.1190    0.0110    2.2450 ca        1 MSQ     -0.280600
      6 C6         -0.5380    0.0300    0.9370 ca        1 MSQ      0.690200
      7 C7          2.2410   -0.1300    3.4890 ca        1 MSQ     -0.254300
      8 C8          1.5470   -0.0650    4.6750 ca        1 MSQ      0.144100
      9 C9          0.1130    0.0580    4.6700 ca        1 MSQ      0.106100
     10 C10        -0.5750    0.0950    3.4770 ca        1 MSQ     -0.164000
     11 N12        -1.9350    0.1400    0.8940 nh        1 MSQ     -0.722300
     12 C14        -2.6740    0.1100   -0.3130 ca        1 MSQ      0.148600
     13 C15        -2.3930    1.0010   -1.3630 ca        1 MSQ     -0.106000
     14 C16        -3.1910    1.0130   -2.5160 ca        1 MSQ      0.012900
     15 C17        -4.2770    0.1410   -2.6190 ca        1 MSQ     -0.159000
     16 C18        -4.5640   -0.7400   -1.5780 ca        1 MSQ     -0.094000
     17 C19        -3.7770   -0.7680   -0.4330 ca        1 MSQ     -0.181000
     18 S21        -2.7240    2.1360   -3.6960 ss        1 MSQ     -0.157000
     19 C22        -3.8800    1.9730   -4.9980 c3        1 MSQ     -0.072000
     20 O26         2.1120   -0.1020    5.9290 os        1 MSQ     -0.299900
     21 C27         3.5330   -0.2120    5.9710 c3        1 MSQ      0.106700
     22 O31        -0.4560    0.1270    5.9250 os        1 MSQ     -0.299900
     23 C32        -1.8630    0.3360    5.9650 c3        1 MSQ      0.107700
     24 H21         2.1150   -0.1130   -1.0200 h5        1 MSQ      0.054100
     25 H71         3.3390   -0.2140    3.4740 ha        1 MSQ      0.164000
     26 H101       -1.6670    0.2130    3.4940 ha        1 MSQ      0.140000
     27 H121       -2.3970   -0.3070    1.6590 hn        1 MSQ      0.425800
     28 H151       -1.5410    1.6980   -1.2970 ha        1 MSQ      0.162000
     29 H171       -4.9100    0.1420   -3.5180 ha        1 MSQ      0.133000
     30 H181       -5.4210   -1.4250   -1.6650 ha        1 MSQ      0.133000
     31 H191       -4.0200   -1.4760    0.3730 ha        1 MSQ      0.129000
     32 H221       -3.5670    2.7220   -5.7630 h1        1 MSQ      0.069700
     33 H222       -3.8640    0.9600   -5.4590 h1        1 MSQ      0.069700
     34 H223       -4.9210    2.1990   -4.6770 h1        1 MSQ      0.069700
     35 H271        3.8690   -1.1630    5.4910 h1        1 MSQ      0.049700
     36 H272        4.0110    0.6680    5.4790 h1        1 MSQ      0.049700
     37 H273        3.7550   -0.2220    7.0690 h1        1 MSQ      0.049700
     38 H321       -2.4030   -0.5270    5.5040 h1        1 MSQ      0.046367
     39 H322       -2.1380    1.2900    5.4540 h1        1 MSQ      0.046367
     40 H323       -2.0820    0.3970    7.0610 h1        1 MSQ      0.046367
@<TRIPOS>BOND
     1    1    2 ar  
     2    1    6 ar  
     3    2    3 ar  
     4    2   24 1   
     5    3    4 ar  
     6    4    5 ar  
     7    4    7 ar  
     8    5    6 ar  
     9    5   10 ar  
    10    6   11 1   
    11    7    8 ar  
    12    7   25 1   
    13    8    9 ar  
    14    8   20 1   
    15    9   10 ar  
    16    9   22 1   
    17   10   26 1   
    18   11   12 1   
    19   11   27 1   
    20   12   13 ar  
    21   12   17 ar  
    22   13   14 ar  
    23   13   28 1   
    24   14   15 ar  
    25   14   18 1   
    26   15   16 ar  
    27   15   29 1   
    28   16   17 ar  
    29   16   30 1   
    30   17   31 1   
    31   18   19 1   
    32   19   32 1   
    33   19   33 1   
    34   19   34 1   
    35   20   21 1   
    36   21   35 1   
    37   21   36 1   
    38   21   37 1   
    39   22   23 1   
    40   23   38 1   
    41   23   39 1   
    42   23   40 1   
@<TRIPOS>SUBSTRUCTURE
     1 MSQ         1 TEMP              0 ****  ****    0 ROOT
