@<TRIPOS>MOLECULE
MSR
   20    14     1     0     0
SMALL
bcc


@<TRIPOS>ATOM
      1 C12         0.5830   -0.0970   -1.1970 c1        1 MSR     -0.104000
      2 C13         1.9690   -0.0970   -1.1970 c1        1 MSR     -0.195000
      3 C14         2.6620   -0.0970    0.0030 c1        1 MSR      0.075000
      4 O17         4.0690   -0.1300    0.0030 o         1 MSR     -0.246000
      5 C15         1.9690   -0.0970    1.2030 c2        1 MSR     -0.138000
      6 C16         0.5830   -0.0970    1.2030 c1        1 MSR     -0.110000
      7 C11        -0.1100   -0.0970    0.0030 c1        1 MSR      0.022000
      8 N3         -1.4510   -0.0970    0.0030 n2        1 MSR     -0.127500
      9 C4         -2.2360    0.9830   -0.0470 c1        1 MSR     -0.166000
     10 C5         -3.5380    0.5600   -0.0280 c1        1 MSR     -0.166000
     11 NFE        -3.5370   -0.7750    0.0330 n2        1 MSR     -0.127500
     12 C2         -2.2470   -1.1920    0.0520 c1        1 MSR     -0.090000
     13 H12         0.0950   -0.0970   -2.0430 ha        1 MSR      0.145000
     14 H13         2.4570   -0.0970   -2.0430 ha        1 MSR      0.141000
     15 HO17        4.3840    0.6990    0.0030 ho        1 MSR      0.221000
     16 H15         2.4570   -0.0970    2.0480 ha        1 MSR      0.158000
     17 H16         0.0950   -0.0970    2.0490 ha        1 MSR      0.146000
     18 H4         -1.9350    1.9100   -0.0890 DU        1 MSR      0.186333
     19 H5         -4.3280    1.1320   -0.0540 DU        1 MSR      0.186333
     20 H2         -1.9450   -2.1200    0.0940 DU        1 MSR      0.186333
@<TRIPOS>BOND
     1    1    7 1   
     2    1   13 1   
     3    2    3 1   
     4    2   14 1   
     5    3    5 1   
     6    4   15 1   
     7    5    6 1   
     8    5   16 1   
     9    6   17 1   
    10    8    9 1   
    11    8   12 1   
    12    9   10 1   
    13   10   11 1   
    14   11   12 1   
@<TRIPOS>SUBSTRUCTURE
     1 MSR         1 TEMP              0 ****  ****    0 ROOT
