@<TRIPOS>MOLECULE
MSR
   20    21     1     0     0
SMALL
bcc


@<TRIPOS>ATOM
      1 C12         0.9220   -0.2560    0.5960 ca        1 MSR     -0.107000
      2 C13         0.8690   -0.2880    1.9850 ca        1 MSR     -0.166500
      3 C14         1.7820   -1.0750    2.6980 ca        1 MSR      0.120100
      4 O17         1.7900   -1.1510    4.0710 oh        1 MSR     -0.492100
      5 C15         2.7490   -1.8370    2.0220 ca        1 MSR     -0.166500
      6 C16         2.7950   -1.8110    0.6350 ca        1 MSR     -0.107000
      7 C11         1.8850   -1.0170   -0.0990 ca        1 MSR     -0.023200
      8 N3          1.9400   -0.9890   -1.5040 na        1 MSR     -0.137000
      9 C4          0.8680   -0.7660   -2.3820 cc        1 MSR     -0.249600
     10 C5          1.4080   -0.8240   -3.6770 cd        1 MSR      0.293200
     11 NFE         2.7810   -1.0730   -3.6170 nd        1 MSR     -0.663000
     12 C2          3.0840   -1.1690   -2.3090 cc        1 MSR      0.398400
     13 H12         0.2050    0.3740    0.0450 ha        1 MSR      0.145500
     14 H13         0.1140    0.3080    2.5180 ha        1 MSR      0.149500
     15 HO17        1.0830   -0.5820    4.4060 ho        1 MSR      0.422000
     16 H15         3.4570   -2.4500    2.5990 ha        1 MSR      0.149500
     17 H16         3.5500   -2.4200    0.1130 ha        1 MSR      0.145500
     18 H4         -0.1480   -0.6050   -2.0310 h4        1 MSR      0.178000
     19 H5          0.8940   -0.7020   -4.6300 h4        1 MSR      0.044100
     20 H2          4.0770   -1.3510   -1.8880 h5        1 MSR      0.063100
@<TRIPOS>BOND
     1    1    2 ar  
     2    1    7 ar  
     3    1   13 1   
     4    2    3 ar  
     5    2   14 1   
     6    3    4 1   
     7    3    5 ar  
     8    4   15 1   
     9    5    6 ar  
    10    5   16 1   
    11    6    7 ar  
    12    6   17 1   
    13    7    8 1   
    14    8    9 1   
    15    8   12 1   
    16    9   10 2   
    17    9   18 1   
    18   10   11 1   
    19   10   19 1   
    20   11   12 2   
    21   12   20 1   
@<TRIPOS>SUBSTRUCTURE
     1 MSR         1 TEMP              0 ****  ****    0 ROOT
