@<TRIPOS>MOLECULE
MSR
   20    21     1     0     0
SMALL
bcc


@<TRIPOS>ATOM
      1 C12         0.0130   -0.2120   -0.0340 ca        1 MSR     -0.107000
      2 C13         1.3990   -0.1620   -0.0630 ca        1 MSR     -0.166500
      3 C14         2.1070    0.1160    1.1170 ca        1 MSR      0.120100
      4 O17         3.4780    0.1470    1.0180 oh        1 MSR     -0.492100
      5 C15         1.4260    0.3460    2.3200 ca        1 MSR     -0.166500
      6 C16         0.0370    0.3030    2.3450 ca        1 MSR     -0.107000
      7 C11        -0.6900    0.0210    1.1700 ca        1 MSR     -0.023200
      8 N3         -2.0950   -0.0290    1.1960 na        1 MSR     -0.136000
      9 C4         -2.9650    0.2700    0.1370 cc        1 MSR     -0.247600
     10 C5         -4.2650    0.0760    0.6340 cd        1 MSR      0.293200
     11 NFE        -4.2140   -0.3360    1.9680 nd        1 MSR     -0.663000
     12 C2         -2.9080   -0.3930    2.2900 cc        1 MSR      0.396400
     13 H12        -0.5360   -0.4400   -0.9620 ha        1 MSR      0.146000
     14 H13         1.9510   -0.3400   -0.9970 ha        1 MSR      0.149500
     15 HO17        3.8380    0.3490    1.8940 ho        1 MSR      0.422000
     16 H15         1.9850    0.5640    3.2410 ha        1 MSR      0.149500
     17 H16        -0.4880    0.4970    3.2940 ha        1 MSR      0.146000
     18 H4         -2.6080    0.5940   -0.8370 h4        1 MSR      0.179000
     19 H5         -5.2140    0.2070    0.1160 h4        1 MSR      0.044100
     20 H2         -2.4940   -0.6910    3.2580 h5        1 MSR      0.062100
@<TRIPOS>BOND
     1    1    2 ar  
     2    1    7 ar  
     3    1   13 1   
     4    2    3 ar  
     5    2   14 1   
     6    3    4 1   
     7    3    5 ar  
     8    4   15 1   
     9    5    6 ar  
    10    5   16 1   
    11    6    7 ar  
    12    6   17 1   
    13    7    8 1   
    14    8    9 1   
    15    8   12 1   
    16    9   10 2   
    17    9   18 1   
    18   10   11 1   
    19   10   19 1   
    20   11   12 2   
    21   12   20 1   
@<TRIPOS>SUBSTRUCTURE
     1 MSR         1 TEMP              0 ****  ****    0 ROOT
