@<TRIPOS>MOLECULE
MST
   35    35     1     0     0
SMALL
bcc


@<TRIPOS>ATOM
      1 N1          0.4370   -0.0370    1.6960 nb        1 MST     -0.837000
      2 C2          1.1890   -0.1290    0.5630 ca        1 MST      0.796300
      3 S7          2.9080   -0.2220    0.7120 ss        1 MST     -0.199400
      4 C8          3.2360   -0.1380    2.4280 c3        1 MST     -0.066000
      5 N3          0.7290   -0.1590   -0.7210 nb        1 MST     -0.799000
      6 C4         -0.6570   -0.1050   -0.8460 ca        1 MST      0.935900
      7 N9         -1.2520   -0.2440   -2.0980 nh        1 MST     -0.836900
      8 C10        -0.5690   -0.0370   -3.3760 c3        1 MST      0.246200
      9 C11        -1.6170   -0.1430   -4.5080 c3        1 MST     -0.106767
     10 C12         0.0860    1.3480   -3.4980 c3        1 MST     -0.106767
     11 C13         0.5010   -1.1060   -3.6490 c3        1 MST     -0.106767
     12 N5         -1.5330    0.0150    0.2280 nb        1 MST     -0.859000
     13 C6         -0.9360    0.0540    1.4770 ca        1 MST      0.930900
     14 N14        -1.7820    0.2600    2.5690 nh        1 MST     -0.844900
     15 C15        -1.3190    0.0240    3.9150 c3        1 MST      0.212800
     16 C16        -2.4280    0.1440    4.9490 c3        1 MST     -0.112100
     17 H83         4.3480   -0.1870    2.5050 h1        1 MST      0.074700
     18 H82         2.8790    0.8110    2.8880 h1        1 MST      0.074700
     19 H81         2.7920   -0.9870    2.9930 h1        1 MST      0.074700
     20 H9         -2.2330   -0.0560   -2.1240 hn        1 MST      0.435800
     21 H113       -1.1050    0.0150   -5.4870 hc        1 MST      0.046367
     22 H112       -2.0920   -1.1530   -4.5150 hc        1 MST      0.046367
     23 H111       -2.4100    0.6340   -4.3960 hc        1 MST      0.046367
     24 H123       -0.6660    2.1570   -3.3420 hc        1 MST      0.046367
     25 H122        0.9110    1.4730   -2.7580 hc        1 MST      0.046367
     26 H121        0.5170    1.4540   -4.5220 hc        1 MST      0.046367
     27 H133        0.1040   -2.1290   -3.4450 hc        1 MST      0.046367
     28 H132        0.7980   -1.0470   -4.7240 hc        1 MST      0.046367
     29 H131        1.4100   -0.9400   -3.0260 hc        1 MST      0.046367
     30 H14        -2.7570    0.1390    2.4040 hn        1 MST      0.436800
     31 H152       -0.5140    0.7810    4.1450 h1        1 MST      0.051700
     32 H151       -0.8520   -1.0010    4.0000 h1        1 MST      0.051700
     33 H163       -1.9870   -0.0270    5.9610 hc        1 MST      0.044700
     34 H162       -2.8910    1.1600    4.9310 hc        1 MST      0.044700
     35 H161       -3.2280   -0.6150    4.7780 hc        1 MST      0.044700
@<TRIPOS>BOND
     1    1    2 ar  
     2    1   13 ar  
     3    2    3 1   
     4    2    5 ar  
     5    3    4 1   
     6    4   17 1   
     7    4   18 1   
     8    4   19 1   
     9    5    6 ar  
    10    6    7 1   
    11    6   12 ar  
    12    7    8 1   
    13    7   20 1   
    14    8    9 1   
    15    8   10 1   
    16    8   11 1   
    17    9   21 1   
    18    9   22 1   
    19    9   23 1   
    20   10   24 1   
    21   10   25 1   
    22   10   26 1   
    23   11   27 1   
    24   11   28 1   
    25   11   29 1   
    26   12   13 ar  
    27   13   14 1   
    28   14   15 1   
    29   14   30 1   
    30   15   16 1   
    31   15   31 1   
    32   15   32 1   
    33   16   33 1   
    34   16   34 1   
    35   16   35 1   
@<TRIPOS>SUBSTRUCTURE
     1 MST         1 TEMP              0 ****  ****    0 ROOT
