@<TRIPOS>MOLECULE
MST
   35    35     1     0     0
SMALL
bcc


@<TRIPOS>ATOM
      1 N1         -0.1050    0.1500   -0.1970 nb        1 MST     -0.838000
      2 C2          1.2570    0.1940   -0.1730 ca        1 MST      0.796300
      3 S7          2.1120    0.2360   -1.6740 ss        1 MST     -0.199400
      4 C8          0.8810    0.2280   -2.9170 c3        1 MST     -0.066000
      5 N3          2.0540    0.2050    0.9340 nb        1 MST     -0.800000
      6 C4          1.3710    0.1670    2.1470 ca        1 MST      0.936900
      7 N9          2.0690    0.2680    3.3470 nh        1 MST     -0.837900
      8 C10         3.5010    0.0130    3.5090 c3        1 MST      0.247200
      9 C11         3.8410    0.0900    5.0150 c3        1 MST     -0.107433
     10 C12         3.9280   -1.3810    3.0210 c3        1 MST     -0.107433
     11 C13         4.3680    1.0620    2.7950 c3        1 MST     -0.107433
     12 N5         -0.0140    0.0880    2.2590 nb        1 MST     -0.861000
     13 C6         -0.7080    0.1150    1.0600 ca        1 MST      0.931900
     14 N14        -2.0990    0.1540    1.1420 nh        1 MST     -0.845900
     15 C15        -2.9180   -0.1190   -0.0140 c3        1 MST      0.213800
     16 C16        -4.4010   -0.1830    0.3150 c3        1 MST     -0.112100
     17 H83         0.2570   -0.6930   -2.8980 h1        1 MST      0.074700
     18 H82         0.2040    1.1090   -2.8560 h1        1 MST      0.074700
     19 H81         1.4500    0.2670   -3.8760 h1        1 MST      0.074700
     20 H9          1.5270    0.1070    4.1700 hn        1 MST      0.436800
     21 H113        3.2730   -0.6770    5.5950 hc        1 MST      0.046256
     22 H112        3.6080    1.1020    5.4220 hc        1 MST      0.046256
     23 H111        4.9310   -0.1060    5.1470 hc        1 MST      0.046256
     24 H123        3.3430   -2.1780    3.5400 hc        1 MST      0.046256
     25 H122        5.0100   -1.5270    3.2510 hc        1 MST      0.046256
     26 H121        3.7870   -1.4880    1.9200 hc        1 MST      0.046256
     27 H133        4.0130    2.0940    3.0240 hc        1 MST      0.046256
     28 H132        4.3610    0.9130    1.6900 hc        1 MST      0.046256
     29 H131        5.4210    0.9580    3.1540 hc        1 MST      0.046256
     30 H14        -2.5000   -0.0430    2.0330 hn        1 MST      0.437800
     31 H152       -2.6090   -1.0930   -0.4960 h1        1 MST      0.051200
     32 H151       -2.7410    0.7010   -0.7700 h1        1 MST      0.051200
     33 H163       -4.6240   -1.0090    1.0330 hc        1 MST      0.045033
     34 H162       -4.7610    0.7770    0.7550 hc        1 MST      0.045033
     35 H161       -4.9640   -0.3740   -0.6300 hc        1 MST      0.045033
@<TRIPOS>BOND
     1    1    2 ar  
     2    1   13 ar  
     3    2    3 1   
     4    2    5 ar  
     5    3    4 1   
     6    4   17 1   
     7    4   18 1   
     8    4   19 1   
     9    5    6 ar  
    10    6    7 1   
    11    6   12 ar  
    12    7    8 1   
    13    7   20 1   
    14    8    9 1   
    15    8   10 1   
    16    8   11 1   
    17    9   21 1   
    18    9   22 1   
    19    9   23 1   
    20   10   24 1   
    21   10   25 1   
    22   10   26 1   
    23   11   27 1   
    24   11   28 1   
    25   11   29 1   
    26   12   13 ar  
    27   13   14 1   
    28   14   15 1   
    29   14   30 1   
    30   15   16 1   
    31   15   31 1   
    32   15   32 1   
    33   16   33 1   
    34   16   34 1   
    35   16   35 1   
@<TRIPOS>SUBSTRUCTURE
     1 MST         1 TEMP              0 ****  ****    0 ROOT
