@<TRIPOS>MOLECULE
MST
   35    35     1     0     0
SMALL
bcc


@<TRIPOS>ATOM
      1 N1         -0.1020   -0.0270   -0.1990 nb        1 MST     -0.837000
      2 C2          1.2580   -0.1170   -0.1750 ca        1 MST      0.796300
      3 S7          2.1110   -0.2000   -1.6750 ss        1 MST     -0.199400
      4 C8          0.8850   -0.1110   -2.9190 c3        1 MST     -0.066000
      5 N3          2.0530   -0.1500    0.9330 nb        1 MST     -0.799000
      6 C4          1.3690   -0.1040    2.1450 ca        1 MST      0.935900
      7 N9          2.0610   -0.2470    3.3450 nu        1 MST     -0.836900
      8 C10         3.5010   -0.0400    3.5100 c3        1 MST      0.246200
      9 C11         3.8380   -0.1520    5.0150 c3        1 MST     -0.106767
     10 C12         4.3350   -1.1050    2.7800 c3        1 MST     -0.106767
     11 C13         3.9720    1.3480    3.0460 c3        1 MST     -0.106767
     12 N5         -0.0130    0.0120    2.2570 nb        1 MST     -0.859000
     13 C6         -0.7020    0.0560    1.0560 ca        1 MST      0.930900
     14 N14        -2.0810    0.2580    1.1330 nu        1 MST     -0.844900
     15 C15        -2.9260    0.0270   -0.0140 c3        1 MST      0.212800
     16 C16        -4.4070    0.1410    0.3120 c3        1 MST     -0.112100
     17 H83         1.4540   -0.1540   -3.8780 h1        1 MST      0.074700
     18 H82         0.3020    0.8360   -2.8810 h1        1 MST      0.074700
     19 H81         0.1700   -0.9620   -2.8790 h1        1 MST      0.074700
     20 H9          1.5250   -0.0650    4.1680 hn        1 MST      0.435800
     21 H113        3.2940    0.6230    5.6070 hc        1 MST      0.046367
     22 H112        3.5740   -1.1630    5.4060 hc        1 MST      0.046367
     23 H111        4.9340    0.0080    5.1510 hc        1 MST      0.046367
     24 H123        3.9430   -2.1280    2.9880 hc        1 MST      0.046367
     25 H122        4.3380   -0.9350    1.6790 hc        1 MST      0.046367
     26 H121        5.3890   -1.0440    3.1450 hc        1 MST      0.046367
     27 H133        3.4140    2.1540    3.5790 hc        1 MST      0.046367
     28 H132        5.0590    1.4550    3.2750 hc        1 MST      0.046367
     29 H131        3.8320    1.4770    1.9470 hc        1 MST      0.046367
     30 H14        -2.5000    0.1320    2.0280 hn        1 MST      0.436800
     31 H152       -2.6600    0.7890   -0.8030 h1        1 MST      0.051700
     32 H151       -2.7280   -0.9950   -0.4530 h1        1 MST      0.051700
     33 H163       -4.7190   -0.6230    1.0640 hc        1 MST      0.044700
     34 H162       -4.9890   -0.0270   -0.6260 hc        1 MST      0.044700
     35 H161       -4.6590    1.1540    0.7090 hc        1 MST      0.044700
@<TRIPOS>BOND
     1    1    2 ar  
     2    1   13 ar  
     3    2    3 1   
     4    2    5 ar  
     5    3    4 1   
     6    4   17 1   
     7    4   18 1   
     8    4   19 1   
     9    5    6 ar  
    10    6    7 1   
    11    6   12 ar  
    12    7    8 1   
    13    7   20 1   
    14    8    9 1   
    15    8   10 1   
    16    8   11 1   
    17    9   21 1   
    18    9   22 1   
    19    9   23 1   
    20   10   24 1   
    21   10   25 1   
    22   10   26 1   
    23   11   27 1   
    24   11   28 1   
    25   11   29 1   
    26   12   13 ar  
    27   13   14 1   
    28   14   15 1   
    29   14   30 1   
    30   15   16 1   
    31   15   31 1   
    32   15   32 1   
    33   16   33 1   
    34   16   34 1   
    35   16   35 1   
@<TRIPOS>SUBSTRUCTURE
     1 MST         1 TEMP              0 ****  ****    0 ROOT
