@<TRIPOS>MOLECULE
MST
   37    37     1     0     0
SMALL
bcc


@<TRIPOS>ATOM
      1 N1          0.1470    0.1060   -0.4790 nb        1 MST     -0.735000
      2 C2          1.3930   -0.5120   -0.5330 ca        1 MST      0.706300
      3 S7          2.1450   -0.8200   -1.9790 ss        1 MST      0.195600
      4 C8          1.1100   -0.2420   -3.2340 c3        1 MST     -0.169000
      5 N3          2.0890   -0.9160    0.6110 nb        1 MST     -0.683000
      6 C4          1.4760   -0.6630    1.7920 ca        1 MST      0.824900
      7 N9          2.1700   -1.1000    3.0360 n4        1 MST     -0.769700
      8 C10         3.2750   -0.1280    3.5260 c3        1 MST      0.177200
      9 C11         3.5190   -0.4420    5.0050 c3        1 MST     -0.135767
     10 C12         4.5580   -0.3670    2.7350 c3        1 MST     -0.135767
     11 C13         2.8150    1.3170    3.3740 c3        1 MST     -0.135767
     12 N5          0.2390   -0.0530    1.9620 nb        1 MST     -0.768000
     13 C6         -0.3540    0.2990    0.7700 ca        1 MST      0.820900
     14 N14        -1.6940    0.9550    0.8690 n4        1 MST     -0.757700
     15 C15        -2.8020   -0.0630    0.7620 c3        1 MST      0.121800
     16 C16        -4.1640    0.5880    0.8630 c3        1 MST     -0.147100
     17 H83         0.1210   -0.7570   -3.2870 h1        1 MST      0.123700
     18 H82         0.9260    0.8590   -3.2070 h1        1 MST      0.123700
     19 H81         1.6710   -0.4750   -4.1820 h1        1 MST      0.123700
     20 H9          2.6110   -2.0170    2.8640 hn        1 MST      0.481800
     21 H113        3.8530   -1.4980    5.1550 hc        1 MST      0.085478
     22 H112        2.6120   -0.2420    5.6270 hc        1 MST      0.085478
     23 H111        4.3390    0.2290    5.3710 hc        1 MST      0.085478
     24 H123        5.3550    0.2980    3.1600 hc        1 MST      0.085478
     25 H122        4.4390   -0.1110    1.6550 hc        1 MST      0.085478
     26 H121        4.9100   -1.4240    2.8280 hc        1 MST      0.085478
     27 H133        3.6010    1.9810    3.8210 hc        1 MST      0.085478
     28 H132        1.8580    1.5050    3.9180 hc        1 MST      0.085478
     29 H131        2.7000    1.5970    2.3000 hc        1 MST      0.085478
     30 H14        -1.7710    1.4510    1.7700 hn        1 MST      0.485300
     31 H152       -2.6870   -0.5880   -0.2300 hx        1 MST      0.116200
     32 H151       -2.6580   -0.8090    1.5970 hx        1 MST      0.116200
     33 H163       -4.3430    1.3190    0.0360 hc        1 MST      0.095033
     34 H162       -4.9350   -0.2240    0.7750 hc        1 MST      0.095033
     35 H161       -4.3150    1.0990    1.8450 hc        1 MST      0.095033
     36 H92         1.4740   -1.1970    3.7910 hn        1 MST      0.481800
     37 H142       -1.7910    1.6440    0.1060 hn        1 MST      0.485300
@<TRIPOS>BOND
     1    1    2 ar  
     2    1   13 ar  
     3    2    3 1   
     4    2    5 ar  
     5    3    4 1   
     6    4   17 1   
     7    4   18 1   
     8    4   19 1   
     9    5    6 ar  
    10    6    7 1   
    11    6   12 ar  
    12    7    8 1   
    13    7   20 1   
    14    7   36 1   
    15    8    9 1   
    16    8   10 1   
    17    8   11 1   
    18    9   21 1   
    19    9   22 1   
    20    9   23 1   
    21   10   24 1   
    22   10   25 1   
    23   10   26 1   
    24   11   27 1   
    25   11   28 1   
    26   11   29 1   
    27   12   13 ar  
    28   13   14 1   
    29   14   15 1   
    30   14   30 1   
    31   14   37 1   
    32   15   16 1   
    33   15   31 1   
    34   15   32 1   
    35   16   33 1   
    36   16   34 1   
    37   16   35 1   
@<TRIPOS>SUBSTRUCTURE
     1 MST         1 TEMP              0 ****  ****    0 ROOT
