@<TRIPOS>MOLECULE
MST
   35    32     1     0     0
SMALL
bcc


@<TRIPOS>ATOM
      1 N1         -0.7100   -0.7320   -2.0560 n1        1 MST     -0.318000
      2 C2          0.6410   -0.7180   -1.9860 c1        1 MST     -0.055000
      3 S7          1.6060   -0.8960   -3.4660 s         1 MST      0.309000
      4 C8          1.2010    0.4040   -4.5950 c3        1 MST     -0.366000
      5 N3          1.2500   -0.7180   -0.7870 n2        1 MST     -0.276000
      6 C4          0.5170   -0.7320    0.3430 c1        1 MST      0.218000
      7 N9          1.1730   -0.8750    1.6260 n2        1 MST     -0.283000
      8 C10         2.0350    0.1620    2.1090 c3        1 MST      0.090000
      9 C11         2.6520   -0.2680    3.4520 c3        1 MST     -0.225000
     10 C12         3.1550    0.4120    1.0920 c3        1 MST     -0.225000
     11 C13         1.2330    1.4390    2.3040 c3        1 MST     -0.225000
     12 N5         -0.8280   -0.7460    0.2710 n2        1 MST     -0.328000
     13 C6         -1.4410   -0.7460   -0.9320 c1        1 MST      0.213000
     14 N14        -2.8890   -0.8430   -1.0090 n3        1 MST     -0.291000
     15 C15        -3.7160    0.1800   -0.4070 c3        1 MST     -0.024000
     16 C16        -5.1990   -0.1390   -0.6650 c3        1 MST     -0.230000
     17 H83         1.7170    0.2930   -5.4180 h1        1 MST      0.114000
     18 H82         0.2430    0.3710   -4.8030 h1        1 MST      0.114000
     19 H81         1.4170    1.2680   -4.1890 h1        1 MST      0.114000
     20 H9          1.1000   -1.6600    2.0890 hn        1 MST      0.232000
     21 H113        3.2180   -1.0620    3.3130 hc        1 MST      0.085667
     22 H112        1.9330   -0.4850    4.0900 hc        1 MST      0.085667
     23 H111        3.1990    0.4650    3.8110 hc        1 MST      0.085667
     24 H123        3.4710   -0.4490    0.7350 hc        1 MST      0.085667
     25 H122        2.8130    0.9660    0.3560 hc        1 MST      0.085667
     26 H121        3.9010    0.8770    1.5350 hc        1 MST      0.085667
     27 H133        1.0620    1.8530    1.4330 hc        1 MST      0.085667
     28 H132        0.3790    1.2260    2.7380 hc        1 MST      0.085667
     29 H131        1.7400    2.0610    2.8680 hc        1 MST      0.085667
     30 H14        -3.2790   -1.5460   -1.4540 hn        1 MST      0.233000
     31 H152       -3.5500    0.2070    0.5600 h1        1 MST      0.092000
     32 H151       -3.4960    1.0510   -0.8000 h1        1 MST      0.092000
     33 H163       -5.4550   -0.9400   -0.1540 hc        1 MST      0.084000
     34 H162       -5.7550    0.6250   -0.3790 hc        1 MST      0.084000
     35 H161       -5.3360   -0.3040   -1.6250 hc        1 MST      0.084000
@<TRIPOS>BOND
     1    1    2 1   
     2    2    5 1   
     3    3    4 1   
     4    4   17 1   
     5    4   18 1   
     6    4   19 1   
     7    5    6 1   
     8    6   12 1   
     9    7    8 1   
    10    7   20 1   
    11    8    9 1   
    12    8   10 1   
    13    8   11 1   
    14    9   21 1   
    15    9   22 1   
    16    9   23 1   
    17   10   24 1   
    18   10   25 1   
    19   10   26 1   
    20   11   27 1   
    21   11   28 1   
    22   11   29 1   
    23   12   13 1   
    24   13   14 1   
    25   14   15 1   
    26   14   30 1   
    27   15   16 1   
    28   15   31 1   
    29   15   32 1   
    30   16   33 1   
    31   16   34 1   
    32   16   35 1   
@<TRIPOS>SUBSTRUCTURE
     1 MST         1 TEMP              0 ****  ****    0 ROOT
