@<TRIPOS>MOLECULE
MSU
   16    15     1     0     0
SMALL
bcc


@<TRIPOS>ATOM
      1 C1          0.0200    0.0290   -0.0020 c         1 MSU      0.913600
      2 O1          0.9710   -0.7980   -0.0970 o         1 MSU     -0.843800
      3 C2         -0.7190    0.1480    1.3480 c3        1 MSU     -0.200400
      4 C3          0.1860   -0.2640    2.4840 c3        1 MSU     -0.108400
      5 C4         -0.5550   -0.3980    3.7720 c         1 MSU      0.635100
      6 OT1        -1.5250   -1.0980    4.0780 o         1 MSU     -0.574000
      7 OT2        -0.0340    0.3910    4.7770 os        1 MSU     -0.457900
      8 CT         -0.6780    0.3350    6.0420 c3        1 MSU      0.130700
      9 OXT        -0.3820    0.7660   -0.9460 o         1 MSU     -0.843800
     10 H21        -1.6180   -0.5160    1.3090 hc        1 MSU      0.036700
     11 H22        -1.0690    1.2010    1.4830 hc        1 MSU      0.036700
     12 H31         0.6470   -1.2610    2.2340 hc        1 MSU      0.086700
     13 H32         1.0190    0.4780    2.5990 hc        1 MSU      0.086700
     14 HT1        -1.7460    0.6470    5.9460 h1        1 MSU      0.034367
     15 HT2        -0.1020    1.0530    6.6760 h1        1 MSU      0.034367
     16 HT3        -0.6250   -0.7010    6.4550 h1        1 MSU      0.034367
@<TRIPOS>BOND
     1    1    2 1   
     2    1    3 1   
     3    1    9 1   
     4    3    4 1   
     5    3   10 1   
     6    3   11 1   
     7    4    5 1   
     8    4   12 1   
     9    4   13 1   
    10    5    6 2   
    11    5    7 1   
    12    7    8 1   
    13    8   14 1   
    14    8   15 1   
    15    8   16 1   
@<TRIPOS>SUBSTRUCTURE
     1 MSU         1 TEMP              0 ****  ****    0 ROOT
