@<TRIPOS>MOLECULE
MSU
   16    14     1     0     0
SMALL
bcc


@<TRIPOS>ATOM
      1 C1          1.4340    1.3270   -2.2640 c1        1 MSU      0.333000
      2 O1          0.8030    1.2580   -3.3510 o         1 MSU     -0.578500
      3 C2          0.6990    1.1720   -0.9510 c2        1 MSU     -0.229000
      4 C3          0.6110   -0.2950   -0.5920 c3        1 MSU     -0.137000
      5 C4         -0.1070   -0.4480    0.7300 c2        1 MSU      0.306000
      6 OT1         0.4050   -0.0340    1.7510 o         1 MSU     -0.385000
      7 OT2        -1.3590   -1.0840    0.7800 os        1 MSU     -0.296000
      8 CT         -1.8560   -1.2640    2.0870 c3        1 MSU     -0.059000
      9 OXT         2.6770    1.5300   -2.2690 o         1 MSU     -0.578500
     10 H21        -0.2030    1.5410   -1.0370 ha        1 MSU      0.076000
     11 H22         1.1820    1.6510   -0.2480 ha        1 MSU      0.076000
     12 H31         0.1170   -0.7720   -1.2890 hc        1 MSU      0.126000
     13 H32         1.5130   -0.6670   -0.5190 hc        1 MSU      0.126000
     14 HT1        -1.2760   -1.8870    2.5750 h1        1 MSU      0.073667
     15 HT2        -2.7660   -1.6300    2.0440 h1        1 MSU      0.073667
     16 HT3        -1.8740   -0.4000    2.5530 h1        1 MSU      0.073667
@<TRIPOS>BOND
     1    1    2 1   
     2    1    9 1   
     3    3    4 1   
     4    3   10 1   
     5    3   11 1   
     6    4    5 1   
     7    4   12 1   
     8    4   13 1   
     9    5    6 1   
    10    5    7 1   
    11    7    8 1   
    12    8   14 1   
    13    8   15 1   
    14    8   16 1   
@<TRIPOS>SUBSTRUCTURE
     1 MSU         1 TEMP              0 ****  ****    0 ROOT
