@<TRIPOS>MOLECULE
MSU
   16    15     1     0     0
SMALL
bcc


@<TRIPOS>ATOM
      1 C1          0.0130    0.1020   -0.0010 c         1 MSU      0.913600
      2 O1          0.9740   -0.7130   -0.1170 o         1 MSU     -0.843800
      3 C2         -0.7240    0.1810    1.3530 c3        1 MSU     -0.200400
      4 C3          0.1890   -0.2470    2.4770 c3        1 MSU     -0.108400
      5 C4         -0.5480   -0.4180    3.7630 c         1 MSU      0.635100
      6 OT1        -1.5080   -1.1370    4.0560 o         1 MSU     -0.574000
      7 OT2        -0.0360    0.3570    4.7830 os        1 MSU     -0.457900
      8 CT         -0.6770    0.2660    6.0480 c3        1 MSU      0.130700
      9 OXT        -0.3990    0.8550   -0.9270 o         1 MSU     -0.843800
     10 H21        -1.6150   -0.4920    1.3000 hc        1 MSU      0.036700
     11 H22        -1.0850    1.2260    1.5120 hc        1 MSU      0.036700
     12 H31         0.6600   -1.2330    2.2040 hc        1 MSU      0.086700
     13 H32         1.0140    0.5010    2.6070 hc        1 MSU      0.086700
     14 HT1        -1.7500    0.5650    5.9600 h1        1 MSU      0.034367
     15 HT2        -0.1100    0.9790    6.6960 h1        1 MSU      0.034367
     16 HT3        -0.6090   -0.7780    6.4400 h1        1 MSU      0.034367
@<TRIPOS>BOND
     1    1    2 1   
     2    1    3 1   
     3    1    9 1   
     4    3    4 1   
     5    3   10 1   
     6    3   11 1   
     7    4    5 1   
     8    4   12 1   
     9    4   13 1   
    10    5    6 2   
    11    5    7 1   
    12    7    8 1   
    13    8   14 1   
    14    8   15 1   
    15    8   16 1   
@<TRIPOS>SUBSTRUCTURE
     1 MSU         1 TEMP              0 ****  ****    0 ROOT
