@<TRIPOS>MOLECULE
MSU
   16    15     1     0     0
SMALL
bcc


@<TRIPOS>ATOM
      1 C1         -2.3700   -0.0540   -0.1120 c         1 MSU      0.913600
      2 O1         -2.5930   -1.0090    0.6860 o         1 MSU     -0.843800
      3 C2         -0.9440    0.5320   -0.1760 c3        1 MSU     -0.200400
      4 C3          0.0720   -0.5060    0.2370 c3        1 MSU     -0.108400
      5 C4          1.4310    0.0830    0.4230 c         1 MSU      0.635100
      6 OT1         1.8250    0.9930    1.1590 o         1 MSU     -0.574000
      7 OT2         2.3920   -0.5240   -0.3600 os        1 MSU     -0.457900
      8 CT          3.7190   -0.0280   -0.2560 c3        1 MSU      0.130700
      9 OXT        -3.2430    0.4700   -0.8590 o         1 MSU     -0.843800
     10 H21        -0.7420    0.8910   -1.2150 hc        1 MSU      0.036700
     11 H22        -0.9000    1.4120    0.5120 hc        1 MSU      0.036700
     12 H31        -0.2540   -0.9610    1.2140 hc        1 MSU      0.086700
     13 H32         0.1140   -1.3270   -0.5250 hc        1 MSU      0.086700
     14 HT1         3.7500    1.0530   -0.5370 h1        1 MSU      0.034367
     15 HT2         4.0970   -0.1560    0.7870 h1        1 MSU      0.034367
     16 HT3         4.3030   -0.6500   -0.9770 h1        1 MSU      0.034367
@<TRIPOS>BOND
     1    1    2 1   
     2    1    3 1   
     3    1    9 1   
     4    3    4 1   
     5    3   10 1   
     6    3   11 1   
     7    4    5 1   
     8    4   12 1   
     9    4   13 1   
    10    5    6 2   
    11    5    7 1   
    12    7    8 1   
    13    8   14 1   
    14    8   15 1   
    15    8   16 1   
@<TRIPOS>SUBSTRUCTURE
     1 MSU         1 TEMP              0 ****  ****    0 ROOT
