@<TRIPOS>MOLECULE
MSX
   27    27     1     0     0
SMALL
bcc


@<TRIPOS>ATOM
      1 O3          0.1220    0.2590   -0.0700 oh        1 MSX     -0.605800
      2 C6          1.5240    0.0800    0.0490 c3        1 MSX      0.119100
      3 C           1.8380   -0.0020    1.5520 c3        1 MSX      0.118100
      4 O           3.2280    0.1780    1.7750 oh        1 MSX     -0.582800
      5 C5          2.0000   -1.1810   -0.6930 c3        1 MSX      0.096100
      6 O2          1.4760   -1.0700   -2.0070 oh        1 MSX     -0.611800
      7 C3          1.4880   -2.4350    0.0180 c3        1 MSX      0.179200
      8 S1          2.2320   -3.8660   -0.7470 ss        1 MSX     -0.277200
      9 C4          1.2790   -5.1890   -0.1010 c3        1 MSX     -0.037000
     10 O1          1.9000   -2.4590    1.3740 os        1 MSX     -0.374600
     11 C1          1.4730   -1.3640    2.1750 c3        1 MSX      0.157100
     12 C2         -0.0150   -1.3960    2.4850 c3        1 MSX     -0.026300
     13 S          -0.3680   -2.7580    3.5610 sh        1 MSX     -0.358900
     14 H3         -0.0890    0.1890   -1.0110 ho        1 MSX      0.429000
     15 H6          2.0480    0.9720   -0.3990 h1        1 MSX      0.049700
     16 H           1.2620    0.8120    2.0770 h1        1 MSX      0.059700
     17 H5          3.1260   -1.1920   -0.7210 h1        1 MSX      0.080700
     18 HA          3.4500    1.0640    1.4620 ho        1 MSX      0.404000
     19 H1          2.0780   -1.5080    3.1220 h1        1 MSX      0.115700
     20 H2          1.6550   -1.9090   -2.4540 ho        1 MSX      0.428000
     21 HB          0.3700   -2.4890   -0.0520 h2        1 MSX      0.071700
     22 H41C        1.7700   -6.1240   -0.4570 h1        1 MSX      0.072700
     23 H42C        0.2290   -5.1620   -0.4690 h1        1 MSX      0.072700
     24 H43C        1.2700   -5.1790    1.0120 h1        1 MSX      0.072700
     25 H21C       -0.3070   -0.4400    2.9860 h1        1 MSX      0.075200
     26 H22C       -0.6040   -1.4710    1.5380 h1        1 MSX      0.075200
     27 HS         -1.6230   -2.4560    3.8440 hs        1 MSX      0.197800
@<TRIPOS>BOND
     1    1    2 1   
     2    1   14 1   
     3    2    3 1   
     4    2    5 1   
     5    2   15 1   
     6    3    4 1   
     7    3   11 1   
     8    3   16 1   
     9    4   18 1   
    10    5    6 1   
    11    5    7 1   
    12    5   17 1   
    13    6   20 1   
    14    7    8 1   
    15    7   10 1   
    16    7   21 1   
    17    8    9 1   
    18    9   22 1   
    19    9   23 1   
    20    9   24 1   
    21   10   11 1   
    22   11   12 1   
    23   11   19 1   
    24   12   13 1   
    25   12   25 1   
    26   12   26 1   
    27   13   27 1   
@<TRIPOS>SUBSTRUCTURE
     1 MSX         1 TEMP              0 ****  ****    0 ROOT
