@<TRIPOS>MOLECULE
MSY
   29    30     1     0     0
SMALL
bcc


@<TRIPOS>ATOM
      1 N           0.4390   -0.4500    0.2290 n3        1 MSY     -0.961000
      2 S           1.9580   -0.1260   -0.0490 s6        1 MSY      2.859000
      3 O1          2.6640    0.0640    1.1430 o         1 MSY     -0.901000
      4 O2          2.4630   -0.9190   -1.0840 o         1 MSY     -0.901000
      5 CA1         1.8890    1.4940   -0.7540 c2        1 MSY     -0.849000
      6 CA2         1.7840    1.6580   -2.1100 c2        1 MSY      0.121000
      7 CA3         1.7040    3.0130   -2.7360 c3        1 MSY      0.002000
      8 CA4         2.0260    4.1350   -1.8030 c2        1 MSY      0.099000
      9 CA5         2.1380    3.9170   -0.4530 c2        1 MSY     -0.231000
     10 CA6         2.0860    2.6180    0.0780 c2        1 MSY      0.211000
     11 NB1         2.3270    3.1640   -4.0370 n         1 MSY     -0.291000
     12 NB2         1.9690    2.3330   -5.0700 n2        1 MSY     -0.046000
     13 CP3         2.9220    2.3600   -5.9900 c2        1 MSY     -0.049000
     14 CP4         4.1110    3.2260   -5.5820 c3        1 MSY     -0.188000
     15 CP5         3.6750    3.6770   -4.1920 c2        1 MSY      0.285000
     16 OPY         4.2310    4.3640   -3.3390 o         1 MSY     -0.279000
     17 HN          2.2460    2.4610    1.1690 ha        1 MSY      0.209000
     18 HNA        -0.0180   -0.2750    1.0940 hn        1 MSY      0.267500
     19 HA2         1.7180    0.7770   -2.7860 ha        1 MSY      0.211000
     20 HA4         0.5560    3.1320   -2.9090 h1        1 MSY      0.228000
     21 HA5         2.1330    5.1500   -2.2360 ha        1 MSY      0.208000
     22 HA6         2.3210    4.7700    0.2300 ha        1 MSY      0.202000
     23 HME         3.8380    1.0580   -7.3990 hc        1 MSY      0.120333
     24 HMEA        2.8790    2.4290   -8.1140 hc        1 MSY      0.120333
     25 HMEB        2.0200    0.9920   -7.4060 hc        1 MSY      0.120333
     26 HP4         4.2420    4.1090   -6.2570 hc        1 MSY      0.173000
     27 HP4A        5.0640    2.6430   -5.5390 hc        1 MSY      0.173000
     28 CME         2.9050    1.6670   -7.2930 c3        1 MSY     -0.182000
     29 HN3        -0.1470   -0.9500   -0.3990 hn        1 MSY      0.267500
@<TRIPOS>BOND
     1    1    2 1   
     2    1   18 1   
     3    1   29 1   
     4    2    3 1   
     5    2    4 1   
     6    2    5 1   
     7    5    6 1   
     8    5   10 1   
     9    6    7 1   
    10    6   19 1   
    11    7    8 1   
    12    7   11 1   
    13    7   20 1   
    14    8    9 1   
    15    8   21 1   
    16    9   10 1   
    17    9   22 1   
    18   10   17 1   
    19   11   12 1   
    20   11   15 1   
    21   12   13 1   
    22   13   14 1   
    23   13   28 1   
    24   14   15 1   
    25   14   26 1   
    26   14   27 1   
    27   15   16 1   
    28   23   28 1   
    29   24   28 1   
    30   25   28 1   
@<TRIPOS>SUBSTRUCTURE
     1 MSY         1 TEMP              0 ****  ****    0 ROOT
