@<TRIPOS>MOLECULE
MSY
   29    29     1     0     0
SMALL
bcc


@<TRIPOS>ATOM
      1 N           0.0120    0.4020   -0.8400 nz        1 MSY     -0.504000
      2 S           1.6340    0.4320    0.1670 s6        1 MSY      2.772000
      3 O1          1.1330    0.6300    1.4390 o         1 MSY     -0.847500
      4 O2          2.1500   -0.7990   -0.1820 o         1 MSY     -0.847500
      5 CA1         2.3110    1.7290   -0.5520 c2        1 MSY     -0.740000
      6 CA2         2.3970    1.6370   -2.0030 c2        1 MSY     -0.316000
      7 CA3         2.3880    2.7400   -2.7930 c2        1 MSY      0.108000
      8 CA4         4.5910    4.1290    0.9730 c1        1 MSY      0.038000
      9 CA5         3.2940    3.8190    0.6900 c2        1 MSY     -0.062000
     10 CA6         2.7730    2.7270    0.1620 c1        1 MSY     -0.129000
     11 NB1         2.4420    2.7610   -4.1770 n         1 MSY     -0.260000
     12 NB2         2.5950    1.6470   -4.9610 n2        1 MSY     -0.028000
     13 CP3         2.7930    2.0230   -6.2150 c2        1 MSY     -0.071000
     14 CP4         2.8030    3.5400   -6.3810 c3        1 MSY     -0.191000
     15 CP5         2.5680    3.9910   -4.9440 c2        1 MSY      0.294000
     16 OPY         2.4730    5.1120   -4.4550 o         1 MSY     -0.263000
     17 HN          0.0500    1.0500   -1.6250 hn        1 MSY      0.253000
     18 HNA        -0.1500   -0.5300   -1.2170 hn        1 MSY      0.253000
     19 HA2         2.5690    0.6280   -2.4170 ha        1 MSY      0.169000
     20 HA4         2.3040    3.7630   -2.3650 h4        1 MSY      0.168000
     21 HA5         5.3070    4.0110    1.7740 ha        1 MSY      0.206000
     22 HA6         2.6090    4.7010    0.8550 ha        1 MSY      0.248000
     23 HME         3.9840    1.3550   -7.8430 hc        1 MSY      0.113667
     24 HMEA        2.1890    1.3390   -8.1360 hc        1 MSY      0.113667
     25 HMEB        2.9540    0.0550   -7.1010 hc        1 MSY      0.113667
     26 HP4         1.9810    3.8970   -7.0490 hc        1 MSY      0.165500
     27 HP4A        3.7850    3.9150   -6.7620 hc        1 MSY      0.165500
     28 CME         2.9880    1.1370   -7.3790 c3        1 MSY     -0.176000
     29 HN3        -0.7840    0.6480   -0.2570 hn        1 MSY      0.253000
@<TRIPOS>BOND
     1    1    2 1   
     2    1   17 1   
     3    1   18 1   
     4    1   29 1   
     5    2    3 1   
     6    2    4 1   
     7    2    5 1   
     8    5    6 1   
     9    5   10 1   
    10    6    7 1   
    11    6   19 1   
    12    7   11 1   
    13    7   20 1   
    14    8    9 1   
    15    8   21 1   
    16    9   10 1   
    17    9   22 1   
    18   11   12 1   
    19   11   15 1   
    20   12   13 1   
    21   13   14 1   
    22   13   28 1   
    23   14   15 1   
    24   14   26 1   
    25   14   27 1   
    26   15   16 1   
    27   23   28 1   
    28   24   28 1   
    29   25   28 1   
@<TRIPOS>SUBSTRUCTURE
     1 MSY         1 TEMP              0 ****  ****    0 ROOT
