@<TRIPOS>MOLECULE
MSY
   29    30     1     0     0
SMALL
bcc


@<TRIPOS>ATOM
      1 N          -0.4460    0.4290    0.2630 n3        1 MSY     -0.962000
      2 S           0.8280   -0.1400   -0.4750 s6        1 MSY      2.859000
      3 O1          1.6690   -0.8140    0.4160 o         1 MSY     -0.900500
      4 O2          0.4940   -0.6730   -1.7230 o         1 MSY     -0.900500
      5 CA1         1.7330    1.3270   -0.8730 c2        1 MSY     -0.850000
      6 CA2         1.5920    1.9180   -2.1000 c2        1 MSY      0.137000
      7 CA3         2.3230    3.1680   -2.4700 c3        1 MSY      0.002000
      8 CA4         3.4040    3.5370   -1.5050 c2        1 MSY      0.097000
      9 CA5         3.5230    2.9050   -0.2940 c2        1 MSY     -0.237000
     10 CA6         2.7120    1.8020    0.0260 c2        1 MSY      0.221000
     11 NB1         2.7350    3.2770   -3.8500 n         1 MSY     -0.305000
     12 NB2         3.6430    2.3980   -4.3840 n2        1 MSY     -0.041000
     13 CP3         3.5760    2.4710   -5.7050 c2        1 MSY     -0.055000
     14 CP4         2.4950    3.4370   -6.1890 c3        1 MSY     -0.186000
     15 CP5         1.8980    3.8930   -4.8620 c2        1 MSY      0.287000
     16 OPY         0.9540    4.6250   -4.5850 o         1 MSY     -0.270000
     17 HN          2.8720    1.2620    0.9870 ha        1 MSY      0.207000
     18 HNA        -1.3090    0.6280   -0.1900 hn        1 MSY      0.267500
     19 HA2         0.8970    1.4900   -2.8560 ha        1 MSY      0.205000
     20 HA4         1.5200    4.0030   -2.3300 h1        1 MSY      0.234000
     21 HA5         4.0810    4.3650   -1.7940 ha        1 MSY      0.200000
     22 HA6         4.2950    3.2310    0.4290 ha        1 MSY      0.199000
     23 HME         5.0400    2.4750   -7.2470 hc        1 MSY      0.119667
     24 HMEA        3.7640    1.1850   -7.3880 hc        1 MSY      0.119667
     25 HMEB        5.1050    1.0110   -6.1710 hc        1 MSY      0.119667
     26 HP4         1.7290    2.9300   -6.8250 hc        1 MSY      0.172000
     27 HP4A        2.9270    4.3080   -6.7440 hc        1 MSY      0.172000
     28 CME         4.4200    1.7410   -6.6700 c3        1 MSY     -0.181000
     29 HN3        -0.5200    0.5300    1.2480 hn        1 MSY      0.267500
@<TRIPOS>BOND
     1    1    2 1   
     2    1   18 1   
     3    1   29 1   
     4    2    3 1   
     5    2    4 1   
     6    2    5 1   
     7    5    6 1   
     8    5   10 1   
     9    6    7 1   
    10    6   19 1   
    11    7    8 1   
    12    7   11 1   
    13    7   20 1   
    14    8    9 1   
    15    8   21 1   
    16    9   10 1   
    17    9   22 1   
    18   10   17 1   
    19   11   12 1   
    20   11   15 1   
    21   12   13 1   
    22   13   14 1   
    23   13   28 1   
    24   14   15 1   
    25   14   26 1   
    26   14   27 1   
    27   15   16 1   
    28   23   28 1   
    29   24   28 1   
    30   25   28 1   
@<TRIPOS>SUBSTRUCTURE
     1 MSY         1 TEMP              0 ****  ****    0 ROOT
