@<TRIPOS>MOLECULE
MSY
   28    29     1     0     0
SMALL
bcc


@<TRIPOS>ATOM
      1 N           3.4140   -1.1170    1.2150 n3        1 MSY     -1.026700
      2 S           3.1070   -0.6020   -0.2700 sy        1 MSY      1.526200
      3 O1          4.1910    0.1830   -0.7210 o         1 MSY     -0.657300
      4 O2          2.7160   -1.6960   -1.0690 o         1 MSY     -0.657300
      5 CA1         1.7680    0.4130   -0.0550 ca        1 MSY     -0.366500
      6 CA2         0.4770   -0.1190   -0.0580 ca        1 MSY     -0.034000
      7 CA3        -0.6470    0.7150    0.1160 ca        1 MSY      0.058600
      8 CA4        -0.4490    2.1030    0.2810 ca        1 MSY     -0.087000
      9 CA5         0.8420    2.6260    0.2620 ca        1 MSY     -0.139000
     10 CA6         1.9430    1.7910    0.0990 ca        1 MSY     -0.038000
     11 NB1        -1.9640    0.1820    0.1440 n         1 MSY     -0.173000
     12 NB2        -2.1960   -1.1450    0.3600 n2        1 MSY     -0.415300
     13 CP3        -3.4770   -1.4110    0.1480 c2        1 MSY      0.316300
     14 CP4        -4.2590   -0.1800   -0.2860 c3        1 MSY     -0.238700
     15 CP5        -3.1490    0.8760   -0.2850 c         1 MSY      0.685500
     16 OPY        -3.2340    2.0720   -0.5590 o         1 MSY     -0.571500
     17 HN          3.0080   -1.9290    1.6070 hn        1 MSY      0.447800
     18 HNA         4.0390   -0.6650    1.8330 hn        1 MSY      0.447800
     19 HA2         0.3570   -1.2070   -0.2150 ha        1 MSY      0.168000
     20 HA4        -1.3080    2.7840    0.4090 ha        1 MSY      0.167000
     21 HA5         0.9860    3.7110    0.3770 ha        1 MSY      0.145000
     22 HA6         2.9620    2.2160    0.0710 ha        1 MSY      0.157000
     23 HME        -3.4230   -3.5240    0.6030 hc        1 MSY      0.061367
     24 HMEA       -4.9420   -2.6430    1.0730 hc        1 MSY      0.061367
     25 HMEB       -4.6070   -3.0110   -0.6760 hc        1 MSY      0.061367
     26 HP4        -4.6970   -0.2950   -1.3060 hc        1 MSY      0.109700
     27 HP4A       -5.0600    0.0910    0.4420 hc        1 MSY      0.109700
     28 CME        -4.1380   -2.7210    0.2980 c3        1 MSY     -0.118400
@<TRIPOS>BOND
     1    1    2 1   
     2    1   17 1   
     3    1   18 1   
     4    2    3 2   
     5    2    4 2   
     6    2    5 1   
     7    5    6 ar  
     8    5   10 ar  
     9    6    7 ar  
    10    6   19 1   
    11    7    8 ar  
    12    7   11 1   
    13    8    9 ar  
    14    8   20 1   
    15    9   10 ar  
    16    9   21 1   
    17   10   22 1   
    18   11   12 1   
    19   11   15 1   
    20   12   13 2   
    21   13   14 1   
    22   13   28 1   
    23   14   15 1   
    24   14   26 1   
    25   14   27 1   
    26   15   16 2   
    27   23   28 1   
    28   24   28 1   
    29   25   28 1   
@<TRIPOS>SUBSTRUCTURE
     1 MSY         1 TEMP              0 ****  ****    0 ROOT
