@<TRIPOS>MOLECULE
MSY
   28    26     1     0     0
SMALL
bcc


@<TRIPOS>ATOM
      1 N          -3.9640   -2.1540    2.1640 n3        1 MSY     -0.953000
      2 S          -2.4480   -1.7400    2.6430 s4        1 MSY      2.081800
      3 O1         -2.4260   -1.3530    4.0260 o         1 MSY     -0.544900
      4 O2         -1.5760   -2.8820    2.6580 o         1 MSY     -0.544900
      5 CA1        -1.8060   -0.4520    1.6040 c1        1 MSY     -0.804000
      6 CA2        -0.6990   -0.6940    0.8050 c1        1 MSY     -0.040000
      7 CA3        -0.1830    0.3190    0.0110 c1        1 MSY      0.069000
      8 CA4        -0.7750    1.5730    0.0160 c1        1 MSY     -0.079000
      9 CA5        -1.8820    1.8140    0.8150 c1        1 MSY     -0.143000
     10 CA6        -2.3970    0.8020    1.6090 c2        1 MSY     -0.036000
     11 NB1         0.9150    0.0570   -0.8470 n         1 MSY     -0.251000
     12 NB2         2.2440    0.2000   -0.5250 n2        1 MSY      0.009000
     13 CME         4.3490    1.0080   -1.4580 c3        1 MSY     -0.160000
     14 CP3         3.0520    0.2340   -1.5460 c2        1 MSY     -0.126000
     15 CP4         2.4230    0.0430   -2.8030 c3        1 MSY     -0.191000
     16 CP5         0.8900    0.0890   -2.3770 c2        1 MSY      0.295000
     17 OPY        -0.0560   -0.2000   -3.0820 o         1 MSY     -0.301000
     18 HN         -4.6780   -1.9880    2.7110 hn        1 MSY      0.245000
     19 HNA        -4.0950   -2.5470    1.3490 hn        1 MSY      0.245000
     20 HA2        -0.2830   -1.5770    0.8020 ha        1 MSY      0.169000
     21 HA4        -0.4120    2.2860   -0.5440 ha        1 MSY      0.155000
     22 HA5        -2.2980    2.6970    0.8180 ha        1 MSY      0.143000
     23 HA6        -3.1760    0.9720    2.1710 ha        1 MSY      0.162000
     24 HME         4.1730    1.9600   -1.6090 hc        1 MSY      0.100333
     25 HMEA        4.9720    0.6790   -2.1400 hc        1 MSY      0.100333
     26 HMEB        4.7430    0.8860   -0.5690 hc        1 MSY      0.100333
     27 HP4         2.7940   -0.7600   -3.2260 hc        1 MSY      0.149500
     28 HP4A        2.5970    0.7310   -3.4760 hc        1 MSY      0.149500
@<TRIPOS>BOND
     1    1    2 1   
     2    1   18 1   
     3    1   19 1   
     4    2    3 1   
     5    2    4 1   
     6    5    6 1   
     7    5   10 1   
     8    6   20 1   
     9    7    8 1   
    10    7   11 1   
    11    8   21 1   
    12    9   10 1   
    13    9   22 1   
    14   10   23 1   
    15   11   12 1   
    16   11   16 1   
    17   12   14 1   
    18   13   14 1   
    19   13   24 1   
    20   13   25 1   
    21   13   26 1   
    22   14   15 1   
    23   15   16 1   
    24   15   27 1   
    25   15   28 1   
    26   16   17 1   
@<TRIPOS>SUBSTRUCTURE
     1 MSY         1 TEMP              0 ****  ****    0 ROOT
