@<TRIPOS>MOLECULE
MSZ
   31    32     1     0     0
SMALL
bcc


@<TRIPOS>ATOM
      1 C16        -0.1580   -0.2260    0.0600 ca        1 MSZ     -0.167000
      2 C13         1.2330   -0.0780   -0.0670 ca        1 MSZ      0.157100
      3 C14         2.0480   -0.0010    1.0820 ca        1 MSZ     -0.137000
      4 C15         1.4510   -0.0660    2.3380 ca        1 MSZ     -0.149300
      5 C18         0.0670   -0.2030    2.4740 ca        1 MSZ     -0.147000
      6 C17        -0.7250   -0.2860    1.3300 ca        1 MSZ     -0.108000
      7 C19         2.3140    0.0380    3.5860 c3        1 MSZ      0.687200
      8 F22         1.8650   -0.6910    4.6640 f         1 MSZ     -0.249967
      9 F21         3.6170   -0.3750    3.4380 f         1 MSZ     -0.249967
     10 O12         1.9150   -0.0200   -1.2540 os        1 MSZ     -0.315900
     11 C8          1.1280    0.2630   -2.4400 c3        1 MSZ      0.040400
     12 C9          0.3630   -1.0140   -2.9280 c         1 MSZ      0.910600
     13 O10        -0.8950   -0.9140   -2.9360 o         1 MSZ     -0.810300
     14 O11         1.0220   -2.0290   -3.2650 o         1 MSZ     -0.810300
     15 C2          3.9320    1.6840   -5.3520 ca        1 MSZ      0.012400
     16 C4          2.9700    2.5570   -4.8390 ca        1 MSZ     -0.144500
     17 C3          2.0640    2.0910   -3.8860 ca        1 MSZ     -0.096000
     18 C7          2.1110    0.7620   -3.4520 ca        1 MSZ     -0.046300
     19 C6          3.0740   -0.1060   -3.9850 ca        1 MSZ     -0.096000
     20 C5          3.9870    0.3520   -4.9320 ca        1 MSZ     -0.144500
     21 H1         -0.7920   -0.3290   -0.8450 ha        1 MSZ      0.209000
     22 H2          3.1380    0.0950    0.9720 ha        1 MSZ      0.155000
     23 H3         -0.3840   -0.2560    3.4750 ha        1 MSZ      0.131000
     24 H4         -1.8130   -0.4090    1.4300 ha        1 MSZ      0.131000
     25 H5          0.3790    1.0650   -2.1920 h1        1 MSZ      0.046700
     26 H7          2.9260    3.6010   -5.1790 ha        1 MSZ      0.132000
     27 H8          1.3050    2.7750   -3.4800 ha        1 MSZ      0.161000
     28 H9          3.0630   -1.1630   -3.6580 ha        1 MSZ      0.161000
     29 H10         4.7380   -0.3330   -5.3490 ha        1 MSZ      0.132000
     30 F20         2.4360    1.3120    4.0930 f         1 MSZ     -0.249967
     31 Cl          5.0520    2.2540   -6.5110 cl        1 MSZ     -0.143400
@<TRIPOS>BOND
     1    1    2 ar  
     2    1    6 ar  
     3    1   21 1   
     4    2    3 ar  
     5    2   10 1   
     6    3    4 ar  
     7    3   22 1   
     8    4    5 ar  
     9    4    7 1   
    10    5    6 ar  
    11    5   23 1   
    12    6   24 1   
    13    7    8 1   
    14    7    9 1   
    15    7   30 1   
    16   10   11 1   
    17   11   12 1   
    18   11   18 1   
    19   11   25 1   
    20   12   13 1   
    21   12   14 1   
    22   15   16 ar  
    23   15   20 ar  
    24   15   31 1   
    25   16   17 ar  
    26   16   26 1   
    27   17   18 ar  
    28   17   27 1   
    29   18   19 ar  
    30   19   20 ar  
    31   19   28 1   
    32   20   29 1   
@<TRIPOS>SUBSTRUCTURE
     1 MSZ         1 TEMP              0 ****  ****    0 ROOT
