@<TRIPOS>MOLECULE
MT0
   19    16     1     0     0
SMALL
bcc


@<TRIPOS>ATOM
      1 C1         -2.7570    0.0060    0.8280 c3        1 MT0     -0.176000
      2 C2         -1.2440    0.0060    0.8280 c2        1 MT0     -0.039000
      3 N3         -1.0040    0.0060    2.1650 n1        1 MT0     -0.053000
      4 N4          0.2950    0.0060    2.6340 n1        1 MT0     -0.041000
      5 C5          1.3360    0.0060    1.7600 c1        1 MT0     -0.052000
      6 CL6         2.5310   -0.1020    3.0250 cl        1 MT0      0.035000
      7 C7          1.0930    0.0060    0.3880 c2        1 MT0     -0.053000
      8 C8          2.1730    0.0060   -0.5220 c1        1 MT0     -0.103000
      9 C9          1.9290    0.0060   -1.8850 c1        1 MT0     -0.113000
     10 C10         0.6290    0.0060   -2.3550 c1        1 MT0     -0.113000
     11 C11        -0.4290    0.0060   -1.4630 c1        1 MT0     -0.111000
     12 C12        -0.1810    0.0060   -0.0720 c2        1 MT0     -0.060000
     13 H11C       -3.0830    0.8020    0.3660 hc        1 MT0      0.100000
     14 H12C       -3.0830    0.0070    1.7480 hc        1 MT0      0.100000
     15 H13C       -3.0830   -0.7920    0.3690 hc        1 MT0      0.100000
     16 H8          3.0910    0.0060   -0.1910 ha        1 MT0      0.153000
     17 H9          2.6760    0.0060   -2.5140 ha        1 MT0      0.141500
     18 H10         0.4580    0.0060   -3.3160 ha        1 MT0      0.141500
     19 H11        -1.3470    0.0060   -1.7950 ha        1 MT0      0.144000
@<TRIPOS>BOND
     1    1    2 1   
     2    1   13 1   
     3    1   14 1   
     4    1   15 1   
     5    2    3 1   
     6    2   12 1   
     7    4    5 1   
     8    5    7 1   
     9    7    8 1   
    10    7   12 1   
    11    8   16 1   
    12    9   10 1   
    13    9   17 1   
    14   10   18 1   
    15   11   12 1   
    16   11   19 1   
@<TRIPOS>SUBSTRUCTURE
     1 MT0         1 TEMP              0 ****  ****    0 ROOT
