@<TRIPOS>MOLECULE
MT0
   19    20     1     0     0
SMALL
bcc


@<TRIPOS>ATOM
      1 C1          2.6340    2.0800   -0.0250 c3        1 MT0     -0.152400
      2 C2          1.2700    1.4780   -0.0330 ca        1 MT0      0.383600
      3 N3          0.1820    2.2760   -0.0690 nb        1 MT0     -0.316000
      4 N4         -1.0180    1.8040   -0.0770 nb        1 MT0     -0.304000
      5 C5         -1.2520    0.4750   -0.0510 ca        1 MT0      0.442300
      6 CL6        -2.8690   -0.0680   -0.0640 cl        1 MT0     -0.131000
      7 C7         -0.1830   -0.4900   -0.0110 ca        1 MT0     -0.118300
      8 C8         -0.3700   -1.8930    0.0190 ca        1 MT0     -0.103000
      9 C9          0.7190   -2.7330    0.0560 ca        1 MT0     -0.114000
     10 C10         2.0310   -2.2080    0.0650 ca        1 MT0     -0.112000
     11 C11         2.2390   -0.8480    0.0370 ca        1 MT0     -0.111000
     12 C12         1.1360    0.0410   -0.0020 ca        1 MT0     -0.125300
     13 H11C        3.1750    1.7640    0.9020 hc        1 MT0      0.060700
     14 H12C        3.2040    1.7220   -0.9180 hc        1 MT0      0.060700
     15 H13C        2.6010    3.1980   -0.0510 hc        1 MT0      0.060700
     16 H8         -1.3930   -2.3010    0.0110 ha        1 MT0      0.153000
     17 H9          0.5790   -3.8250    0.0790 ha        1 MT0      0.142000
     18 H10         2.8860   -2.9020    0.0950 ha        1 MT0      0.141000
     19 H11         3.2590   -0.4350    0.0440 ha        1 MT0      0.144000
@<TRIPOS>BOND
     1    1    2 1   
     2    1   13 1   
     3    1   14 1   
     4    1   15 1   
     5    2    3 ar  
     6    2   12 ar  
     7    3    4 ar  
     8    4    5 ar  
     9    5    6 1   
    10    5    7 ar  
    11    7    8 ar  
    12    7   12 ar  
    13    8    9 ar  
    14    8   16 1   
    15    9   10 ar  
    16    9   17 1   
    17   10   11 ar  
    18   10   18 1   
    19   11   12 ar  
    20   11   19 1   
@<TRIPOS>SUBSTRUCTURE
     1 MT0         1 TEMP              0 ****  ****    0 ROOT
