@<TRIPOS>MOLECULE
MT1
   58    57     1     0     0
SMALL
bcc


@<TRIPOS>ATOM
      1 N1          1.1280   -2.7790   -0.0980 n3        1 MT1     -0.298000
      2 C2          1.8560   -3.6770    0.7080 c2        1 MT1      0.114000
      3 NA2         2.6060   -4.7680   -0.0210 n4        1 MT1     -0.047000
      4 N3          1.9820   -3.6440    1.9960 n2        1 MT1     -0.219000
      5 C4          1.3040   -2.6060    2.8010 c3        1 MT1      0.138000
      6 NA4         2.1770   -1.7300    3.5430 n3        1 MT1     -0.339000
      7 C4A         0.2790   -1.7940    1.9730 c2        1 MT1     -0.119000
      8 N5         -0.4780   -0.8820    2.7230 n2        1 MT1     -0.121000
      9 C6         -1.7620   -0.8460    2.7180 c2        1 MT1     -0.054000
     10 C7         -1.4470   -0.6130   -0.8560 c1        1 MT1      0.286000
     11 N8         -0.6960   -1.2390   -0.1760 n2        1 MT1     -0.365000
     12 C8A         0.2070   -1.9380    0.5980 c2        1 MT1      0.187000
     13 C9         -2.5880    0.0940    3.5570 c3        1 MT1     -0.103000
     14 N10        -1.9210    1.0160    4.5250 n4        1 MT1      0.025000
     15 CM         -0.9550    0.3390    5.4270 c3        1 MT1     -0.186000
     16 C11        -1.8630    5.4010    5.4480 c2        1 MT1     -0.015000
     17 C12        -2.1350    4.6850    4.2200 c3        1 MT1     -0.035000
     18 C13        -1.7000    3.3850    4.0500 c1        1 MT1     -0.340000
     19 C14        -1.2870    2.1840    3.8390 c2        1 MT1     -0.078000
     20 C15        -0.3170    4.4700    7.3010 c1        1 MT1     -0.030000
     21 C16        -1.0400    4.8970    6.4360 c1        1 MT1     -0.206000
     22 O          -2.7320    7.4890    4.6860 o         1 MT1     -0.353000
     23 N          -3.3720   10.2890    3.7380 n3        1 MT1     -0.145000
     24 CA         -3.2170   10.8980    2.6010 c2        1 MT1      0.148000
     25 CT         -6.4410   12.9550    4.2310 c1        1 MT1      0.454000
     26 O1         -5.5440   12.2220    3.9090 o         1 MT1     -0.225500
     27 O2         -7.3210   13.6730    4.5450 o         1 MT1     -0.225500
     28 CB         -2.1340   10.7200    1.5990 c3        1 MT1     -0.206000
     29 CG         -1.0300    9.7360    1.8170 cx        1 MT1     -0.022000
     30 CD         -1.2160    8.3260    2.1330 cu        1 MT1      0.304000
     31 OE1        -1.4260    7.1400    2.0900 o         1 MT1     -0.221000
     32 OE2        -0.8530    9.1610    3.1700 os        1 MT1     -0.279000
     33 H          -2.5410    7.0720    6.6930 h4        1 MT1      0.154000
     34 H1          0.9790   -2.9540   -1.0690 hn        1 MT1      0.269000
     35 HA21        1.9480   -5.3670   -0.5330 hn        1 MT1      0.284333
     36 HA22        3.1230   -5.3460    0.6630 hn        1 MT1      0.284333
     37 HA41        2.7830   -2.2260    4.1670 hn        1 MT1      0.190500
     38 HA42        2.6870   -1.0900    2.9700 hn        1 MT1      0.190500
     39 H7         -2.4270   -1.5070    2.1140 h4        1 MT1      0.154000
     40 H91        -3.1870    0.7370    2.8430 hx        1 MT1      0.157000
     41 H92        -3.3020   -0.5560    4.1510 hx        1 MT1      0.157000
     42 HM1        -2.6830    1.3830    5.1190 hn        1 MT1      0.235000
     43 HM2        -0.8390    0.9600    6.3560 hx        1 MT1      0.142667
     44 HM3        -1.3420   -0.6790    5.6990 hx        1 MT1      0.142667
     45 H12        -1.5500    5.4000    3.4770 hc        1 MT1      0.255500
     46 H13        -3.2080    4.8220    3.8630 hc        1 MT1      0.255500
     47 H15        -0.4560    1.8540    3.1880 hx        1 MT1      0.198000
     48 H16         0.3200    4.1140    8.0810 ha        1 MT1      0.260000
     49 HA         -4.1520   10.5230    4.3380 hn        1 MT1      0.301500
     50 HB1        -3.9830   11.6750    2.3240 h4        1 MT1      0.228000
     51 HB2        -1.6650   11.7480    1.4710 hc        1 MT1      0.191500
     52 HG1        -2.6280   10.4790    0.6060 hc        1 MT1      0.191500
     53 HG2        -0.0670   10.0520    1.3480 h1        1 MT1      0.203000
     54 HA23        3.2780   -4.3470   -0.6760 hn        1 MT1      0.284333
     55 HA43        0.7260   -3.2250    3.5690 h2        1 MT1      0.160000
     56 H101        0.0490    0.2410    4.9330 hx        1 MT1      0.142667
     57 H2         -2.7380    9.5780    4.0850 hn        1 MT1      0.301500
     58 C          -2.4150    6.7550    5.6330 c2        1 MT1      0.238000
@<TRIPOS>BOND
     1    1    2 1   
     2    1   12 1   
     3    1   34 1   
     4    2    3 1   
     5    2    4 1   
     6    3   35 1   
     7    3   36 1   
     8    3   54 1   
     9    4    5 1   
    10    5    6 1   
    11    5    7 1   
    12    5   55 1   
    13    6   37 1   
    14    6   38 1   
    15    7    8 1   
    16    7   12 1   
    17    8    9 1   
    18    9   13 1   
    19    9   39 1   
    20   10   11 1   
    21   11   12 1   
    22   13   14 1   
    23   13   40 1   
    24   13   41 1   
    25   14   15 1   
    26   14   19 1   
    27   14   42 1   
    28   15   43 1   
    29   15   44 1   
    30   15   56 1   
    31   16   17 1   
    32   16   21 1   
    33   16   58 1   
    34   17   18 1   
    35   17   45 1   
    36   17   46 1   
    37   18   19 1   
    38   19   47 1   
    39   20   21 1   
    40   20   48 1   
    41   22   58 1   
    42   23   24 1   
    43   23   49 1   
    44   23   57 1   
    45   24   28 1   
    46   24   50 1   
    47   25   26 1   
    48   25   27 1   
    49   28   29 1   
    50   28   51 1   
    51   28   52 1   
    52   29   30 1   
    53   29   32 1   
    54   29   53 1   
    55   30   31 1   
    56   30   32 1   
    57   33   58 1   
@<TRIPOS>SUBSTRUCTURE
     1 MT1         1 TEMP              0 ****  ****    0 ROOT
