@<TRIPOS>MOLECULE
MT2
   26    24     1     0     0
SMALL
bcc


@<TRIPOS>ATOM
      1 O          -2.9310   -2.4390   -2.4520 o         1 MT2     -0.567000
      2 C          -1.6720   -2.4390   -2.4520 c1        1 MT2      0.285000
      3 OXT        -1.0430   -2.4390   -3.5420 os        1 MT2     -0.364000
      4 CA         -0.9170   -2.4390   -1.1430 c3        1 MT2     -0.084000
      5 N          -0.0790   -3.5870   -1.0790 n3        1 MT2     -0.314000
      6 CB         -0.0690   -1.1910   -1.0510 c3        1 MT2     -0.135000
      7 CG         -0.3130   -0.5130    0.2790 c3        1 MT2     -0.591000
      8 SD          0.7690    0.8820    0.4390 s4        1 MT2      1.542000
      9 CE          1.9830    0.5490    1.6880 c3        1 MT2     -0.697000
     10 C4+         0.7590    3.4740    1.1630 c3        1 MT2     -0.187000
     11 C5+        -0.1730    2.3120    0.8970 c3        1 MT2     -0.631000
     12 HA         -1.5510   -2.4570   -0.4010 h1        1 MT2      0.114000
     13 HN         -0.1510   -3.9710   -0.2550 hn        1 MT2      0.154500
     14 HNA        -0.3360   -4.1870   -1.7170 hn        1 MT2      0.154500
     15 HB         -0.3070   -0.5820   -1.7750 hc        1 MT2      0.101000
     16 HBA         0.8740   -1.4320   -1.1240 hc        1 MT2      0.101000
     17 HG         -1.2410   -0.2120    0.3260 h1        1 MT2      0.129500
     18 HGA        -0.1390   -1.1440    1.0030 h1        1 MT2      0.129500
     19 HE          2.3830   -0.3260    1.5270 h1        1 MT2      0.126000
     20 HEA         1.5560    0.5560    2.5660 h1        1 MT2      0.126000
     21 HEB         2.6770    1.2350    1.6580 h1        1 MT2      0.126000
     22 H4+         1.3270    3.2660    1.9290 hc        1 MT2      0.082000
     23 H4+A        0.2350    4.2750    1.3550 hc        1 MT2      0.082000
     24 H4+B        1.3160    3.6300    0.3770 hc        1 MT2      0.082000
     25 H5+        -0.6880    2.1180    1.7040 h1        1 MT2      0.117500
     26 H5+A       -0.7830    2.5450    0.1710 h1        1 MT2      0.117500
@<TRIPOS>BOND
     1    1    2 1   
     2    2    4 1   
     3    4    5 1   
     4    4    6 1   
     5    4   12 1   
     6    5   13 1   
     7    5   14 1   
     8    6    7 1   
     9    6   15 1   
    10    6   16 1   
    11    7    8 1   
    12    7   17 1   
    13    7   18 1   
    14    8    9 1   
    15    8   11 1   
    16    9   19 1   
    17    9   20 1   
    18    9   21 1   
    19   10   11 1   
    20   10   22 1   
    21   10   23 1   
    22   10   24 1   
    23   11   25 1   
    24   11   26 1   
@<TRIPOS>SUBSTRUCTURE
     1 MT2         1 TEMP              0 ****  ****    0 ROOT
