@<TRIPOS>MOLECULE
MT3
   61    61     1     0     0
SMALL
bcc


@<TRIPOS>ATOM
      1 N1          0.2890    1.4230    0.5120 n         1 MT3     -0.157000
      2 N3          9.5700   -1.3000   -2.0440 n2        1 MT3     -0.220000
      3 C4         -2.1460   -0.0020    4.6660 c2        1 MT3     -0.534000
      4 C5         -3.2850   -0.5620    4.0350 c1        1 MT3     -0.023000
      5 C6         -3.2160   -1.1920    2.7270 c3        1 MT3     -0.179000
      6 C7          2.3400    1.3850    1.9840 c2        1 MT3     -0.179000
      7 C8          1.6630    1.8210    0.7380 c2        1 MT3      0.317000
      8 C10         1.7840    1.6400    3.1650 c1        1 MT3      0.082000
      9 C13         3.8970   -0.3710    2.7470 ca        1 MT3     -0.150000
     10 C15         4.5890    1.1110    0.9540 ca        1 MT3     -0.102000
     11 C17         9.2630   -1.1520    0.4070 c2        1 MT3     -0.072000
     12 C20        12.0430   -1.5860    0.5190 c2        1 MT3     -0.226000
     13 C21        11.3320   -2.1740   -0.6280 c3        1 MT3     -0.076000
     14 C22         9.9870   -1.5140   -0.8470 c2        1 MT3      0.044000
     15 C24         7.1200   -2.0910   -0.4790 c2        1 MT3     -0.504000
     16 C26         9.4080    0.3860    2.4200 c3        1 MT3      0.027000
     17 C27        14.0360   -2.6710    0.0150 c2        1 MT3     -0.266000
     18 O2         13.3410   -1.8390    0.7560 os        1 MT3      0.102000
     19 C19        11.4120   -0.7330    1.4750 c2        1 MT3     -0.035000
     20 O1         10.2940    1.3100    3.0220 oh        1 MT3     -0.325000
     21 C18        10.0750   -0.5060    1.4250 c2        1 MT3     -0.158000
     22 C23         7.0430   -3.3770   -0.7540 c1        1 MT3      0.274000
     23 C25         7.9470   -1.4560    0.5390 c2        1 MT3      0.081000
     24 C11         6.0930   -0.6140    1.7300 ca        1 MT3      0.034000
     25 C12         5.1280   -1.0420    2.6740 ca        1 MT3      0.089000
     26 F1          5.3870   -2.0760    3.5040 f         1 MT3     -0.084000
     27 C16         5.8150    0.4580    0.8770 ca        1 MT3     -0.154000
     28 C14         3.6260    0.7010    1.8870 ca        1 MT3     -0.013000
     29 O4          2.2140    2.5310   -0.1130 o         1 MT3     -0.284000
     30 C29        -0.5220    2.0590   -0.3190 c1        1 MT3     -0.097000
     31 N2          1.2090    1.7260    4.2440 n2        1 MT3     -0.175000
     32 C9         -0.1630    0.2560    1.1920 c2        1 MT3     -0.076000
     33 C1         -1.8970   -1.2780    2.0280 c2        1 MT3     -0.109000
     34 C2         -1.1900   -2.4170    2.0040 c2        1 MT3     -0.202000
     35 C3         -2.1950    0.5610    5.8640 c1        1 MT3      0.348000
     36 H4         -1.1530   -0.0180    4.1530 ha        1 MT3      0.187000
     37 H5         -3.9560   -0.6360    2.0750 hc        1 MT3      0.144500
     38 H6         -3.6470   -2.2290    2.8660 hc        1 MT3      0.144500
     39 H10         1.2900    2.5200    4.8420 hn        1 MT3      0.230000
     40 H13         3.1490   -0.7050    3.4820 ha        1 MT3      0.155000
     41 H15         4.3750    1.9590    0.2810 ha        1 MT3      0.170000
     42 H21        11.1570   -3.2740   -0.4540 hc        1 MT3      0.112000
     43 H24         6.4580   -1.3930   -1.0400 ha        1 MT3      0.204000
     44 H26        10.6880    1.8340    2.3150 ho        1 MT3      0.197000
     45 H26A        8.5560    0.9350    1.9310 h1        1 MT3      0.098000
     46 H26B        9.0040   -0.2220    3.2790 h1        1 MT3      0.098000
     47 H28         0.6530   -0.3890    1.5710 h4        1 MT3      0.149000
     48 H28A       -2.2630    0.5950    0.9630 ha        1 MT3      0.166000
     49 H27        13.6180   -3.2280   -0.8220 h4        1 MT3      0.162500
     50 H27A       11.9680   -2.0810   -1.5560 hc        1 MT3      0.112000
     51 H27B       15.0840   -2.7340    0.3330 h4        1 MT3      0.162500
     52 H18        12.0360   -0.2740    2.2600 ha        1 MT3      0.155000
     53 H23         8.6660   -0.8820   -2.1200 hn        1 MT3      0.145000
     54 H16         6.5770    0.7860    0.1530 ha        1 MT3      0.152000
     55 H29         1.3710    1.7280   -2.2810 ha        1 MT3      0.001000
     56 H29A       -0.0990    2.9500   -0.8300 ha        1 MT3      0.070000
     57 H29B        0.7930    1.4690   -2.5240 ha        1 MT3      0.001000
     58 H2         -0.2310   -2.5070    1.4790 ha        1 MT3      0.118000
     59 H3         -1.5400   -3.3330    2.4980 ha        1 MT3      0.118000
     60 C28        -1.4640   -0.0630    1.3530 c2        1 MT3     -0.107000
     61 O3          7.3260   -1.2490    1.7760 os        1 MT3     -0.143000
@<TRIPOS>BOND
     1    1    7 1   
     2    1   30 1   
     3    1   32 1   
     4    2   14 1   
     5    2   53 1   
     6    3    4 1   
     7    3   35 1   
     8    3   36 1   
     9    4    5 1   
    10    5   33 1   
    11    5   37 1   
    12    5   38 1   
    13    6    7 1   
    14    6    8 1   
    15    6   28 1   
    16    7   29 1   
    17    8   31 1   
    18    9   25 1   
    19    9   28 1   
    20    9   40 1   
    21   10   27 1   
    22   10   28 1   
    23   10   41 1   
    24   11   14 1   
    25   11   21 1   
    26   11   23 1   
    27   12   13 1   
    28   12   18 1   
    29   12   19 1   
    30   13   14 1   
    31   13   42 1   
    32   13   50 1   
    33   15   22 1   
    34   15   23 1   
    35   15   43 1   
    36   16   20 1   
    37   16   21 1   
    38   16   45 1   
    39   16   46 1   
    40   17   18 1   
    41   17   49 1   
    42   17   51 1   
    43   19   21 1   
    44   19   52 1   
    45   20   44 1   
    46   23   61 1   
    47   24   25 1   
    48   24   27 1   
    49   24   61 1   
    50   25   26 1   
    51   27   54 1   
    52   30   56 1   
    53   31   39 1   
    54   32   47 1   
    55   32   60 1   
    56   33   34 1   
    57   33   60 1   
    58   34   58 1   
    59   34   59 1   
    60   48   60 1   
    61   55   57 1   
@<TRIPOS>SUBSTRUCTURE
     1 MT3         1 TEMP              0 ****  ****    0 ROOT
