@<TRIPOS>MOLECULE
MT3
   61    65     1     0     0
SMALL
bcc


@<TRIPOS>ATOM
      1 N1          4.9170    1.8150   -0.5260 n         1 MT3     -0.380300
      2 N3         -5.5250    2.6290    0.6290 nb        1 MT3     -0.677000
      3 C4          9.4130   -2.7670    0.3440 ca        1 MT3     -0.120000
      4 C5          9.1830   -2.2750   -0.9410 ca        1 MT3     -0.129000
      5 C6          8.4520   -1.1010   -1.1200 ca        1 MT3     -0.108500
      6 C7          2.9220    0.4510   -0.0840 cc        1 MT3     -0.201400
      7 C8          3.4940    1.7330   -0.5190 c         1 MT3      0.700700
      8 C10         3.7870   -0.5700    0.2480 cd        1 MT3      0.147600
      9 C13         0.9270   -0.5070    0.9990 ca        1 MT3     -0.158000
     10 C15         0.6320    0.9040   -0.9500 ca        1 MT3     -0.104000
     11 C17        -4.9220    0.2920    0.1430 ca        1 MT3     -0.149300
     12 C20        -7.6560   -0.2800   -0.1340 ca        1 MT3      0.134100
     13 C21        -7.2720    1.0050    0.1700 ca        1 MT3     -0.249300
     14 C22        -5.8850    1.3310    0.3210 ca        1 MT3      0.424600
     15 C24        -3.1880    1.9450    0.6090 ca        1 MT3     -0.327300
     16 C26        -6.2440   -3.6100   -0.7560 c3        1 MT3      0.107700
     17 C27        -9.9610    0.2980   -0.1290 c3        1 MT3      0.107700
     18 O2         -8.9580   -0.6980   -0.3000 os        1 MT3     -0.301900
     19 C19        -6.6730   -1.3180   -0.3070 ca        1 MT3      0.109100
     20 O1         -7.1940   -2.5580   -0.6110 os        1 MT3     -0.301900
     21 C18        -5.3350   -1.0270   -0.1700 ca        1 MT3     -0.162000
     22 C23        -4.2380    2.8980    0.7630 ca        1 MT3      0.436200
     23 C25        -3.5420    0.6480    0.2990 ca        1 MT3      0.167100
     24 C11        -1.2980   -0.0780    0.1160 ca        1 MT3      0.050100
     25 C12        -0.4640   -0.6950    1.0770 ca        1 MT3      0.128900
     26 F1         -0.9890   -1.4660    2.0540 f         1 MT3     -0.123900
     27 C16        -0.7450    0.7220   -0.8890 ca        1 MT3     -0.125000
     28 C14         1.4780    0.2890   -0.0130 ca        1 MT3     -0.003800
     29 O4          2.8420    2.7340   -0.8720 o         1 MT3     -0.630500
     30 C29         5.5560    3.0450   -0.9180 c3        1 MT3      0.056300
     31 N2          5.1540   -0.4620    0.2130 nd        1 MT3     -0.628300
     32 C9          5.6850    0.7010   -0.1660 cc        1 MT3      0.499900
     33 C1          7.9480   -0.4110   -0.0120 ca        1 MT3     -0.078300
     34 C2          8.1800   -0.9090    1.2750 ca        1 MT3     -0.108500
     35 C3          8.9100   -2.0830    1.4500 ca        1 MT3     -0.129000
     36 H4          9.9890   -3.6940    0.4830 ha        1 MT3      0.133000
     37 H5          9.5750   -2.8140   -1.8160 ha        1 MT3      0.133500
     38 H6          8.2700   -0.7200   -2.1360 ha        1 MT3      0.131000
     39 H10         3.4210   -1.5660    0.5640 h4        1 MT3      0.174000
     40 H13         1.5690   -0.9840    1.7540 ha        1 MT3      0.152000
     41 H15         1.0630    1.5500   -1.7330 ha        1 MT3      0.166000
     42 H21        -8.0150    1.8060    0.3060 ha        1 MT3      0.160000
     43 H24        -2.1430    2.2510    0.7390 ha        1 MT3      0.159000
     44 H26        -6.8820   -4.5030   -0.9790 h1        1 MT3      0.046700
     45 H26A       -5.5490   -3.3980   -1.6050 h1        1 MT3      0.046700
     46 H26B       -5.6710   -3.7590    0.1910 h1        1 MT3      0.046700
     47 H28         7.4870    1.3180   -1.1880 hc        1 MT3      0.072700
     48 H28A        7.4800    1.5870    0.6120 hc        1 MT3      0.072700
     49 H27       -10.9130   -0.2640   -0.3040 h1        1 MT3      0.047700
     50 H27A       -9.9320    0.7140    0.9080 h1        1 MT3      0.047700
     51 H27B       -9.8390    1.1140   -0.8820 h1        1 MT3      0.047700
     52 H18        -4.5600   -1.7990   -0.2930 ha        1 MT3      0.160000
     53 H23        -3.9820    3.9440    1.0130 h4        1 MT3      0.023100
     54 H16        -1.4090    1.2020   -1.6240 ha        1 MT3      0.157000
     55 H29         4.7820    3.8520   -1.0380 h1        1 MT3      0.063367
     56 H29A        6.2940    3.3620   -0.1350 h1        1 MT3      0.063367
     57 H29B        6.0900    2.9080   -1.8960 h1        1 MT3      0.063367
     58 H2          7.7750   -0.3780    2.1500 ha        1 MT3      0.131000
     59 H3          9.0860   -2.4720    2.4640 ha        1 MT3      0.133500
     60 C28         7.1990    0.8610   -0.2010 c3        1 MT3     -0.069400
     61 O3         -2.6510   -0.4040    0.1370 os        1 MT3     -0.237200
@<TRIPOS>BOND
     1    1    7 1   
     2    1   30 1   
     3    1   32 1   
     4    2   14 ar  
     5    2   22 ar  
     6    3    4 ar  
     7    3   35 ar  
     8    3   36 1   
     9    4    5 ar  
    10    4   37 1   
    11    5   33 ar  
    12    5   38 1   
    13    6    7 1   
    14    6    8 2   
    15    6   28 1   
    16    7   29 2   
    17    8   31 1   
    18    8   39 1   
    19    9   25 ar  
    20    9   28 ar  
    21    9   40 1   
    22   10   27 ar  
    23   10   28 ar  
    24   10   41 1   
    25   11   14 ar  
    26   11   21 ar  
    27   11   23 ar  
    28   12   13 ar  
    29   12   18 1   
    30   12   19 ar  
    31   13   14 ar  
    32   13   42 1   
    33   15   22 ar  
    34   15   23 ar  
    35   15   43 1   
    36   16   20 1   
    37   16   44 1   
    38   16   45 1   
    39   16   46 1   
    40   17   18 1   
    41   17   49 1   
    42   17   50 1   
    43   17   51 1   
    44   19   20 1   
    45   19   21 ar  
    46   21   52 1   
    47   22   53 1   
    48   23   61 1   
    49   24   25 ar  
    50   24   27 ar  
    51   24   61 1   
    52   25   26 1   
    53   27   54 1   
    54   30   55 1   
    55   30   56 1   
    56   30   57 1   
    57   31   32 2   
    58   32   60 1   
    59   33   34 ar  
    60   33   60 1   
    61   34   35 ar  
    62   34   58 1   
    63   35   59 1   
    64   47   60 1   
    65   48   60 1   
@<TRIPOS>SUBSTRUCTURE
     1 MT3         1 TEMP              0 ****  ****    0 ROOT
