@<TRIPOS>MOLECULE
MT3
   61    54     1     0     0
SMALL
bcc


@<TRIPOS>ATOM
      1 N1         -4.8260    0.7700    1.9530 n3        1 MT3     -0.269000
      2 N3          4.9020   -1.6910   -2.5680 n1        1 MT3     -0.151000
      3 C4         -8.6880    0.4380   -3.2960 c1        1 MT3     -0.136000
      4 C5         -8.7220   -0.5720   -2.3530 c1        1 MT3     -0.136000
      5 C6         -8.1590   -0.3800   -1.1120 c1        1 MT3     -0.114000
      6 C7         -2.6740    0.3200    0.7580 c1        1 MT3     -0.092500
      7 C8         -3.4130    0.5370    1.9980 c1        1 MT3      0.338000
      8 C10        -3.4010    0.2890   -0.5410 c1        1 MT3     -0.062500
      9 C13        -0.6120   -1.1610    0.9640 c1        1 MT3     -0.132000
     10 C15        -0.3550    1.1930    0.5890 c1        1 MT3     -0.062500
     11 C17         4.9230   -0.9060   -0.3160 c1        1 MT3     -0.084000
     12 C20         7.7040   -1.1310   -0.2460 c1        1 MT3      0.090000
     13 C21         7.0110   -1.4950   -1.3790 c1        1 MT3     -0.185000
     14 C22         5.5960   -1.3790   -1.4130 c1        1 MT3      0.031000
     15 C24         2.8660   -1.0490   -1.5020 c1        1 MT3     -0.136000
     16 C26         7.9290    0.7830    2.4170 c3        1 MT3     -0.082000
     17 C28        -7.0250    1.0860    0.5980 c3        1 MT3     -0.080000
     18 C27        10.0410   -0.9810   -0.8260 c3        1 MT3     -0.082000
     19 O2          9.0390   -1.5730    0.0300 os        1 MT3     -0.185000
     20 C19         7.0300   -0.6580    0.8500 c1        1 MT3      0.065000
     21 O1          7.9470   -0.4760    1.8700 o         1 MT3     -0.185000
     22 C18         5.6260   -0.5420    0.8210 c2        1 MT3     -0.162000
     23 C23         3.5560   -1.5300   -2.6190 c1        1 MT3     -0.136000
     24 C25         3.5440   -0.7400   -0.3640 c1        1 MT3      0.124000
     25 O3          2.9790   -0.3390    0.8620 os        1 MT3     -0.145000
     26 C11         1.5830   -0.2160    0.7200 c2        1 MT3      0.003000
     27 C12         0.7720   -1.3160    0.9260 c2        1 MT3      0.098000
     28 F1          1.3100   -2.4670    1.3020 f         1 MT3     -0.086000
     29 C16         1.0180    1.0400    0.5510 c1        1 MT3     -0.126000
     30 C14        -1.1720    0.0880    0.7960 c1        1 MT3     -0.092500
     31 O4         -2.8400    0.5630    3.0280 o         1 MT3     -0.352000
     32 C29        -5.5480    1.0610    3.1560 c3        1 MT3     -0.100000
     33 N2         -4.7990    0.5130   -0.5760 n1        1 MT3     -0.200000
     34 C9         -5.5400    0.7260    0.6590 c2        1 MT3      0.131000
     35 C1         -7.5440    0.8480   -0.7930 c2        1 MT3     -0.070000
     36 C2         -7.5070    1.8560   -1.7240 c2        1 MT3     -0.104000
     37 C3         -8.0820    1.6570   -2.9920 c1        1 MT3     -0.129000
     38 H4         -9.0970    0.2950   -4.1950 ha        1 MT3      0.145250
     39 H5         -9.1390   -1.4140   -2.5630 ha        1 MT3      0.145250
     40 H6         -8.1870   -1.1340   -0.4170 ha        1 MT3      0.130000
     41 H10        -2.9280    0.1520   -1.3410 ha        1 MT3      0.156500
     42 H13        -1.2060   -1.9660    1.1150 ha        1 MT3      0.178000
     43 H15        -0.7540    2.0880    0.4700 ha        1 MT3      0.156500
     44 H21         7.4840   -1.8800   -2.1300 ha        1 MT3      0.160000
     45 H24         1.8960   -0.9320   -1.5400 ha        1 MT3      0.145250
     46 H26         8.5990    0.8410    3.1280 h1        1 MT3      0.086333
     47 H26A        8.1240    1.4190    1.7480 h1        1 MT3      0.086333
     48 H26B        7.0580    0.9600    2.7840 h1        1 MT3      0.086333
     49 H28        -7.5340    0.5130    1.2480 hc        1 MT3      0.112500
     50 H28A       -7.1460    2.0710    0.8430 hc        1 MT3      0.112500
     51 H27         9.9490    0.0430   -0.8050 h1        1 MT3      0.087000
     52 H27A       10.9470   -1.2370   -0.5000 h1        1 MT3      0.087000
     53 H27B        9.9190   -1.3020   -1.7460 h1        1 MT3      0.087000
     54 H18         5.1530   -0.2070    1.5960 ha        1 MT3      0.161000
     55 H23         3.0650   -1.7510   -3.4430 ha        1 MT3      0.145250
     56 H16         1.5810    1.8030    0.4070 ha        1 MT3      0.155000
     57 H29        -5.8970    1.9490    3.1110 h1        1 MT3      0.103000
     58 H29A       -4.9410    0.9840    3.9320 h1        1 MT3      0.103000
     59 H29B       -6.2830    0.4270    3.2540 h1        1 MT3      0.103000
     60 H2         -7.0760    2.7190   -1.5040 ha        1 MT3      0.132000
     61 H3         -8.0570    2.3930   -3.6820 ha        1 MT3      0.134000
@<TRIPOS>BOND
     1    1    7 1   
     2    1   32 1   
     3    1   34 1   
     4    2   14 1   
     5    3    4 1   
     6    3   38 1   
     7    4   39 1   
     8    5   35 1   
     9    5   40 1   
    10    6    8 1   
    11    6   30 1   
    12    7   31 1   
    13    8   41 1   
    14    9   27 1   
    15    9   42 1   
    16   10   30 1   
    17   10   43 1   
    18   11   22 1   
    19   11   24 1   
    20   12   19 1   
    21   12   20 1   
    22   13   14 1   
    23   13   44 1   
    24   15   23 1   
    25   15   45 1   
    26   16   21 1   
    27   16   46 1   
    28   16   47 1   
    29   16   48 1   
    30   17   34 1   
    31   17   35 1   
    32   17   49 1   
    33   17   50 1   
    34   18   19 1   
    35   18   51 1   
    36   18   52 1   
    37   18   53 1   
    38   20   22 1   
    39   22   54 1   
    40   23   55 1   
    41   24   25 1   
    42   25   26 1   
    43   26   27 1   
    44   26   29 1   
    45   27   28 1   
    46   29   56 1   
    47   32   57 1   
    48   32   58 1   
    49   32   59 1   
    50   33   34 1   
    51   35   36 1   
    52   36   37 1   
    53   36   60 1   
    54   37   61 1   
@<TRIPOS>SUBSTRUCTURE
     1 MT3         1 TEMP              0 ****  ****    0 ROOT
