@<TRIPOS>MOLECULE
MT3
   61    61     1     0     0
SMALL
bcc


@<TRIPOS>ATOM
      1 N1         -0.1140    0.3910    1.4520 n         1 MT3     -0.203000
      2 N3         10.0530   -0.9180   -1.5970 n3        1 MT3     -0.177000
      3 C4         -3.3730    2.5290    2.7580 c2        1 MT3     -0.555000
      4 C5         -4.4660    1.9010    3.3940 c1        1 MT3     -0.040000
      5 C6         -5.0190    0.6290    2.9800 c3        1 MT3     -0.158000
      6 C7          2.1010   -0.5980    2.0500 c2        1 MT3     -0.247000
      7 C8          1.3570    0.4040    1.2910 c2        1 MT3      0.298000
      8 C10         1.4550   -1.5090    2.8650 c1        1 MT3     -0.131000
      9 C13         4.1820   -1.8700    2.3040 ca        1 MT3     -0.139000
     10 C15         4.3320    0.4190    1.5190 ca        1 MT3     -0.131000
     11 C17         9.8680   -1.0580    0.8780 c2        1 MT3     -0.382000
     12 C20        13.1960   -0.8340    0.4010 c2        1 MT3     -0.005000
     13 C21        12.1000   -1.0720   -0.3670 c1        1 MT3     -0.341000
     14 C22        10.7070   -1.3980   -0.3610 c3        1 MT3      0.106000
     15 C24         7.8970   -0.7670   -0.5710 c2        1 MT3     -0.262000
     16 C26        14.2930   -0.2210    3.8200 c3        1 MT3     -0.095000
     17 C27        14.4500   -0.8220   -1.6160 c3        1 MT3     -0.047000
     18 O2         14.4570   -0.7130   -0.1970 os        1 MT3     -0.226000
     19 C19        13.2140   -0.6730    1.7800 c2        1 MT3      0.092000
     20 O1         14.3860   -0.4230    2.4020 os        1 MT3     -0.150000
     21 C18        10.4380   -0.9300    2.0640 c1        1 MT3      0.194000
     22 C23         8.7790   -0.6470   -1.7260 c1        1 MT3     -0.082000
     23 C25         8.4210   -0.9380    0.6630 c2        1 MT3      0.127000
     24 C11         6.3450   -0.8830    1.8000 ca        1 MT3     -0.002000
     25 C12         5.5790   -1.9900    2.2300 ca        1 MT3      0.092000
     26 F1          6.1790   -3.1500    2.5790 f         1 MT3     -0.093000
     27 C16         5.7170    0.3140    1.4440 ca        1 MT3     -0.118000
     28 C14         3.5530   -0.6670    1.9440 ca        1 MT3      0.037000
     29 O4          1.7720    1.2750    0.5180 o         1 MT3     -0.302000
     30 C29        -0.9540    1.2420    0.8470 c1        1 MT3     -0.090000
     31 N2          0.0640   -1.4500    2.9570 n3        1 MT3     -0.087000
     32 C9         -0.6900   -0.5690    2.2980 c2        1 MT3      0.107000
     33 C1         -4.3360   -0.1730    1.9080 c2        1 MT3     -0.169000
     34 C2         -4.0000   -1.4640    2.1150 c2        1 MT3     -0.292000
     35 C3         -2.9590    3.7400    3.1100 c1        1 MT3      0.379000
     36 H4         -2.8160    2.0300    1.9190 ha        1 MT3      0.195000
     37 H5         -6.0750    0.8600    2.6360 hc        1 MT3      0.156500
     38 H6         -5.1220   -0.0000    3.9130 hc        1 MT3      0.156500
     39 H10        -0.3680   -2.1240    3.5610 hn        1 MT3      0.286000
     40 H13         3.5800   -2.7230    2.6570 ha        1 MT3      0.175000
     41 H15         3.8550    1.3710    1.2360 ha        1 MT3      0.160000
     42 H21        10.7000   -2.5460   -0.4130 h1        1 MT3      0.145000
     43 H24         6.8190   -0.6730   -0.7590 ha        1 MT3      0.170000
     44 H26        13.8820   -1.1340    4.3130 h1        1 MT3      0.100667
     45 H26A       13.6570    0.6700    4.0390 h1        1 MT3      0.100667
     46 H26B       15.3550   -0.0420    4.1240 h1        1 MT3      0.100667
     47 H28        -3.3060    0.6370    0.1420 ha        1 MT3      0.106000
     48 H28A       -1.8120   -0.5490    2.3760 h5        1 MT3      0.224000
     49 H27        14.0870   -1.8300   -1.9290 h1        1 MT3      0.077333
     50 H27A       13.8050   -0.0310   -2.0680 h1        1 MT3      0.077333
     51 H27B       15.5250   -0.6750   -1.8910 h1        1 MT3      0.077333
     52 H18        12.2910   -0.7350    2.4040 h4        1 MT3      0.190000
     53 H23        10.6820   -0.7830   -2.3610 hn        1 MT3      0.265000
     54 H16         6.3260    1.1650    1.1050 ha        1 MT3      0.154000
     55 H29        -1.3620    0.5630   -1.4790 ha        1 MT3      0.006000
     56 H29A       -0.4660    1.9950    0.1920 ha        1 MT3      0.108000
     57 H29B       -1.5910    0.0220   -1.1380 ha        1 MT3      0.006000
     58 H2         -3.5440   -2.0840    1.3330 ha        1 MT3      0.117500
     59 H3         -4.2710   -1.9940    3.0360 ha        1 MT3      0.117500
     60 C28        -4.2650    0.4430    0.6410 c1        1 MT3     -0.015000
     61 O3          7.7320   -0.9860    1.8690 os        1 MT3     -0.165000
@<TRIPOS>BOND
     1    1    7 1   
     2    1   30 1   
     3    1   32 1   
     4    2   14 1   
     5    2   22 1   
     6    2   53 1   
     7    3    4 1   
     8    3   35 1   
     9    3   36 1   
    10    4    5 1   
    11    5   33 1   
    12    5   37 1   
    13    5   38 1   
    14    6    7 1   
    15    6    8 1   
    16    6   28 1   
    17    7   29 1   
    18    8   31 1   
    19    9   25 1   
    20    9   28 1   
    21    9   40 1   
    22   10   27 1   
    23   10   28 1   
    24   10   41 1   
    25   11   14 1   
    26   11   21 1   
    27   11   23 1   
    28   12   13 1   
    29   12   18 1   
    30   12   19 1   
    31   13   14 1   
    32   14   42 1   
    33   15   22 1   
    34   15   23 1   
    35   15   43 1   
    36   16   20 1   
    37   16   44 1   
    38   16   45 1   
    39   16   46 1   
    40   17   18 1   
    41   17   49 1   
    42   17   50 1   
    43   17   51 1   
    44   19   20 1   
    45   19   52 1   
    46   23   61 1   
    47   24   25 1   
    48   24   27 1   
    49   24   61 1   
    50   25   26 1   
    51   27   54 1   
    52   30   56 1   
    53   31   32 1   
    54   31   39 1   
    55   32   48 1   
    56   33   34 1   
    57   33   60 1   
    58   34   58 1   
    59   34   59 1   
    60   47   60 1   
    61   55   57 1   
@<TRIPOS>SUBSTRUCTURE
     1 MT3         1 TEMP              0 ****  ****    0 ROOT
