@<TRIPOS>MOLECULE
MT3
   61    61     1     0     0
SMALL
bcc


@<TRIPOS>ATOM
      1 N1          0.4800    0.5780    1.6960 n         1 MT3     -0.198000
      2 N3         10.5880    0.6420   -1.7670 n2        1 MT3     -0.223000
      3 C4         -2.9200    2.4990    3.0250 c2        1 MT3     -0.561000
      4 C5         -4.1210    1.8590    3.3970 c1        1 MT3     -0.037000
      5 C6         -4.5990    0.6300    2.8020 c3        1 MT3     -0.161000
      6 C7          2.6900   -0.4940    2.1510 c2        1 MT3     -0.250000
      7 C8          1.9380    0.5420    1.4480 c2        1 MT3      0.297000
      8 C10         2.0620   -1.4040    2.9790 c1        1 MT3     -0.126000
      9 C13         4.7470   -1.8250    2.2480 ca        1 MT3     -0.134000
     10 C15         4.9180    0.4940    1.5650 ca        1 MT3     -0.128000
     11 C17        10.2250   -0.3650    0.4640 c2        1 MT3     -0.167000
     12 C20        12.7950   -1.3490    0.2950 c2        1 MT3     -0.327000
     13 C21        12.1510   -1.0460   -0.9900 c3        1 MT3     -0.069000
     14 C22        10.9290   -0.1720   -0.8340 c2        1 MT3      0.043000
     15 C24         8.1500   -1.0040   -0.7410 c2        1 MT3     -0.506000
     16 C26        10.4210   -0.1840    2.9870 c3        1 MT3     -0.200000
     17 C27        14.4660   -2.5930   -0.7420 c2        1 MT3     -0.227000
     18 O2         13.9170   -2.0960    0.3340 os        1 MT3      0.135000
     19 C19        12.3500   -0.9290    1.6110 c2        1 MT3      0.299000
     20 O1         12.9650   -1.2140    2.6490 o         1 MT3     -0.314000
     21 C18        11.0960   -0.0720    1.6380 c3        1 MT3     -0.074000
     22 C23         8.3110   -1.9590   -1.6320 c1        1 MT3      0.265000
     23 C25         8.9310   -0.7590    0.4660 c2        1 MT3      0.132000
     24 C11         6.9100   -0.8660    1.6870 ca        1 MT3      0.002000
     25 C12         6.1360   -1.9740    2.1020 ca        1 MT3      0.092000
     26 F1          6.7220   -3.1630    2.3670 f         1 MT3     -0.089000
     27 C16         6.2950    0.3610    1.4230 ca        1 MT3     -0.140000
     28 C14         4.1320   -0.5940    1.9730 ca        1 MT3      0.032000
     29 O4          2.3390    1.4060    0.6590 o         1 MT3     -0.304000
     30 C29        -0.3620    1.4720    1.1670 c1        1 MT3     -0.093000
     31 N2          0.6780   -1.3060    3.1460 n7        1 MT3     -0.085000
     32 C9         -0.0800   -0.3840    2.5540 c2        1 MT3      0.107000
     33 C1         -3.7210   -0.1330    1.8440 c2        1 MT3     -0.165000
     34 C2         -3.2680   -1.3620    2.1540 c2        1 MT3     -0.315000
     35 C3         -2.5370    3.6570    3.5470 c1        1 MT3      0.373000
     36 H4         -2.2370    2.0530    2.2480 ha        1 MT3      0.204000
     37 H5         -5.5670    0.8990    2.2750 hc        1 MT3      0.158500
     38 H6         -4.8910   -0.0500    3.6570 hc        1 MT3      0.158500
     39 H10         0.2580   -1.9840    3.7560 hn        1 MT3      0.288000
     40 H13         4.1420   -2.6800    2.5920 ha        1 MT3      0.176000
     41 H15         4.4500    1.4690    1.3540 ha        1 MT3      0.157000
     42 H21        11.8240   -2.0050   -1.4890 hc        1 MT3      0.106000
     43 H24         7.2880   -0.3100   -0.8780 ha        1 MT3      0.211000
     44 H26        11.1520    0.0720    3.7930 hc        1 MT3      0.091333
     45 H26A        9.5520    0.5150    3.0440 hc        1 MT3      0.091333
     46 H26B       10.0560   -1.2250    3.1620 hc        1 MT3      0.091333
     47 H28        -1.1960   -0.3340    2.6890 h5        1 MT3      0.228000
     48 H28A       -2.6430    0.9680    0.2840 ha        1 MT3      0.099000
     49 H27        14.0700   -2.4550   -1.7490 h4        1 MT3      0.163500
     50 H27A       12.9000   -0.5580   -1.6800 hc        1 MT3      0.106000
     51 H27B       15.3750   -3.1680   -0.5210 h4        1 MT3      0.163500
     52 H18        11.4580    0.9970    1.5180 hc        1 MT3      0.117000
     53 H23         9.7520    1.1610   -1.5980 hn        1 MT3      0.146000
     54 H16         6.9100    1.2190    1.1130 ha        1 MT3      0.146000
     55 H29        -3.4420   -1.1240   -0.9330 ha        1 MT3      0.014000
     56 H29A        0.1040    2.2140    0.4850 ha        1 MT3      0.110000
     57 H29B       -2.8190   -1.2320   -0.6780 ha        1 MT3      0.014000
     58 H2         -2.6780   -1.9640    1.4520 ha        1 MT3      0.115500
     59 H3         -3.5540   -1.8700    3.0830 ha        1 MT3      0.115500
     60 C28        -3.5840    0.4840    0.5780 c1        1 MT3     -0.013000
     61 O3          8.2950   -1.0100    1.6820 os        1 MT3     -0.141000
@<TRIPOS>BOND
     1    1    7 1   
     2    1   30 1   
     3    1   32 1   
     4    2   14 1   
     5    2   53 1   
     6    3    4 1   
     7    3   35 1   
     8    3   36 1   
     9    4    5 1   
    10    5   33 1   
    11    5   37 1   
    12    5   38 1   
    13    6    7 1   
    14    6    8 1   
    15    6   28 1   
    16    7   29 1   
    17    8   31 1   
    18    9   25 1   
    19    9   28 1   
    20    9   40 1   
    21   10   27 1   
    22   10   28 1   
    23   10   41 1   
    24   11   14 1   
    25   11   21 1   
    26   11   23 1   
    27   12   13 1   
    28   12   18 1   
    29   12   19 1   
    30   13   14 1   
    31   13   42 1   
    32   13   50 1   
    33   15   22 1   
    34   15   23 1   
    35   15   43 1   
    36   16   21 1   
    37   16   44 1   
    38   16   45 1   
    39   16   46 1   
    40   17   18 1   
    41   17   49 1   
    42   17   51 1   
    43   19   20 1   
    44   19   21 1   
    45   21   52 1   
    46   23   61 1   
    47   24   25 1   
    48   24   27 1   
    49   24   61 1   
    50   25   26 1   
    51   27   54 1   
    52   30   56 1   
    53   31   32 1   
    54   31   39 1   
    55   32   47 1   
    56   33   34 1   
    57   33   60 1   
    58   34   58 1   
    59   34   59 1   
    60   48   60 1   
    61   55   57 1   
@<TRIPOS>SUBSTRUCTURE
     1 MT3         1 TEMP              0 ****  ****    0 ROOT
