@<TRIPOS>MOLECULE
MT4
   61    60     1     0     0
SMALL
bcc


@<TRIPOS>ATOM
      1 N1          0.8590    2.0160   -0.4110 n2        1 MT4     -0.336000
      2 N3         -4.2360    1.2380   -9.4290 n2        1 MT4     -0.055000
      3 C4         -1.4880   -0.9080   -1.2460 c2        1 MT4     -0.129000
      4 C5         -0.5870   -0.0790   -1.7820 c2        1 MT4     -0.010000
      5 C6          2.9580   -1.2690   -1.9430 ca        1 MT4     -0.108000
      6 C7          3.6450   -0.2510   -1.2450 ca        1 MT4      0.115000
      7 C8          2.9400    0.8450   -0.7410 ca        1 MT4     -0.209000
      8 C13        -1.7080    2.3450   -4.4280 c3        1 MT4      0.070000
      9 C15        -2.2130    0.7610   -6.2850 c2        1 MT4     -0.291000
     10 C17        -0.4400    0.1050   -4.6860 c3        1 MT4     -0.227000
     11 C20        -4.2860    0.0380   -9.9100 c2        1 MT4     -0.027000
     12 C21        -3.5630    1.4740   -8.2320 c2        1 MT4     -0.076000
     13 C24        -1.0430    1.6490  -12.8480 c2        1 MT4     -0.105000
     14 C26         1.3750    0.6850  -12.5970 c2        1 MT4      0.107000
     15 C28         0.9470   -1.7680  -12.2470 c2        1 MT4     -0.123000
     16 O2          5.0010   -0.4170   -1.1230 os        1 MT4     -0.213000
     17 O1          3.5750   -2.4530   -2.4350 os        1 MT4     -0.011000
     18 C11         4.7740   -2.5690   -2.8320 c1        1 MT4      0.001000
     19 C9          1.5820   -1.1870   -2.1210 ca        1 MT4     -0.057000
     20 C1          0.8610   -0.0930   -1.6230 ca        1 MT4     -0.148000
     21 C2          1.5420    0.9360   -0.9220 ca        1 MT4      0.174000
     22 C3          0.2920    2.9460    0.0630 c1        1 MT4      0.216000
     23 O3         -1.1130    1.0580   -2.4900 os        1 MT4     -0.051000
     24 C12        -1.0080    1.1420   -3.7910 c2        1 MT4      0.182000
     25 C14        -2.4830    1.9540   -5.6350 c1        1 MT4     -0.122000
     26 C16        -1.2100   -0.1320   -5.9100 c1        1 MT4     -0.106000
     27 C18        -2.9740    0.4860   -7.4900 c2        1 MT4      0.015000
     28 C19        -3.1320   -0.9270   -7.8960 c2        1 MT4      0.339000
     29 O4         -2.9220   -1.9550   -7.2680 o         1 MT4     -0.188000
     30 N2         -3.7080   -1.1300   -9.2690 n         1 MT4     -0.155000
     31 C23        -0.3590   -1.6830  -11.7070 c1        1 MT4     -0.002000
     32 C25         0.1440    1.1560  -12.7030 c1        1 MT4     -0.195000
     33 C27         1.7200   -0.7370  -12.6150 c2        1 MT4     -0.041000
     34 H4         -1.1700   -1.7280   -0.5830 ha        1 MT4      0.164500
     35 H8          3.4740    1.6370   -0.1910 ha        1 MT4      0.170000
     36 H10         5.2490    0.4630    0.7690 h1        1 MT4      0.102000
     37 H10A        6.7350    0.0830   -0.2520 h1        1 MT4      0.102000
     38 H10B        5.6650    1.5210   -0.6800 h1        1 MT4      0.102000
     39 H17        -0.3160   -0.8740   -4.1350 hc        1 MT4      0.178000
     40 H21        -3.5350    2.5350   -7.9020 h4        1 MT4      0.231000
     41 H22        -2.2090   -4.3010   -7.8770 ha        1 MT4      0.003250
     42 H22A       -1.9640   -4.1720   -7.2580 ha        1 MT4      0.003250
     43 H22B       -3.1920   -3.1600   -9.3390 h4        1 MT4      0.202500
     44 H24        -1.4730    1.8580  -13.8420 ha        1 MT4      0.145500
     45 H28         1.3250   -2.8060  -12.3380 ha        1 MT4      0.173000
     46 H11         5.5130   -1.7460   -2.8350 ha        1 MT4      0.075000
     47 H11A        4.5080   -1.9180   -5.1470 ha        1 MT4      0.003250
     48 H11B        4.5590   -2.5920   -5.2100 ha        1 MT4      0.003250
     49 H9          1.0610   -2.0070   -2.6440 ha        1 MT4      0.163000
     50 H3         -2.5690   -0.8100   -1.4200 ha        1 MT4      0.164500
     51 H14        -0.8700    3.0220   -4.8100 h1        1 MT4      0.170000
     52 H16         0.5980    0.4240   -5.0120 hc        1 MT4      0.178000
     53 HN4        -4.7860   -0.1560  -10.8840 h5        1 MT4      0.215000
     54 H25        -1.6920    1.8920  -11.9920 ha        1 MT4      0.145500
     55 H27         2.7490   -0.9400  -12.9770 ha        1 MT4      0.169000
     56 C10         5.6900    0.4880   -0.2560 c3        1 MT4     -0.080000
     57 N4         -1.4270   -1.6680  -11.2420 n1        1 MT4     -0.179000
     58 C22        -3.6670   -2.2940   -9.8580 c2        1 MT4      0.154000
     59 H42        -4.0960   -2.4450  -10.8720 h4        1 MT4      0.202500
     60 F2         -2.4480    3.0460   -3.4990 f         1 MT4     -0.104000
     61 F1          2.4430    1.5270  -12.5090 f         1 MT4     -0.090000
@<TRIPOS>BOND
     1    1   21 1   
     2    1   22 1   
     3    2   11 1   
     4    2   12 1   
     5    3    4 1   
     6    3   34 1   
     7    3   50 1   
     8    4   20 1   
     9    4   23 1   
    10    5    6 1   
    11    5   17 1   
    12    5   19 1   
    13    6    7 1   
    14    6   16 1   
    15    7   21 1   
    16    7   35 1   
    17    8   24 1   
    18    8   25 1   
    19    8   51 1   
    20    8   60 1   
    21    9   25 1   
    22    9   26 1   
    23    9   27 1   
    24   10   24 1   
    25   10   26 1   
    26   10   39 1   
    27   10   52 1   
    28   11   30 1   
    29   11   53 1   
    30   12   27 1   
    31   12   40 1   
    32   13   32 1   
    33   13   44 1   
    34   13   54 1   
    35   14   32 1   
    36   14   33 1   
    37   14   61 1   
    38   15   31 1   
    39   15   33 1   
    40   15   45 1   
    41   16   56 1   
    42   17   18 1   
    43   18   46 1   
    44   19   20 1   
    45   19   49 1   
    46   20   21 1   
    47   23   24 1   
    48   27   28 1   
    49   28   29 1   
    50   28   30 1   
    51   30   58 1   
    52   31   57 1   
    53   33   55 1   
    54   36   56 1   
    55   37   56 1   
    56   38   56 1   
    57   41   42 1   
    58   43   58 1   
    59   47   48 1   
    60   58   59 1   
@<TRIPOS>SUBSTRUCTURE
     1 MT4         1 TEMP              0 ****  ****    0 ROOT
