@<TRIPOS>MOLECULE
MT4
   60    61     1     0     0
SMALL
bcc


@<TRIPOS>ATOM
      1 N1         -0.5150   -0.4900   -1.2430 n2        1 MT4     -0.143000
      2 N3         -1.2960    0.1320  -10.3130 n2        1 MT4     -0.258000
      3 C4          0.2740   -0.8150   -3.6230 c3        1 MT4     -0.115000
      4 C5          1.5340   -0.2500   -3.1280 c2        1 MT4     -0.056000
      5 C6          3.4710   -0.1010    0.0700 ca        1 MT4     -0.056000
      6 C7          2.4360   -0.2880    1.0140 ca        1 MT4     -0.027000
      7 C8          1.1230   -0.4460    0.6070 ca        1 MT4     -0.136000
      8 C13         2.5350    1.7200   -6.0200 c3        1 MT4      0.161000
      9 C15         0.9580    0.1610   -7.2890 c2        1 MT4     -0.183000
     10 C17         2.5990   -0.8330   -5.7510 c3        1 MT4     -0.246000
     11 C20        -2.4260   -0.3830   -9.7730 c2        1 MT4      0.257000
     12 C21        -0.2130    0.3060   -9.4960 c2        1 MT4      0.038000
     13 C24        -4.7880    2.3080  -14.7510 c1        1 MT4      0.247000
     14 C26        -3.3190    0.2730  -14.9450 c2        1 MT4      0.134000
     15 C28        -2.5850   -0.8240  -12.8290 c2        1 MT4     -0.144000
     16 O2          2.7950   -0.2240    2.3860 os        1 MT4     -0.010000
     17 O1          4.7790    0.1260    0.5760 os        1 MT4     -0.006000
     18 C11         5.8370   -0.3180    0.0180 c1        1 MT4     -0.001000
     19 C9          3.1980   -0.0810   -1.2840 ca        1 MT4     -0.105000
     20 C1          1.8750   -0.2710   -1.7410 ca        1 MT4     -0.081000
     21 C2          0.8160   -0.3970   -0.7710 ca        1 MT4      0.052000
     22 C3         -0.6560   -0.7660   -2.4610 c1        1 MT4     -0.010000
     23 O3          2.2060    0.7410   -3.8470 os        1 MT4     -0.074000
     24 C12         2.5520    0.5110   -5.1250 c2        1 MT4      0.000000
     25 C14         1.3950    1.3720   -6.9030 c1        1 MT4     -0.138000
     26 C16         1.6590   -1.0190   -6.8750 c1        1 MT4     -0.018000
     27 C18        -0.1970   -0.0080   -8.1600 c2        1 MT4     -0.161000
     28 C19        -1.4090   -0.5530   -7.5450 c2        1 MT4      0.362000
     29 O4         -1.5290   -0.8460   -6.3380 o         1 MT4     -0.383000
     30 N2         -2.5280   -0.7490   -8.4050 n         1 MT4     -0.288000
     31 C23        -3.5750   -0.4830  -11.9760 c2        1 MT4     -0.031000
     32 C25        -3.8730    1.4660  -14.3190 c2        1 MT4     -0.491000
     33 C27        -2.7240   -0.7390  -14.2620 c2        1 MT4     -0.172000
     34 H4         -0.1170   -0.3210   -4.5580 hc        1 MT4      0.189000
     35 H8          0.3130   -0.5710    1.3460 ha        1 MT4      0.173000
     36 H10         0.2910    0.5360    3.4870 ha        1 MT4      0.004750
     37 H10A        1.3880   -1.6010    3.0760 ha        1 MT4      0.040000
     38 H10B        0.6330    0.7460    4.0350 ha        1 MT4      0.004750
     39 H17         2.3990   -1.6440   -4.9940 hc        1 MT4      0.165500
     40 H21         0.6690    0.7330  -10.0080 h4        1 MT4      0.173000
     41 H22        -3.5920   -1.5450   -6.7760 h1        1 MT4      0.101667
     42 H22A       -4.5770   -0.5350   -7.9290 h1        1 MT4      0.101667
     43 H22B       -4.0390   -2.2250   -8.4070 h1        1 MT4      0.101667
     44 H24        -4.5640   -0.1540  -12.3610 h4        1 MT4      0.144000
     45 H28        -1.6090   -1.2080  -12.4840 ha        1 MT4      0.160000
     46 H11         5.7890   -0.9370   -0.9030 ha        1 MT4      0.032000
     47 H11A        6.4270    1.6210   -1.2630 ha        1 MT4      0.004750
     48 H11B        5.9730    1.3690   -1.7010 ha        1 MT4      0.004750
     49 H9          4.0050    0.0670   -2.0190 ha        1 MT4      0.156000
     50 H3          0.3420   -1.9220   -3.8480 hc        1 MT4      0.189000
     51 H14         3.4700    1.7480   -6.6640 h1        1 MT4      0.155000
     52 H16         3.6360   -1.0120   -6.1670 hc        1 MT4      0.165500
     53 HN4        -4.4140   -0.8230  -10.1550 hn        1 MT4      0.244000
     54 H25        -3.4290    1.6900  -13.3170 ha        1 MT4      0.220000
     55 H27        -2.2740   -1.5740  -14.8290 ha        1 MT4      0.152000
     56 F2          2.4240    2.9140   -5.3470 f         1 MT4     -0.108000
     57 C10         2.2150   -0.8950    3.3030 c1        1 MT4      0.003000
     58 N4         -3.5670   -0.5180  -10.5820 nh        1 MT4     -0.281000
     59 C22        -3.7470   -1.2880   -7.8610 c3        1 MT4     -0.106000
     60 F1         -3.3950    0.2190  -16.3010 f         1 MT4     -0.108000
@<TRIPOS>BOND
     1    1   21 1   
     2    1   22 1   
     3    2   11 1   
     4    2   12 1   
     5    3    4 1   
     6    3   22 1   
     7    3   34 1   
     8    3   50 1   
     9    4   20 1   
    10    4   23 1   
    11    5    6 1   
    12    5   17 1   
    13    5   19 1   
    14    6    7 1   
    15    6   16 1   
    16    7   21 1   
    17    7   35 1   
    18    8   24 1   
    19    8   25 1   
    20    8   51 1   
    21    8   56 1   
    22    9   25 1   
    23    9   26 1   
    24    9   27 1   
    25   10   24 1   
    26   10   26 1   
    27   10   39 1   
    28   10   52 1   
    29   11   30 1   
    30   11   58 1   
    31   12   27 1   
    32   12   40 1   
    33   13   32 1   
    34   14   32 1   
    35   14   33 1   
    36   14   60 1   
    37   15   31 1   
    38   15   33 1   
    39   15   45 1   
    40   16   57 1   
    41   17   18 1   
    42   18   46 1   
    43   19   20 1   
    44   19   49 1   
    45   20   21 1   
    46   23   24 1   
    47   27   28 1   
    48   28   29 1   
    49   28   30 1   
    50   30   59 1   
    51   31   44 1   
    52   31   58 1   
    53   32   54 1   
    54   33   55 1   
    55   36   38 1   
    56   37   57 1   
    57   41   59 1   
    58   42   59 1   
    59   43   59 1   
    60   47   48 1   
    61   53   58 1   
@<TRIPOS>SUBSTRUCTURE
     1 MT4         1 TEMP              0 ****  ****    0 ROOT
