@<TRIPOS>MOLECULE
MT4
   60    61     1     0     0
SMALL
bcc


@<TRIPOS>ATOM
      1 N1          0.0120   -1.6510   -1.0330 n2        1 MT4     -0.117000
      2 N3         -1.9520   -0.7010  -10.0620 n2        1 MT4     -0.213000
      3 C4          0.1230   -0.8290   -3.3250 c2        1 MT4     -0.172000
      4 C5          1.2580   -0.1130   -3.0260 c2        1 MT4      0.035000
      5 C6          3.4810    0.5350   -0.0840 ca        1 MT4     -0.048000
      6 C7          2.8170   -0.2490    0.8950 ca        1 MT4     -0.070000
      7 C8          1.6860   -0.9690    0.5900 ca        1 MT4     -0.115000
      8 C13         2.0890    1.4040   -6.2540 c3        1 MT4      0.134000
      9 C15         0.4750   -0.3140   -7.1860 c2        1 MT4     -0.242000
     10 C17         2.1920   -1.0690   -5.5980 c3        1 MT4     -0.252000
     11 C20        -2.9570   -1.2640   -9.4470 c2        1 MT4      0.100000
     12 C21        -0.8170   -0.3810   -9.3190 c2        1 MT4     -0.018000
     13 C24        -3.2180    1.1280  -14.0230 cu        1 MT4     -0.194000
     14 C26        -3.1240    1.1420  -15.5560 cx        1 MT4      0.056000
     15 C28        -2.1520   -0.8100  -14.6730 c2        1 MT4     -0.176000
     16 O2          3.4100   -0.2840    2.1860 os        1 MT4     -0.049000
     17 O1          4.6170    1.3330    0.2210 os        1 MT4     -0.021000
     18 C11         5.5790    0.9820    0.9790 c1        1 MT4      0.000000
     19 C9          2.9900    0.6030   -1.3700 ca        1 MT4     -0.084000
     20 C1          1.8280   -0.1270   -1.7140 ca        1 MT4     -0.069000
     21 C2          1.1530   -0.9270   -0.7360 ca        1 MT4      0.017000
     22 C3         -0.4630   -1.5930   -2.2620 c2        1 MT4     -0.029000
     23 O3          1.8550    0.7730   -3.9460 os        1 MT4     -0.071000
     24 C12         2.1580    0.3510   -5.1730 c2        1 MT4      0.072000
     25 C14         0.9170    0.9590   -7.0580 c1        1 MT4     -0.137000
     26 C16         1.1640   -1.4140   -6.6030 c1        1 MT4     -0.029000
     27 C18        -0.7100   -0.6190   -7.9790 c2        1 MT4     -0.078000
     28 C19        -1.8540   -1.2180   -7.2570 c2        1 MT4      0.299000
     29 O4         -1.8990   -1.4130   -6.0330 o         1 MT4     -0.327000
     30 N2         -3.0110   -1.5760   -8.0540 n         1 MT4     -0.216000
     31 C23        -2.8920   -0.2010  -13.4480 c3        1 MT4      0.013000
     32 C25        -2.7410    2.2250  -14.5830 cu        1 MT4     -0.121000
     33 C27        -2.2480   -0.0660  -15.7930 c2        1 MT4     -0.138000
     34 H4         -0.3460   -0.8390   -4.3250 ha        1 MT4      0.199000
     35 H8          1.1790   -1.5830    1.3540 ha        1 MT4      0.168000
     36 H10         2.1470    1.8220    3.7770 ha        1 MT4      0.005000
     37 H10A        1.6620   -0.5650    3.2910 ha        1 MT4      0.047000
     38 H10B        2.7310    1.7750    4.1210 ha        1 MT4      0.005000
     39 H17         2.0720   -1.7690   -4.7230 hc        1 MT4      0.169000
     40 H21        -0.0030    0.0880   -9.9000 h4        1 MT4      0.175000
     41 H22        -5.8600   -0.5780   -7.2700 ha        1 MT4      0.005000
     42 H22A       -5.5450   -0.4020   -6.6950 ha        1 MT4      0.005000
     43 H22B       -4.0940   -2.3980   -6.4980 ha        1 MT4      0.071000
     44 H24        -2.1230   -0.0670  -12.5580 h1        1 MT4      0.266000
     45 H28        -1.6410   -1.7650  -14.5480 ha        1 MT4      0.160000
     46 H11         5.6110    0.0040    1.4970 ha        1 MT4      0.067000
     47 H11A        6.9750   -0.1950   -0.6090 ha        1 MT4      0.005000
     48 H11B        7.2680    0.4170   -0.6010 ha        1 MT4      0.005000
     49 H9          3.4860    1.2330   -2.1260 ha        1 MT4      0.170000
     50 H3         -1.3800   -2.1800   -2.4690 h4        1 MT4      0.188000
     51 H14         3.0040    1.3240   -6.9230 h1        1 MT4      0.158000
     52 H16         3.1940   -1.2940   -6.0720 hc        1 MT4      0.169000
     53 HN4        -3.8760   -1.5460  -10.0150 h5        1 MT4      0.233000
     54 H25        -2.4000    3.2380  -14.5180 ha        1 MT4      0.200000
     55 H27        -1.8370   -0.2820  -16.7790 ha        1 MT4      0.161000
     56 F2          2.0070    2.6880   -5.7680 f         1 MT4     -0.108000
     57 C10         2.7640   -0.4370    3.2770 c1        1 MT4      0.013000
     58 N4         -3.6910   -0.9400  -12.6690 n1        1 MT4     -0.115000
     59 C22        -4.1110   -2.1690   -7.5860 c1        1 MT4     -0.046000
     60 F1         -4.1390    1.3310  -16.4380 f         1 MT4     -0.114000
@<TRIPOS>BOND
     1    1   21 1   
     2    1   22 1   
     3    2   11 1   
     4    2   12 1   
     5    3    4 1   
     6    3   22 1   
     7    3   34 1   
     8    4   20 1   
     9    4   23 1   
    10    5    6 1   
    11    5   17 1   
    12    5   19 1   
    13    6    7 1   
    14    6   16 1   
    15    7   21 1   
    16    7   35 1   
    17    8   24 1   
    18    8   25 1   
    19    8   51 1   
    20    8   56 1   
    21    9   25 1   
    22    9   26 1   
    23    9   27 1   
    24   10   24 1   
    25   10   26 1   
    26   10   39 1   
    27   10   52 1   
    28   11   30 1   
    29   11   53 1   
    30   12   27 1   
    31   12   40 1   
    32   13   14 1   
    33   13   31 1   
    34   13   32 1   
    35   14   32 1   
    36   14   33 1   
    37   14   60 1   
    38   15   31 1   
    39   15   33 1   
    40   15   45 1   
    41   16   57 1   
    42   17   18 1   
    43   18   46 1   
    44   19   20 1   
    45   19   49 1   
    46   20   21 1   
    47   22   50 1   
    48   23   24 1   
    49   27   28 1   
    50   28   29 1   
    51   28   30 1   
    52   30   59 1   
    53   31   44 1   
    54   31   58 1   
    55   32   54 1   
    56   33   55 1   
    57   36   38 1   
    58   37   57 1   
    59   41   42 1   
    60   43   59 1   
    61   47   48 1   
@<TRIPOS>SUBSTRUCTURE
     1 MT4         1 TEMP              0 ****  ****    0 ROOT
