@<TRIPOS>MOLECULE
MT4
   60    64     1     0     0
SMALL
bcc


@<TRIPOS>ATOM
      1 N1         -5.9530    2.5310    0.7570 nb        1 MT4     -0.678000
      2 N3          4.7560   -0.3320   -0.0590 nc        1 MT4     -0.683300
      3 C4         -3.6060    1.9000    0.6100 ca        1 MT4     -0.327300
      4 C5         -3.9460    0.6080    0.2650 ca        1 MT4      0.168100
      5 C6         -7.0590   -1.4020   -0.2830 ca        1 MT4      0.109100
      6 C7         -8.0550   -0.3930   -0.0280 ca        1 MT4      0.134100
      7 C8         -7.6840    0.8880    0.3100 ca        1 MT4     -0.249300
      8 C13        -0.8280   -0.6820    0.9090 ca        1 MT4      0.130900
      9 C15         1.0700    0.3670   -0.2000 ca        1 MT4      0.008200
     10 C17        -1.1810    0.7720   -1.0170 ca        1 MT4     -0.122000
     11 C20         5.2760    0.8620   -0.4420 cd        1 MT4      0.691800
     12 C21         3.4000   -0.4510   -0.0050 cc        1 MT4      0.176600
     13 C24         8.5670    0.2330    0.7710 ca        1 MT4     -0.104000
     14 C26         9.4230   -2.0140    0.5170 ca        1 MT4      0.124900
     15 C28         7.4950   -1.3140   -0.7710 ca        1 MT4     -0.104000
     16 O2         -9.3540   -0.8340   -0.1540 os        1 MT4     -0.301900
     17 O1         -7.5670   -2.6410   -0.6110 os        1 MT4     -0.301900
     18 C11        -6.6040   -3.6650   -0.8380 c3        1 MT4      0.107700
     19 C9         -5.7230   -1.0870   -0.1910 ca        1 MT4     -0.161000
     20 C1         -5.3240    0.2280    0.1550 ca        1 MT4     -0.150300
     21 C2         -6.3000    1.2380    0.4130 ca        1 MT4      0.424600
     22 C3         -4.6670    2.8230    0.8450 ca        1 MT4      0.436200
     23 O3         -3.0420   -0.4150    0.0200 os        1 MT4     -0.237200
     24 C12        -1.6950   -0.0620   -0.0190 ca        1 MT4      0.045100
     25 C14         0.5560   -0.4620    0.8060 ca        1 MT4     -0.164000
     26 C16         0.1900    0.9850   -1.1040 ca        1 MT4     -0.110000
     27 C18         2.5080    0.5590   -0.2990 cd        1 MT4     -0.237400
     28 C19         3.0440    1.8550   -0.7200 c         1 MT4      0.716700
     29 O4          2.3710    2.8540   -1.0340 o         1 MT4     -0.627500
     30 N2          4.4680    1.9760   -0.7650 n         1 MT4     -0.394300
     31 C23         7.5580   -0.0360   -0.1790 ca        1 MT4      0.107600
     32 C25         9.4950   -0.7410    1.1120 ca        1 MT4     -0.153500
     33 C27         8.4170   -2.2940   -0.4240 ca        1 MT4     -0.153500
     34 H4         -2.5620    2.2240    0.7060 ha        1 MT4      0.159000
     35 H8         -8.4370    1.6660    0.5090 ha        1 MT4      0.159000
     36 H10       -10.3030    0.5090    1.1490 h1        1 MT4      0.047700
     37 H10A      -10.2970    0.9800   -0.6260 h1        1 MT4      0.047700
     38 H10B      -11.3160   -0.4430   -0.0570 h1        1 MT4      0.047700
     39 H17        -1.8710    1.2550   -1.7260 ha        1 MT4      0.156000
     40 H21         3.0560   -1.4570    0.3060 h4        1 MT4      0.174000
     41 H22         5.7030    3.0700   -2.0880 h1        1 MT4      0.065033
     42 H22A        4.2420    3.9550   -1.4470 h1        1 MT4      0.065033
     43 H22B        5.6680    3.6630   -0.3500 h1        1 MT4      0.065033
     44 H24         8.6350    1.2220    1.2520 ha        1 MT4      0.148000
     45 H28         6.7120   -1.5510   -1.5090 ha        1 MT4      0.148000
     46 H11        -5.9510   -3.4060   -1.7070 h1        1 MT4      0.046700
     47 H11A       -5.9870   -3.8370    0.0780 h1        1 MT4      0.046700
     48 H11B       -7.2320   -4.5630   -1.0670 h1        1 MT4      0.046700
     49 H9         -4.9390   -1.8360   -0.3770 ha        1 MT4      0.160000
     50 H3         -4.4210    3.8650    1.1250 h4        1 MT4      0.023100
     51 H14         1.2250   -0.9410    1.5380 ha        1 MT4      0.151000
     52 H16         0.5900    1.6560   -1.8810 ha        1 MT4      0.165000
     53 HN4         7.0350    1.9180   -0.4110 hn        1 MT4      0.430800
     54 H25        10.2830   -0.5280    1.8490 ha        1 MT4      0.155000
     55 H27         8.3650   -3.2930   -0.8840 ha        1 MT4      0.155000
     56 F2         -1.3150   -1.4860    1.8790 f         1 MT4     -0.124900
     57 C10       -10.3690    0.1340    0.0990 c3        1 MT4      0.107700
     58 N4          6.6780    0.9990   -0.5870 nh        1 MT4     -0.680600
     59 C22         5.0550    3.2230   -1.1830 c3        1 MT4      0.049300
     60 F1         10.3230   -2.9680    0.8520 f         1 MT4     -0.135900
@<TRIPOS>BOND
     1    1   21 ar  
     2    1   22 ar  
     3    2   11 2   
     4    2   12 1   
     5    3    4 ar  
     6    3   22 ar  
     7    3   34 1   
     8    4   20 ar  
     9    4   23 1   
    10    5    6 ar  
    11    5   17 1   
    12    5   19 ar  
    13    6    7 ar  
    14    6   16 1   
    15    7   21 ar  
    16    7   35 1   
    17    8   24 ar  
    18    8   25 ar  
    19    8   56 1   
    20    9   25 ar  
    21    9   26 ar  
    22    9   27 1   
    23   10   24 ar  
    24   10   26 ar  
    25   10   39 1   
    26   11   30 1   
    27   11   58 1   
    28   12   27 2   
    29   12   40 1   
    30   13   31 ar  
    31   13   32 ar  
    32   13   44 1   
    33   14   32 ar  
    34   14   33 ar  
    35   14   60 1   
    36   15   31 ar  
    37   15   33 ar  
    38   15   45 1   
    39   16   57 1   
    40   17   18 1   
    41   18   46 1   
    42   18   47 1   
    43   18   48 1   
    44   19   20 ar  
    45   19   49 1   
    46   20   21 ar  
    47   22   50 1   
    48   23   24 1   
    49   25   51 1   
    50   26   52 1   
    51   27   28 1   
    52   28   29 2   
    53   28   30 1   
    54   30   59 1   
    55   31   58 1   
    56   32   54 1   
    57   33   55 1   
    58   36   57 1   
    59   37   57 1   
    60   38   57 1   
    61   41   59 1   
    62   42   59 1   
    63   43   59 1   
    64   53   58 1   
@<TRIPOS>SUBSTRUCTURE
     1 MT4         1 TEMP              0 ****  ****    0 ROOT
