@<TRIPOS>MOLECULE
MT5
   52    53     1     0     0
SMALL
bcc


@<TRIPOS>ATOM
      1 C1          0.0120   -0.1040   -0.1070 c3        1 MT5     -0.094100
      2 C2          1.5180   -0.1020   -0.0430 c3        1 MT5     -0.079400
      3 C3          2.0110   -0.0420    1.3870 c3        1 MT5     -0.079400
      4 C4          3.5240   -0.0400    1.4450 c3        1 MT5     -0.079400
      5 C5          4.0140    0.0200    2.8760 c3        1 MT5     -0.079400
      6 C6          5.5280    0.0220    2.9310 c3        1 MT5     -0.079400
      7 C7          6.0120    0.0820    4.3660 c3        1 MT5     -0.096400
      8 C8          7.5390    0.0820    4.3850 c3        1 MT5      0.017300
      9 N9          8.0760    0.1410    5.7330 nh        1 MT5     -0.373100
     10 C10         9.4150    0.1400    5.9830 cz        1 MT5      0.473300
     11 N11        10.3940    0.0270    4.9940 nh        1 MT5     -0.369200
     12 C12        11.7270    0.1480    5.5840 c3        1 MT5      0.006300
     13 C13        11.4690    0.1870    7.1250 c3        1 MT5      0.018000
     14 N14         9.9980    0.2680    7.2460 nh        1 MT5     -0.301200
     15 C15         9.3740   -0.0330    8.5400 c3        1 MT5      0.252800
     16 O16         9.6830    1.0020    9.4450 oh        1 MT5     -0.547800
     17 C17         9.9730   -1.3400    9.1490 c3        1 MT5      0.120100
     18 O18         9.3700   -1.4780   10.4160 oh        1 MT5     -0.571800
     19 C19        11.5000   -1.1970    9.2400 c3        1 MT5      0.069100
     20 O20        12.0480   -2.3840    9.7840 oh        1 MT5     -0.596800
     21 C21        12.0740   -1.0540    7.8190 c3        1 MT5      0.131100
     22 O22        13.4680   -0.8230    7.8530 oh        1 MT5     -0.588800
     23 H11        10.2230    0.2750    4.0470 hn        1 MT5      0.326700
     24 H121       12.2410    1.0870    5.2420 h1        1 MT5      0.104200
     25 H122       12.3450   -0.7440    5.2910 h1        1 MT5      0.104200
     26 H13        11.9090    1.1150    7.5900 h1        1 MT5      0.129700
     27 H21        11.8590   -1.9910    7.2320 h1        1 MT5      0.065700
     28 H17         9.7020   -2.2180    8.4980 h1        1 MT5      0.061700
     29 H18         9.7710   -2.2590   10.8280 ho        1 MT5      0.433000
     30 H19        11.7630   -0.2960    9.8610 h1        1 MT5      0.098700
     31 H20        12.2490   -2.2130   10.7130 ho        1 MT5      0.431000
     32 H22        13.8550   -1.5430    8.3740 ho        1 MT5      0.443000
     33 H1         -0.3300   -0.1480   -1.1690 hc        1 MT5      0.037700
     34 H2         -0.4050    0.8220    0.3600 hc        1 MT5      0.037700
     35 H3         -0.4050   -0.9870    0.4350 hc        1 MT5      0.037700
     36 H9          7.4300    0.1550    6.4940 hn        1 MT5      0.321700
     37 H23         1.9170    0.7780   -0.6140 hc        1 MT5      0.040700
     38 H24         1.9170   -1.0260   -0.5390 hc        1 MT5      0.040700
     39 H31         1.6130    0.8830    1.8830 hc        1 MT5      0.042700
     40 H32         1.6130   -0.9220    1.9580 hc        1 MT5      0.042700
     41 H41         3.9210    0.8400    0.8730 hc        1 MT5      0.043700
     42 H42         3.9200   -0.9640    0.9480 hc        1 MT5      0.043700
     43 H51         3.6170   -0.8600    3.4470 hc        1 MT5      0.046700
     44 H52         3.6170    0.9450    3.3710 hc        1 MT5      0.046700
     45 H61         5.9230    0.9030    2.3600 hc        1 MT5      0.050200
     46 H62         5.9230   -0.9040    2.4360 hc        1 MT5      0.050200
     47 H71         5.6160    1.0100    4.8570 hc        1 MT5      0.063700
     48 H72         5.6140   -0.8010    4.9330 hc        1 MT5      0.063700
     49 H81         7.9150   -0.8570    3.8820 h1        1 MT5      0.069700
     50 H82         7.9160    0.9740    3.8050 h1        1 MT5      0.069700
     51 H15         8.2600   -0.1500    8.4160 h2        1 MT5      0.072700
     52 H16         9.0600    1.7310    9.3120 ho        1 MT5      0.429000
@<TRIPOS>BOND
     1    1    2 1   
     2    1   33 1   
     3    1   34 1   
     4    1   35 1   
     5    2    3 1   
     6    2   37 1   
     7    2   38 1   
     8    3    4 1   
     9    3   39 1   
    10    3   40 1   
    11    4    5 1   
    12    4   41 1   
    13    4   42 1   
    14    5    6 1   
    15    5   43 1   
    16    5   44 1   
    17    6    7 1   
    18    6   45 1   
    19    6   46 1   
    20    7    8 1   
    21    7   47 1   
    22    7   48 1   
    23    8    9 1   
    24    8   49 1   
    25    8   50 1   
    26    9   10 2   
    27    9   36 1   
    28   10   11 1   
    29   10   14 1   
    30   11   12 1   
    31   11   23 1   
    32   12   13 1   
    33   12   24 1   
    34   12   25 1   
    35   13   14 1   
    36   13   21 1   
    37   13   26 1   
    38   14   15 1   
    39   15   16 1   
    40   15   17 1   
    41   15   51 1   
    42   16   52 1   
    43   17   18 1   
    44   17   19 1   
    45   17   28 1   
    46   18   29 1   
    47   19   20 1   
    48   19   21 1   
    49   19   30 1   
    50   20   31 1   
    51   21   22 1   
    52   21   27 1   
    53   22   32 1   
@<TRIPOS>SUBSTRUCTURE
     1 MT5         1 TEMP              0 ****  ****    0 ROOT
