@<TRIPOS>MOLECULE
MT5
   52    53     1     0     0
SMALL
bcc


@<TRIPOS>ATOM
      1 C1         10.0820   -0.6910    0.2520 c3        1 MT5     -0.094100
      2 C2          8.8890    0.2300    0.2140 c3        1 MT5     -0.079400
      3 C3          7.5930   -0.5480    0.1280 c3        1 MT5     -0.079400
      4 C4          6.3970    0.3800    0.0900 c3        1 MT5     -0.079400
      5 C5          5.1030   -0.4000    0.0040 c3        1 MT5     -0.079400
      6 C6          3.9090    0.5310   -0.0340 c3        1 MT5     -0.079400
      7 C7          2.6180   -0.2570   -0.1200 c3        1 MT5     -0.096400
      8 C8          1.4360    0.7110   -0.1550 c3        1 MT5      0.014300
      9 N9          0.1610    0.0250   -0.2390 nh        1 MT5     -0.348100
     10 C10        -1.0210    0.6860   -0.2870 cz        1 MT5      0.451300
     11 N11        -1.1770    2.0690   -0.1800 nh        1 MT5     -0.367200
     12 C12        -2.5890    2.4250   -0.3230 c3        1 MT5      0.006300
     13 C13        -3.3350    1.0570   -0.4580 c3        1 MT5      0.010000
     14 N14        -2.2670    0.0430   -0.4600 nh        1 MT5     -0.270200
     15 C15        -2.5330   -1.2590    0.1640 c3        1 MT5      0.240800
     16 O16        -1.7010   -2.2380   -0.4150 oh        1 MT5     -0.596800
     17 C17        -4.0290   -1.6600    0.0580 c3        1 MT5      0.086100
     18 O18        -4.2340   -2.0020   -1.3020 oh        1 MT5     -0.600800
     19 C19        -5.0110   -0.5540    0.4920 c3        1 MT5      0.072100
     20 O20        -5.5610   -0.8640    1.7610 oh        1 MT5     -0.592800
     21 C21        -4.3450    0.8250    0.6780 c3        1 MT5      0.138100
     22 O22        -5.3030    1.8580    0.5660 oh        1 MT5     -0.587800
     23 H11        -0.4600    2.7040   -0.4460 hn        1 MT5      0.323700
     24 H121       -2.9250    2.9850    0.5930 h1        1 MT5      0.104200
     25 H122       -2.7620    3.0590   -1.2330 h1        1 MT5      0.104200
     26 H13        -3.8720    0.9940   -1.4480 h1        1 MT5      0.126700
     27 H21        -3.8490    0.8720    1.6880 h1        1 MT5      0.071700
     28 H17        -4.1630   -2.5620    0.7230 h1        1 MT5      0.089700
     29 H18        -5.0110   -2.5760   -1.3450 ho        1 MT5      0.434000
     30 H19        -5.8220   -0.4640   -0.2870 h1        1 MT5      0.083700
     31 H20        -6.2480   -1.5310    1.6290 ho        1 MT5      0.426000
     32 H22        -5.9540    1.7100    1.2680 ho        1 MT5      0.442000
     33 H1         11.0260   -0.0970    0.3160 hc        1 MT5      0.037367
     34 H2         10.0300   -1.3670    1.1390 hc        1 MT5      0.037367
     35 H3         10.1230   -1.3220   -0.6680 hc        1 MT5      0.037367
     36 H9          0.1530   -0.9810   -0.2690 hn        1 MT5      0.345700
     37 H23         8.8790    0.8720    1.1340 hc        1 MT5      0.040700
     38 H24         8.9720    0.9170   -0.6680 hc        1 MT5      0.040700
     39 H31         7.6010   -1.1900   -0.7920 hc        1 MT5      0.042700
     40 H32         7.5080   -1.2360    1.0110 hc        1 MT5      0.042700
     41 H41         6.3910    1.0220    1.0100 hc        1 MT5      0.042700
     42 H42         6.4830    1.0670   -0.7930 hc        1 MT5      0.042700
     43 H51         5.1110   -1.0420   -0.9170 hc        1 MT5      0.046700
     44 H52         5.0180   -1.0870    0.8870 hc        1 MT5      0.046700
     45 H61         3.9030    1.1710    0.8870 hc        1 MT5      0.049200
     46 H62         3.9960    1.2160   -0.9180 hc        1 MT5      0.049200
     47 H71         2.6270   -0.8940   -1.0440 hc        1 MT5      0.064700
     48 H72         2.5340   -0.9410    0.7650 hc        1 MT5      0.064700
     49 H81         1.4480    1.3460    0.7780 h1        1 MT5      0.068200
     50 H82         1.5420    1.3920   -1.0500 h1        1 MT5      0.068200
     51 H15        -2.2330   -1.2380    1.2600 h2        1 MT5      0.101700
     52 H16        -2.0760   -2.5140   -1.2680 ho        1 MT5      0.456000
@<TRIPOS>BOND
     1    1    2 1   
     2    1   33 1   
     3    1   34 1   
     4    1   35 1   
     5    2    3 1   
     6    2   37 1   
     7    2   38 1   
     8    3    4 1   
     9    3   39 1   
    10    3   40 1   
    11    4    5 1   
    12    4   41 1   
    13    4   42 1   
    14    5    6 1   
    15    5   43 1   
    16    5   44 1   
    17    6    7 1   
    18    6   45 1   
    19    6   46 1   
    20    7    8 1   
    21    7   47 1   
    22    7   48 1   
    23    8    9 1   
    24    8   49 1   
    25    8   50 1   
    26    9   10 2   
    27    9   36 1   
    28   10   11 1   
    29   10   14 1   
    30   11   12 1   
    31   11   23 1   
    32   12   13 1   
    33   12   24 1   
    34   12   25 1   
    35   13   14 1   
    36   13   21 1   
    37   13   26 1   
    38   14   15 1   
    39   15   16 1   
    40   15   17 1   
    41   15   51 1   
    42   16   52 1   
    43   17   18 1   
    44   17   19 1   
    45   17   28 1   
    46   18   29 1   
    47   19   20 1   
    48   19   21 1   
    49   19   30 1   
    50   20   31 1   
    51   21   22 1   
    52   21   27 1   
    53   22   32 1   
@<TRIPOS>SUBSTRUCTURE
     1 MT5         1 TEMP              0 ****  ****    0 ROOT
