@<TRIPOS>MOLECULE
MT6
   31    32     1     0     0
SMALL
bcc


@<TRIPOS>ATOM
      1 C8         -0.0680    0.7530   -0.0280 ca        1 MT6     -0.051000
      2 C7          1.3270    0.8270    0.0190 ca        1 MT6     -0.109000
      3 C5          3.4880    0.9930   -1.2610 c1        1 MT6     -0.001000
      4 C6          2.0840    1.4880   -1.0740 c3        1 MT6     -0.016000
      5 N1          4.5760   -1.2600   -4.0540 ny        1 MT6      0.099000
      6 C2          3.5780   -1.1350   -5.0090 c1        1 MT6     -0.761000
      7 C4          3.5370    0.5090   -2.5940 c2        1 MT6     -0.409000
      8 O3         -2.9620    0.5360    0.0590 o         1 MT6     -0.348000
      9 O4         -2.8270   -0.5420    2.0090 os        1 MT6     -0.277000
     10 C15        -4.2530   -0.6310    1.9760 c3        1 MT6     -0.062000
     11 C9         -0.7650    0.1560    1.0300 ca        1 MT6     -0.116000
     12 C10        -0.0710   -0.3580    2.1310 ca        1 MT6     -0.055000
     13 C13         1.3210   -0.2770    2.1710 ca        1 MT6     -0.153000
     14 C11         2.0230    0.3110    1.1200 ca        1 MT6     -0.067000
     15 O2          1.3800    1.2200   -2.3970 os        1 MT6     -0.179000
     16 C12         2.2740    0.6640   -3.2160 c2        1 MT6      0.227000
     17 C1          2.7240   -1.0720   -5.8930 c1        1 MT6      0.000000
     18 C3          4.7380   -0.0200   -3.1970 c2        1 MT6      0.363000
     19 O1          5.8910    0.3840   -3.0860 o         1 MT6     -0.228000
     20 H1         -0.6250    1.1530   -0.8930 ha        1 MT6      0.170000
     21 H2          2.0540    2.6100   -0.9830 h1        1 MT6      0.174000
     22 H3          4.3520   -2.0460   -3.4310 hn        1 MT6      0.221000
     23 H4          5.4750   -1.4560   -4.5150 hn        1 MT6      0.221000
     24 H5         -4.6970    0.3940    1.9640 h1        1 MT6      0.092667
     25 H6         -4.5780   -1.2000    1.0730 h1        1 MT6      0.092667
     26 H7         -4.5030   -1.1760    2.9190 h1        1 MT6      0.092667
     27 H8         -0.6290   -0.8240    2.9600 ha        1 MT6      0.160000
     28 H9          1.8680   -0.6790    3.0370 ha        1 MT6      0.147000
     29 H10         3.1240    0.3770    1.1460 ha        1 MT6      0.169000
     30 H11         1.9330    0.4140   -4.2400 h4        1 MT6      0.258000
     31 C14        -2.2320    0.0920    0.9500 c2        1 MT6      0.344000
@<TRIPOS>BOND
     1    1    2 1   
     2    1   11 1   
     3    1   20 1   
     4    2    4 1   
     5    2   14 1   
     6    3    4 1   
     7    3    7 1   
     8    4   15 1   
     9    4   21 1   
    10    5    6 1   
    11    5   18 1   
    12    5   22 1   
    13    5   23 1   
    14    6   17 1   
    15    7   16 1   
    16    7   18 1   
    17    8   31 1   
    18    9   10 1   
    19    9   31 1   
    20   10   24 1   
    21   10   25 1   
    22   10   26 1   
    23   11   12 1   
    24   11   31 1   
    25   12   13 1   
    26   12   27 1   
    27   13   14 1   
    28   13   28 1   
    29   14   29 1   
    30   15   16 1   
    31   16   30 1   
    32   18   19 1   
@<TRIPOS>SUBSTRUCTURE
     1 MT6         1 TEMP              0 ****  ****    0 ROOT
