@<TRIPOS>MOLECULE
MT8
   31    33     1     0     0
SMALL
bcc


@<TRIPOS>ATOM
      1 C1         -0.0400    0.0180   -0.0450 c3        1 MT8      0.204100
      2 O1         -0.6490   -1.1980    0.4050 oh        1 MT8     -0.590800
      3 C2          1.4870   -0.1080    0.0280 c3        1 MT8     -0.122400
      4 C3          1.9770    0.0040    1.4650 c3        1 MT8      0.092000
      5 C6         -0.4350    0.2810   -1.4990 c3        1 MT8     -0.124100
      6 N7          1.5660    1.2420    2.0920 n         1 MT8     -0.373000
      7 C8          2.4750    2.0030    2.8310 c         1 MT8      0.705500
      8 O8          3.6410    1.6010    2.9980 o         1 MT8     -0.629500
      9 C9          2.0060    3.3250    3.3980 c3        1 MT8     -0.146400
     10 C10         0.5380    3.3210    3.7580 c3        1 MT8     -0.030100
     11 C11        -0.2930    2.7150    2.6850 ca        1 MT8     -0.131300
     12 C12        -1.6100    3.1300    2.4990 ca        1 MT8     -0.092000
     13 C13        -2.4120    2.5300    1.5310 ca        1 MT8     -0.161000
     14 C14        -1.8880    1.5200    0.7300 ca        1 MT8     -0.078000
     15 C15         0.2470    1.6820    1.8750 ca        1 MT8      0.097600
     16 C20        -0.5620    1.1000    0.8680 ca        1 MT8     -0.108300
     17 HO1        -0.3790   -1.8880   -0.2130 ho        1 MT8      0.397000
     18 H2          1.8000   -1.1050   -0.3760 hc        1 MT8      0.058200
     19 H2A         1.9540    0.6860   -0.6100 hc        1 MT8      0.058200
     20 H3          3.1020   -0.0630    1.4930 h1        1 MT8      0.072700
     21 H3A         1.5500   -0.8550    2.0610 h1        1 MT8      0.072700
     22 H6          0.1350   -0.3980   -2.1770 hc        1 MT8      0.047033
     23 H6A        -1.5250    0.0890   -1.6440 hc        1 MT8      0.047033
     24 H6B        -0.2110    1.3380   -1.7720 hc        1 MT8      0.047033
     25 H9          2.2190    4.1120    2.6250 hc        1 MT8      0.080200
     26 H9A         2.6280    3.5550    4.3030 hc        1 MT8      0.080200
     27 H10         0.2070    4.3740    3.9620 hc        1 MT8      0.059700
     28 H10A        0.3840    2.7360    4.7060 hc        1 MT8      0.059700
     29 H12        -2.0190    3.9320    3.1330 ha        1 MT8      0.133000
     30 H13        -3.4550    2.8500    1.4030 ha        1 MT8      0.136000
     31 H14        -2.5290    1.0330   -0.0220 ha        1 MT8      0.139000
@<TRIPOS>BOND
     1    1    2 1   
     2    1    3 1   
     3    1    5 1   
     4    1   16 1   
     5    2   17 1   
     6    3    4 1   
     7    3   18 1   
     8    3   19 1   
     9    4    6 1   
    10    4   20 1   
    11    4   21 1   
    12    5   22 1   
    13    5   23 1   
    14    5   24 1   
    15    6    7 1   
    16    6   15 1   
    17    7    8 2   
    18    7    9 1   
    19    9   10 1   
    20    9   25 1   
    21    9   26 1   
    22   10   11 1   
    23   10   27 1   
    24   10   28 1   
    25   11   12 ar  
    26   11   15 ar  
    27   12   13 ar  
    28   12   29 1   
    29   13   14 ar  
    30   13   30 1   
    31   14   16 ar  
    32   14   31 1   
    33   15   16 ar  
@<TRIPOS>SUBSTRUCTURE
     1 MT8         1 TEMP              0 ****  ****    0 ROOT
