@<TRIPOS>MOLECULE
MT8
   31    33     1     0     0
SMALL
bcc


@<TRIPOS>ATOM
      1 C1         -0.0380    0.0190   -0.0410 c3        1 MT8      0.204100
      2 O1         -0.6490   -1.1950    0.4100 oh        1 MT8     -0.590800
      3 C2          1.4890   -0.1100    0.0330 c3        1 MT8     -0.122400
      4 C3          1.9780    0.0040    1.4710 c3        1 MT8      0.092000
      5 C6         -0.4320    0.2810   -1.4960 c3        1 MT8     -0.124100
      6 N7          1.5680    1.2440    2.0950 n         1 MT8     -0.373000
      7 C8          2.4780    2.0050    2.8330 c         1 MT8      0.705500
      8 O8          3.6440    1.6020    3.0010 o         1 MT8     -0.629500
      9 C9          2.0110    3.3290    3.3970 c3        1 MT8     -0.146400
     10 C10         0.5430    3.3270    3.7570 c3        1 MT8     -0.030100
     11 C11        -0.2890    2.7210    2.6840 ca        1 MT8     -0.131300
     12 C12        -1.6050    3.1370    2.4970 ca        1 MT8     -0.092000
     13 C13        -2.4070    2.5370    1.5300 ca        1 MT8     -0.161000
     14 C14        -1.8840    1.5240    0.7310 ca        1 MT8     -0.078000
     15 C15         0.2510    1.6850    1.8770 ca        1 MT8      0.097600
     16 C20        -0.5590    1.1030    0.8700 ca        1 MT8     -0.108300
     17 HO1        -0.3800   -1.8870   -0.2060 ho        1 MT8      0.397000
     18 H2          1.9570    0.6820   -0.6050 hc        1 MT8      0.058200
     19 H2A         1.8010   -1.1080   -0.3680 hc        1 MT8      0.058200
     20 H3          3.1030   -0.0650    1.5000 h1        1 MT8      0.072700
     21 H3A         1.5490   -0.8530    2.0680 h1        1 MT8      0.072700
     22 H6         -0.2050    1.3370   -1.7710 hc        1 MT8      0.047033
     23 H6A         0.1380   -0.4000   -2.1720 hc        1 MT8      0.047033
     24 H6B        -1.5220    0.0910   -1.6420 hc        1 MT8      0.047033
     25 H9          2.2250    4.1140    2.6230 hc        1 MT8      0.080200
     26 H9A         2.6330    3.5590    4.3020 hc        1 MT8      0.080200
     27 H10         0.3870    2.7440    4.7060 hc        1 MT8      0.059700
     28 H10A        0.2130    4.3810    3.9580 hc        1 MT8      0.059700
     29 H12        -2.0130    3.9410    3.1290 ha        1 MT8      0.133000
     30 H13        -3.4500    2.8580    1.4000 ha        1 MT8      0.136000
     31 H14        -2.5250    1.0370   -0.0210 ha        1 MT8      0.139000
@<TRIPOS>BOND
     1    1    2 1   
     2    1    3 1   
     3    1    5 1   
     4    1   16 1   
     5    2   17 1   
     6    3    4 1   
     7    3   18 1   
     8    3   19 1   
     9    4    6 1   
    10    4   20 1   
    11    4   21 1   
    12    5   22 1   
    13    5   23 1   
    14    5   24 1   
    15    6    7 1   
    16    6   15 1   
    17    7    8 2   
    18    7    9 1   
    19    9   10 1   
    20    9   25 1   
    21    9   26 1   
    22   10   11 1   
    23   10   27 1   
    24   10   28 1   
    25   11   12 ar  
    26   11   15 ar  
    27   12   13 ar  
    28   12   29 1   
    29   13   14 ar  
    30   13   30 1   
    31   14   16 ar  
    32   14   31 1   
    33   15   16 ar  
@<TRIPOS>SUBSTRUCTURE
     1 MT8         1 TEMP              0 ****  ****    0 ROOT
