@<TRIPOS>MOLECULE
MTA
   35    37     1     0     0
SMALL
bcc


@<TRIPOS>ATOM
      1 CS          2.4700   -0.9870    4.6440 c3        1 MTA     -0.048000
      2 S5'         1.4350    0.3080    4.0790 ss        1 MTA     -0.269200
      3 C5'         0.3780   -0.5400    2.9410 c3        1 MTA     -0.043300
      4 C4'        -0.8120    0.3430    2.6270 c3        1 MTA      0.109100
      5 O4'        -0.4760    1.3090    1.6170 os        1 MTA     -0.398600
      6 C2'        -2.1240   -0.1380    0.6050 c3        1 MTA      0.082100
      7 O2'        -3.3890    0.4350    0.3590 oh        1 MTA     -0.591800
      8 C3'        -2.0200   -0.4750    2.1090 c3        1 MTA      0.130100
      9 O3'        -3.1870   -0.1890    2.8370 oh        1 MTA     -0.572800
     10 C1'        -1.0200    0.9410    0.3490 c3        1 MTA      0.222800
     11 N9          0.0290    0.5020   -0.5440 na        1 MTA     -0.294000
     12 C8          1.4320    0.5710   -0.3550 cc        1 MTA      0.422700
     13 N7          2.1330    0.1720   -1.4260 nd        1 MTA     -0.548100
     14 C5          1.1720   -0.1720   -2.3890 ca        1 MTA     -0.228200
     15 C6          1.2680   -0.6580   -3.7370 ca        1 MTA      0.764200
     16 N6          2.4920   -0.9110   -4.2940 nh        1 MTA     -0.956500
     17 N1          0.1070   -0.8840   -4.4430 nb        1 MTA     -0.795000
     18 C2         -1.0720   -0.6430   -3.8120 ca        1 MTA      0.690900
     19 N3         -1.3170   -0.1960   -2.5570 nb        1 MTA     -0.761000
     20 C4         -0.1670    0.0380   -1.8530 ca        1 MTA      0.449800
     21 HCS1        3.0750   -1.4290    3.8210 h1        1 MTA      0.065367
     22 HCS2        3.1580   -0.5270    5.3920 h1        1 MTA      0.065367
     23 HCS3        1.8920   -1.8000    5.1360 h1        1 MTA      0.065367
     24 H5'1        0.9360   -0.7850    2.0040 h1        1 MTA      0.071200
     25 H5'2        0.0310   -1.4990    3.3990 h1        1 MTA      0.071200
     26 H4'        -1.1010    0.9580    3.5260 h1        1 MTA      0.110700
     27 H2'        -1.9760   -1.0600   -0.0160 h1        1 MTA      0.084700
     28 HO2'       -3.5300    0.4000   -0.5970 ho        1 MTA      0.434000
     29 H3'        -1.8610   -1.5790    2.2550 h1        1 MTA      0.093700
     30 H3T        -3.5190    0.6740    2.5520 ho        1 MTA      0.425000
     31 H1'        -1.4770    1.8890   -0.0700 h2        1 MTA      0.104700
     32 H8          1.8490    0.9320    0.5960 h5        1 MTA      0.092800
     33 H61         2.5680   -1.1830   -5.2420 hn        1 MTA      0.449300
     34 H62         3.3050   -0.6600   -3.7880 hn        1 MTA      0.449300
     35 H2         -1.9740   -0.8440   -4.4290 h5        1 MTA      0.051100
@<TRIPOS>BOND
     1    1    2 1   
     2    1   21 1   
     3    1   22 1   
     4    1   23 1   
     5    2    3 1   
     6    3    4 1   
     7    3   24 1   
     8    3   25 1   
     9    4    5 1   
    10    4    8 1   
    11    4   26 1   
    12    5   10 1   
    13    6    7 1   
    14    6    8 1   
    15    6   10 1   
    16    6   27 1   
    17    7   28 1   
    18    8    9 1   
    19    8   29 1   
    20    9   30 1   
    21   10   11 1   
    22   10   31 1   
    23   11   12 1   
    24   11   20 1   
    25   12   13 2   
    26   12   32 1   
    27   13   14 1   
    28   14   15 ar  
    29   14   20 ar  
    30   15   16 1   
    31   15   17 ar  
    32   16   33 1   
    33   16   34 1   
    34   17   18 ar  
    35   18   19 ar  
    36   18   35 1   
    37   19   20 ar  
@<TRIPOS>SUBSTRUCTURE
     1 MTA         1 TEMP              0 ****  ****    0 ROOT
