@<TRIPOS>MOLECULE
MTA
   35    37     1     0     0
SMALL
bcc


@<TRIPOS>ATOM
      1 CS          0.2430   -0.1730    0.6810 c3        1 MTA     -0.050000
      2 S5'         1.3050    1.1680    0.3060 ss        1 MTA     -0.263200
      3 C5'         2.2550    1.3650    1.7780 c3        1 MTA     -0.050300
      4 C4'         3.3330    0.3170    1.9790 c3        1 MTA      0.133100
      5 O4'         4.5180    0.6640    1.2430 os        1 MTA     -0.396600
      6 C2'         5.0930    0.8990    3.5840 c3        1 MTA      0.085100
      7 O2'         6.0190    0.0500    4.2210 oh        1 MTA     -0.598800
      8 C3'         3.7390    0.1670    3.4640 c3        1 MTA      0.128100
      9 O3'         3.7900   -1.2160    3.7410 oh        1 MTA     -0.590800
     10 C1'         5.5370    1.1680    2.1080 c3        1 MTA      0.226800
     11 N9          5.7820    2.5660    1.8250 na        1 MTA     -0.294000
     12 C8          5.3110    3.3340    0.7310 cc        1 MTA      0.424700
     13 N7          5.8000    4.5820    0.7080 nd        1 MTA     -0.547100
     14 C5          6.6460    4.6670    1.8240 ca        1 MTA     -0.228200
     15 C6          7.4660    5.7210    2.3520 ca        1 MTA      0.766200
     16 N6          7.4890    6.9470    1.7450 nh        1 MTA     -0.957500
     17 N1          8.2100    5.4770    3.4850 nb        1 MTA     -0.796000
     18 C2          8.1160    4.2440    4.0470 ca        1 MTA      0.691900
     19 N3          7.3890    3.1650    3.6710 nb        1 MTA     -0.767000
     20 C4          6.6530    3.3990    2.5410 ca        1 MTA      0.449800
     21 HCS1       -0.4040    0.0410    1.5610 h1        1 MTA      0.065700
     22 HCS2       -0.4010   -0.3130   -0.2180 h1        1 MTA      0.065700
     23 HCS3        0.8040   -1.1140    0.8740 h1        1 MTA      0.065700
     24 H5'1        1.5740    1.3760    2.6640 h1        1 MTA      0.083200
     25 H5'2        2.7250    2.3780    1.6790 h1        1 MTA      0.083200
     26 H4'         3.0190   -0.6780    1.5540 h1        1 MTA      0.109700
     27 H2'         4.9670    1.8510    4.1670 h1        1 MTA      0.077700
     28 HO2'        6.7920    0.5890    4.4410 ho        1 MTA      0.441000
     29 H3'         2.9870    0.6410    4.1520 h1        1 MTA      0.058700
     30 H3T         4.4430   -1.3620    4.4390 ho        1 MTA      0.433000
     31 H1'         6.4730    0.5790    1.8600 h2        1 MTA      0.104700
     32 H8          4.6160    2.8950    0.0020 h5        1 MTA      0.091800
     33 H61         6.9900    7.0700    0.8990 hn        1 MTA      0.450800
     34 H62         8.0880    7.6630    2.0720 hn        1 MTA      0.450800
     35 H2          8.7370    4.1040    4.9590 h5        1 MTA      0.051100
@<TRIPOS>BOND
     1    1    2 1   
     2    1   21 1   
     3    1   22 1   
     4    1   23 1   
     5    2    3 1   
     6    3    4 1   
     7    3   24 1   
     8    3   25 1   
     9    4    5 1   
    10    4    8 1   
    11    4   26 1   
    12    5   10 1   
    13    6    7 1   
    14    6    8 1   
    15    6   10 1   
    16    6   27 1   
    17    7   28 1   
    18    8    9 1   
    19    8   29 1   
    20    9   30 1   
    21   10   11 1   
    22   10   31 1   
    23   11   12 1   
    24   11   20 1   
    25   12   13 2   
    26   12   32 1   
    27   13   14 1   
    28   14   15 ar  
    29   14   20 ar  
    30   15   16 1   
    31   15   17 ar  
    32   16   33 1   
    33   16   34 1   
    34   17   18 ar  
    35   18   19 ar  
    36   18   35 1   
    37   19   20 ar  
@<TRIPOS>SUBSTRUCTURE
     1 MTA         1 TEMP              0 ****  ****    0 ROOT
