@<TRIPOS>MOLECULE
MTA
   36    38     1     0     0
SMALL
bcc


@<TRIPOS>ATOM
      1 CS          0.7210    1.5640    0.0670 c3        1 MTA     -0.051000
      2 S5'         2.3440    0.9190    0.2230 ss        1 MTA     -0.256200
      3 C5'         2.4960    0.7330    1.9760 c3        1 MTA     -0.061300
      4 C4'         3.6650   -0.1660    2.3250 c3        1 MTA      0.144100
      5 O4'         4.8700    0.2310    1.6440 os        1 MTA     -0.387600
      6 C2'         5.2960    0.6680    3.9740 c3        1 MTA      0.089100
      7 O2'         6.2820   -0.0790    4.6340 oh        1 MTA     -0.565800
      8 C3'         3.9650   -0.1110    3.8380 c3        1 MTA      0.083100
      9 O3'         4.1330   -1.4440    4.2760 oh        1 MTA     -0.580800
     10 C1'         5.7370    0.9600    2.5010 c3        1 MTA      0.208800
     11 N9          5.7090    2.3720    2.1300 na        1 MTA     -0.272000
     12 C8          4.9320    2.9810    1.1210 cc        1 MTA      0.507700
     13 N7          5.2450    4.2740    0.8920 nd        1 MTA     -0.601100
     14 C5          6.2950    4.5500    1.7690 ca        1 MTA     -0.130200
     15 C6          7.0860    5.6800    2.0330 ca        1 MTA      0.507200
     16 N6          6.8280    6.9110    1.2630 n4        1 MTA     -0.813300
     17 N1          8.0750    5.6690    2.9630 nb        1 MTA     -0.679000
     18 C2          8.2700    4.4980    3.6330 ca        1 MTA      0.666900
     19 N3          7.6040    3.3190    3.5000 nb        1 MTA     -0.610000
     20 C4          6.6200    3.3430    2.5710 ca        1 MTA      0.449800
     21 HCS1        0.6130    2.5590    0.5510 h1        1 MTA      0.075700
     22 HCS2        0.5410    1.6690   -1.0290 h1        1 MTA      0.075700
     23 HCS3       -0.0430    0.8740    0.4910 h1        1 MTA      0.075700
     24 H5'1        1.5640    0.2790    2.4000 h1        1 MTA      0.073200
     25 H5'2        2.6250    1.7400    2.4450 h1        1 MTA      0.073200
     26 H4'         3.4860   -1.2230    1.9750 h1        1 MTA      0.135700
     27 H2'         5.1810    1.6010    4.5880 h1        1 MTA      0.106700
     28 HO2'        6.3090   -0.9660    4.2390 ho        1 MTA      0.431000
     29 H3'         3.1420    0.3940    4.4090 h1        1 MTA      0.073700
     30 H3T         4.1980   -1.4220    5.2420 ho        1 MTA      0.430000
     31 H1'         6.7840    0.5720    2.3040 h2        1 MTA      0.126700
     32 H8          4.1320    2.4060    0.5840 h5        1 MTA      0.142800
     33 H61         6.9720    6.7050    0.2660 hn        1 MTA      0.476800
     34 H62         5.8500    7.1890    1.4110 hn        1 MTA      0.476800
     35 H2          9.0900    4.5130    4.3900 h5        1 MTA      0.100100
     36 H63         7.4540    7.6720    1.5540 hn        1 MTA      0.476800
@<TRIPOS>BOND
     1    1    2 1   
     2    1   21 1   
     3    1   22 1   
     4    1   23 1   
     5    2    3 1   
     6    3    4 1   
     7    3   24 1   
     8    3   25 1   
     9    4    5 1   
    10    4    8 1   
    11    4   26 1   
    12    5   10 1   
    13    6    7 1   
    14    6    8 1   
    15    6   10 1   
    16    6   27 1   
    17    7   28 1   
    18    8    9 1   
    19    8   29 1   
    20    9   30 1   
    21   10   11 1   
    22   10   31 1   
    23   11   12 1   
    24   11   20 1   
    25   12   13 2   
    26   12   32 1   
    27   13   14 1   
    28   14   15 ar  
    29   14   20 ar  
    30   15   16 1   
    31   15   17 ar  
    32   16   33 1   
    33   16   34 1   
    34   16   36 1   
    35   17   18 ar  
    36   18   19 ar  
    37   18   35 1   
    38   19   20 ar  
@<TRIPOS>SUBSTRUCTURE
     1 MTA         1 TEMP              0 ****  ****    0 ROOT
