@<TRIPOS>MOLECULE
MTA
   35    37     1     0     0
SMALL
bcc


@<TRIPOS>ATOM
      1 CS          0.3240   -0.2840    0.6350 c3        1 MTA     -0.049000
      2 S5'         1.3940    1.0440    0.2360 ss        1 MTA     -0.265200
      3 C5'         2.2800    1.3190    1.7340 c3        1 MTA     -0.046300
      4 C4'         3.3820    0.3140    2.0110 c3        1 MTA      0.100100
      5 O4'         4.5690    0.6520    1.2750 os        1 MTA     -0.398600
      6 C2'         5.1690    0.8660    3.6080 c3        1 MTA      0.083100
      7 O2'         6.0520   -0.1070    4.1200 oh        1 MTA     -0.593800
      8 C3'         3.7570    0.2490    3.5110 c3        1 MTA      0.127100
      9 O3'         3.6730   -1.0650    4.0030 oh        1 MTA     -0.575800
     10 C1'         5.5750    1.1940    2.1330 c3        1 MTA      0.222800
     11 N9          5.7500    2.6070    1.8790 na        1 MTA     -0.294000
     12 C8          5.2120    3.3850    0.8240 cc        1 MTA      0.422700
     13 N7          5.6640    4.6470    0.8090 nd        1 MTA     -0.546100
     14 C5          6.5570    4.7310    1.8880 ca        1 MTA     -0.228200
     15 C6          7.3710    5.7960    2.4040 ca        1 MTA      0.766200
     16 N6          7.3310    7.0360    1.8280 nv        1 MTA     -0.957500
     17 N1          8.1750    5.5460    3.4940 nb        1 MTA     -0.796000
     18 C2          8.1430    4.2970    4.0280 ca        1 MTA      0.690900
     19 N3          7.4300    3.2060    3.6590 nb        1 MTA     -0.762000
     20 C4          6.6330    3.4470    2.5730 ca        1 MTA      0.449800
     21 HCS1       -0.2880   -0.4690   -0.2790 h1        1 MTA      0.065700
     22 HCS2        0.8830   -1.2120    0.8900 h1        1 MTA      0.065700
     23 HCS3       -0.3540   -0.0350    1.4810 h1        1 MTA      0.065700
     24 H5'1        1.5670    1.3320    2.5950 h1        1 MTA      0.084200
     25 H5'2        2.7210    2.3440    1.6230 h1        1 MTA      0.084200
     26 H4'         3.0940   -0.7070    1.6310 h1        1 MTA      0.096700
     27 H2'         5.1550    1.7760    4.2630 h1        1 MTA      0.085700
     28 HO2'        6.8460    0.3620    4.4120 ho        1 MTA      0.435000
     29 H3'         3.0300    0.8320    4.1410 h1        1 MTA      0.092700
     30 H3T         4.4510   -1.5540    3.7010 ho        1 MTA      0.426000
     31 H1'         6.5320    0.6560    1.8540 h2        1 MTA      0.103700
     32 H8          4.5020    2.9430    0.1110 h5        1 MTA      0.090800
     33 H61         6.7880    7.1650    1.0110 hn        1 MTA      0.450800
     34 H62         7.9230    7.7620    2.1470 hn        1 MTA      0.450800
     35 H2          8.8120    4.1530    4.9050 h5        1 MTA      0.051100
@<TRIPOS>BOND
     1    1    2 1   
     2    1   21 1   
     3    1   22 1   
     4    1   23 1   
     5    2    3 1   
     6    3    4 1   
     7    3   24 1   
     8    3   25 1   
     9    4    5 1   
    10    4    8 1   
    11    4   26 1   
    12    5   10 1   
    13    6    7 1   
    14    6    8 1   
    15    6   10 1   
    16    6   27 1   
    17    7   28 1   
    18    8    9 1   
    19    8   29 1   
    20    9   30 1   
    21   10   11 1   
    22   10   31 1   
    23   11   12 1   
    24   11   20 1   
    25   12   13 2   
    26   12   32 1   
    27   13   14 1   
    28   14   15 ar  
    29   14   20 ar  
    30   15   16 1   
    31   15   17 ar  
    32   16   33 1   
    33   16   34 1   
    34   17   18 ar  
    35   18   19 ar  
    36   18   35 1   
    37   19   20 ar  
@<TRIPOS>SUBSTRUCTURE
     1 MTA         1 TEMP              0 ****  ****    0 ROOT
