@<TRIPOS>MOLECULE
MTB
   39    40     1     0     0
SMALL
bcc


@<TRIPOS>ATOM
      1 C1         -0.1790    0.2120    0.2770 ca        1 MTB      0.121400
      2 C2          1.1920   -0.0060    0.0170 ca        1 MTB     -0.098600
      3 C3          2.0620   -0.1200    1.1070 ca        1 MTB     -0.105000
      4 C4          1.5990   -0.0410    2.4170 ca        1 MTB     -0.159000
      5 C5          0.2410    0.1590    2.6630 ca        1 MTB     -0.152000
      6 C6         -0.6490    0.2810    1.6010 ca        1 MTB     -0.152000
      7 C1'        -2.5710   -0.1430   -2.4290 ca        1 MTB      0.087400
      8 C2'        -3.9740   -0.1270   -2.4170 ca        1 MTB     -0.099000
      9 C3'        -4.7160   -0.0380   -3.6010 ca        1 MTB     -0.103300
     10 C4'        -3.9970    0.0340   -4.8130 ca        1 MTB      0.105100
     11 C5'        -2.5940    0.0210   -4.8340 ca        1 MTB     -0.215000
     12 C6'        -1.8740   -0.0610   -3.6510 ca        1 MTB     -0.066000
     13 C           1.7840   -0.1190   -1.3860 c         1 MTB      0.916200
     14 CT3        -6.2220   -0.0200   -3.5790 c3        1 MTB      0.012300
     15 CHV        -6.7860   -0.1070   -2.1640 c3        1 MTB     -0.085767
     16 CHW        -6.7650   -1.2110   -4.3660 c3        1 MTB     -0.085767
     17 CHX        -6.7330    1.2770   -4.2020 c3        1 MTB     -0.085767
     18 N1         -1.0570    0.4820   -0.8340 ne        1 MTB     -0.154400
     19 N1'        -1.8390   -0.3830   -1.2060 nf        1 MTB     -0.185400
     20 O           1.0680   -0.5650   -2.3260 o         1 MTB     -0.828300
     21 OXT         2.9910    0.2260   -1.5240 o         1 MTB     -0.828300
     22 O4'        -4.7050    0.1200   -5.9980 oh        1 MTB     -0.516100
     23 H3          3.1340   -0.2640    0.8910 ha        1 MTB      0.155000
     24 H4          2.3010   -0.1350    3.2570 ha        1 MTB      0.108000
     25 H5         -0.1310    0.2170    3.6950 ha        1 MTB      0.106000
     26 H6         -1.7190    0.4330    1.8030 ha        1 MTB      0.116000
     27 H2'        -4.4920   -0.1870   -1.4470 ha        1 MTB      0.136000
     28 H5'        -2.0610    0.0780   -5.7940 ha        1 MTB      0.129000
     29 H6'        -0.7630   -0.0820   -3.6520 ha        1 MTB      0.213000
     30 H11        -6.4460    0.7600   -1.5490 hc        1 MTB      0.033922
     31 H12        -6.4690   -1.0560   -1.6690 hc        1 MTB      0.033922
     32 H13        -7.9030   -0.0900   -2.2050 hc        1 MTB      0.033922
     33 H21        -6.3940   -2.1650   -3.9230 hc        1 MTB      0.033922
     34 H22        -6.4380   -1.1580   -5.4320 hc        1 MTB      0.033922
     35 H23        -7.8810   -1.2110   -4.3350 hc        1 MTB      0.033922
     36 H31        -6.3390    2.1550   -3.6370 hc        1 MTB      0.033922
     37 H32        -7.8490    1.3010   -4.1700 hc        1 MTB      0.033922
     38 H33        -6.4050    1.3570   -5.2660 hc        1 MTB      0.033922
     39 HO4'       -4.0610    0.1590   -6.7190 ho        1 MTB      0.409000
@<TRIPOS>BOND
     1    1    2 ar  
     2    1    6 ar  
     3    1   18 1   
     4    2    3 ar  
     5    2   13 1   
     6    3    4 ar  
     7    3   23 1   
     8    4    5 ar  
     9    4   24 1   
    10    5    6 ar  
    11    5   25 1   
    12    6   26 1   
    13    7    8 ar  
    14    7   12 ar  
    15    7   19 1   
    16    8    9 ar  
    17    8   27 1   
    18    9   10 ar  
    19    9   14 1   
    20   10   11 ar  
    21   10   22 1   
    22   11   12 ar  
    23   11   28 1   
    24   12   29 1   
    25   13   20 1   
    26   13   21 1   
    27   14   15 1   
    28   14   16 1   
    29   14   17 1   
    30   15   30 1   
    31   15   31 1   
    32   15   32 1   
    33   16   33 1   
    34   16   34 1   
    35   16   35 1   
    36   17   36 1   
    37   17   37 1   
    38   17   38 1   
    39   18   19 2   
    40   22   39 1   
@<TRIPOS>SUBSTRUCTURE
     1 MTB         1 TEMP              0 ****  ****    0 ROOT
