@<TRIPOS>MOLECULE
MTB
   39    40     1     0     0
SMALL
bcc


@<TRIPOS>ATOM
      1 C1          0.9720    0.2170   -2.6730 ca        1 MTB      0.121400
      2 C2          0.0380   -0.0210   -3.7050 ca        1 MTB     -0.098600
      3 C3          0.5120   -0.1200   -5.0180 ca        1 MTB     -0.105000
      4 C4          1.8690   -0.0070   -5.3100 ca        1 MTB     -0.159000
      5 C5          2.7850    0.2100   -4.2820 ca        1 MTB     -0.152000
      6 C6          2.3450    0.3180   -2.9660 ca        1 MTB     -0.152000
      7 C1'        -0.0690   -0.1740    0.7810 ca        1 MTB      0.087400
      8 C2'         0.6760   -0.1440    1.9700 ca        1 MTB     -0.099000
      9 C3'         0.0540   -0.0740    3.2240 ca        1 MTB     -0.103300
     10 C4'        -1.3550   -0.0350    3.2460 ca        1 MTB      0.105100
     11 C5'        -2.1090   -0.0620    2.0620 ca        1 MTB     -0.215000
     12 C6'        -1.4770   -0.1250    0.8290 ca        1 MTB     -0.066000
     13 C          -1.4640   -0.1700   -3.4740 c         1 MTB      0.916200
     14 CT3         0.8620   -0.0410    4.4950 c3        1 MTB      0.012300
     15 CHV         2.3650   -0.0920    4.2320 c3        1 MTB     -0.085767
     16 CHW         0.5040   -1.2430    5.3650 c3        1 MTB     -0.085767
     17 CHX         0.5700    1.2480    5.2600 c3        1 MTB     -0.085767
     18 N1          0.4810    0.4710   -1.3420 ne        1 MTB     -0.154400
     19 N1'         0.5940   -0.3940   -0.4830 nf        1 MTB     -0.185400
     20 O          -1.8790   -0.6290   -2.3720 o         1 MTB     -0.828300
     21 OXT        -2.2220    0.1600   -4.4290 o         1 MTB     -0.828300
     22 O4'        -1.9950    0.0330    4.4710 oh        1 MTB     -0.516100
     23 H3         -0.2300   -0.2790   -5.8170 ha        1 MTB      0.155000
     24 H4          2.2180   -0.0900   -6.3480 ha        1 MTB      0.108000
     25 H5          3.8570    0.2940   -4.5050 ha        1 MTB      0.106000
     26 H6          3.0730    0.4860   -2.1600 ha        1 MTB      0.116000
     27 H2'         1.7740   -0.1780    1.9020 ha        1 MTB      0.136000
     28 H5'        -3.2070   -0.0300    2.1120 ha        1 MTB      0.129000
     29 H6'        -2.0600   -0.1560   -0.1170 ha        1 MTB      0.213000
     30 H11         2.9150   -0.0650    5.2050 hc        1 MTB      0.033922
     31 H12         2.6420   -1.0320    3.7000 hc        1 MTB      0.033922
     32 H13         2.6900    0.7850    3.6230 hc        1 MTB      0.033922
     33 H21         0.7090   -2.1910    4.8140 hc        1 MTB      0.033922
     34 H22         1.1160   -1.2310    6.3000 hc        1 MTB      0.033922
     35 H23        -0.5760   -1.2160    5.6460 hc        1 MTB      0.033922
     36 H31         0.8230    2.1340    4.6310 hc        1 MTB      0.033922
     37 H32        -0.5090    1.3010    5.5390 hc        1 MTB      0.033922
     38 H33         1.1820    1.2830    6.1930 hc        1 MTB      0.033922
     39 HO4'       -2.9470    0.0500    4.3000 ho        1 MTB      0.409000
@<TRIPOS>BOND
     1    1    2 ar  
     2    1    6 ar  
     3    1   18 1   
     4    2    3 ar  
     5    2   13 1   
     6    3    4 ar  
     7    3   23 1   
     8    4    5 ar  
     9    4   24 1   
    10    5    6 ar  
    11    5   25 1   
    12    6   26 1   
    13    7    8 ar  
    14    7   12 ar  
    15    7   19 1   
    16    8    9 ar  
    17    8   27 1   
    18    9   10 ar  
    19    9   14 1   
    20   10   11 ar  
    21   10   22 1   
    22   11   12 ar  
    23   11   28 1   
    24   12   29 1   
    25   13   20 1   
    26   13   21 1   
    27   14   15 1   
    28   14   16 1   
    29   14   17 1   
    30   15   30 1   
    31   15   31 1   
    32   15   32 1   
    33   16   33 1   
    34   16   34 1   
    35   16   35 1   
    36   17   36 1   
    37   17   37 1   
    38   17   38 1   
    39   18   19 2   
    40   22   39 1   
@<TRIPOS>SUBSTRUCTURE
     1 MTB         1 TEMP              0 ****  ****    0 ROOT
