@<TRIPOS>MOLECULE
MTB
   39    40     1     0     0
SMALL
bcc


@<TRIPOS>ATOM
      1 C1         -0.1760    0.2070    0.2740 ca        1 MTB      0.121400
      2 C2          1.1950   -0.0110    0.0120 ca        1 MTB     -0.098600
      3 C3          2.0670   -0.1280    1.1000 ca        1 MTB     -0.105000
      4 C4          1.6050   -0.0540    2.4110 ca        1 MTB     -0.159000
      5 C5          0.2470    0.1440    2.6600 ca        1 MTB     -0.152000
      6 C6         -0.6450    0.2690    1.5990 ca        1 MTB     -0.152000
      7 C1'        -2.5710   -0.1400   -2.4300 ca        1 MTB      0.087400
      8 C2'        -3.9750   -0.1250   -2.4160 ca        1 MTB     -0.099000
      9 C3'        -4.7180   -0.0330   -3.5990 ca        1 MTB     -0.103300
     10 C4'        -4.0010    0.0450   -4.8110 ca        1 MTB      0.105100
     11 C5'        -2.5980    0.0330   -4.8340 ca        1 MTB     -0.215000
     12 C6'        -1.8760   -0.0530   -3.6530 ca        1 MTB     -0.066000
     13 C           1.7850   -0.1180   -1.3930 c         1 MTB      0.916200
     14 CT3        -6.2240   -0.0160   -3.5750 c3        1 MTB      0.012300
     15 CHV        -6.7860   -0.1080   -2.1590 c3        1 MTB     -0.085767
     16 CHW        -6.7670   -1.2040   -4.3660 c3        1 MTB     -0.085767
     17 CHX        -6.7370    1.2840   -4.1920 c3        1 MTB     -0.085767
     18 N1         -1.0550    0.4800   -0.8340 ne        1 MTB     -0.154400
     19 N1'        -1.8380   -0.3840   -1.2090 nf        1 MTB     -0.185400
     20 O           1.0680   -0.5600   -2.3340 o         1 MTB     -0.828300
     21 OXT         2.9920    0.2280   -1.5300 o         1 MTB     -0.828300
     22 O4'        -4.7110    0.1350   -5.9950 oh        1 MTB     -0.516100
     23 H3          3.1380   -0.2700    0.8820 ha        1 MTB      0.155000
     24 H4          2.3080   -0.1510    3.2500 ha        1 MTB      0.108000
     25 H5         -0.1230    0.1980    3.6920 ha        1 MTB      0.106000
     26 H6         -1.7140    0.4210    1.8030 ha        1 MTB      0.116000
     27 H2'        -4.4900   -0.1890   -1.4460 ha        1 MTB      0.136000
     28 H5'        -2.0660    0.0950   -5.7950 ha        1 MTB      0.129000
     29 H6'        -0.7650   -0.0730   -3.6550 ha        1 MTB      0.213000
     30 H11        -6.4460    0.7570   -1.5410 hc        1 MTB      0.033922
     31 H12        -7.9030   -0.0920   -2.1980 hc        1 MTB      0.033922
     32 H13        -6.4680   -1.0580   -1.6680 hc        1 MTB      0.033922
     33 H21        -6.4420   -1.1460   -5.4320 hc        1 MTB      0.033922
     34 H22        -7.8830   -1.2040   -4.3330 hc        1 MTB      0.033922
     35 H23        -6.3940   -2.1590   -3.9270 hc        1 MTB      0.033922
     36 H31        -6.4110    1.3680   -5.2560 hc        1 MTB      0.033922
     37 H32        -6.3430    2.1600   -3.6240 hc        1 MTB      0.033922
     38 H33        -7.8530    1.3060   -4.1580 hc        1 MTB      0.033922
     39 HO4'       -4.0670    0.1770   -6.7160 ho        1 MTB      0.409000
@<TRIPOS>BOND
     1    1    2 ar  
     2    1    6 ar  
     3    1   18 1   
     4    2    3 ar  
     5    2   13 1   
     6    3    4 ar  
     7    3   23 1   
     8    4    5 ar  
     9    4   24 1   
    10    5    6 ar  
    11    5   25 1   
    12    6   26 1   
    13    7    8 ar  
    14    7   12 ar  
    15    7   19 1   
    16    8    9 ar  
    17    8   27 1   
    18    9   10 ar  
    19    9   14 1   
    20   10   11 ar  
    21   10   22 1   
    22   11   12 ar  
    23   11   28 1   
    24   12   29 1   
    25   13   20 1   
    26   13   21 1   
    27   14   15 1   
    28   14   16 1   
    29   14   17 1   
    30   15   30 1   
    31   15   31 1   
    32   15   32 1   
    33   16   33 1   
    34   16   34 1   
    35   16   35 1   
    36   17   36 1   
    37   17   37 1   
    38   17   38 1   
    39   18   19 2   
    40   22   39 1   
@<TRIPOS>SUBSTRUCTURE
     1 MTB         1 TEMP              0 ****  ****    0 ROOT
