@<TRIPOS>MOLECULE
MTB
   39    40     1     0     0
SMALL
bcc


@<TRIPOS>ATOM
      1 C1         -0.1730    0.2110    0.2700 ca        1 MTB      0.121400
      2 C2          1.1960   -0.0120    0.0080 ca        1 MTB     -0.098600
      3 C3          2.0690   -0.1260    1.0960 ca        1 MTB     -0.105000
      4 C4          1.6090   -0.0430    2.4080 ca        1 MTB     -0.159000
      5 C5          0.2520    0.1600    2.6560 ca        1 MTB     -0.152000
      6 C6         -0.6410    0.2820    1.5960 ca        1 MTB     -0.152000
      7 C1'        -2.5720   -0.1430   -2.4290 ca        1 MTB      0.087400
      8 C2'        -3.9750   -0.1240   -2.4150 ca        1 MTB     -0.099000
      9 C3'        -4.7200   -0.0350   -3.5970 ca        1 MTB     -0.103300
     10 C4'        -4.0030    0.0330   -4.8100 ca        1 MTB      0.105100
     11 C5'        -2.6000    0.0160   -4.8350 ca        1 MTB     -0.215000
     12 C6'        -1.8770   -0.0650   -3.6540 ca        1 MTB     -0.066000
     13 C           1.7850   -0.1280   -1.3960 c         1 MTB      0.916200
     14 CT3        -6.2260   -0.0130   -3.5720 c3        1 MTB      0.012300
     15 CHV        -6.7870   -0.0960   -2.1550 c3        1 MTB     -0.085767
     16 CHW        -6.7730   -1.2040   -4.3550 c3        1 MTB     -0.085767
     17 CHX        -6.7350    1.2840   -4.1960 c3        1 MTB     -0.085767
     18 N1         -1.0530    0.4810   -0.8390 ne        1 MTB     -0.154400
     19 N1'        -1.8380   -0.3820   -1.2080 nf        1 MTB     -0.185400
     20 O           1.0660   -0.5740   -2.3340 o         1 MTB     -0.828300
     21 OXT         2.9930    0.2130   -1.5370 o         1 MTB     -0.828300
     22 O4'        -4.7140    0.1190   -5.9950 oh        1 MTB     -0.516100
     23 H3          3.1400   -0.2720    0.8780 ha        1 MTB      0.155000
     24 H4          2.3120   -0.1370    3.2460 ha        1 MTB      0.108000
     25 H5         -0.1180    0.2210    3.6890 ha        1 MTB      0.106000
     26 H6         -1.7100    0.4380    1.8000 ha        1 MTB      0.116000
     27 H2'        -4.4900   -0.1800   -1.4430 ha        1 MTB      0.136000
     28 H5'        -2.0690    0.0710   -5.7960 ha        1 MTB      0.129000
     29 H6'        -0.7660   -0.0890   -3.6570 ha        1 MTB      0.213000
     30 H11        -6.4430    0.7720   -1.5420 hc        1 MTB      0.033922
     31 H12        -7.9030   -0.0760   -2.1930 hc        1 MTB      0.033922
     32 H13        -6.4710   -1.0440   -1.6590 hc        1 MTB      0.033922
     33 H21        -6.4480   -1.1540   -5.4220 hc        1 MTB      0.033922
     34 H22        -7.8890   -1.2010   -4.3220 hc        1 MTB      0.033922
     35 H23        -6.4030   -2.1590   -3.9110 hc        1 MTB      0.033922
     36 H31        -6.4090    1.3610   -5.2600 hc        1 MTB      0.033922
     37 H32        -6.3370    2.1620   -3.6340 hc        1 MTB      0.033922
     38 H33        -7.8510    1.3110   -4.1610 hc        1 MTB      0.033922
     39 HO4'       -4.0710    0.1550   -6.7160 ho        1 MTB      0.409000
@<TRIPOS>BOND
     1    1    2 ar  
     2    1    6 ar  
     3    1   18 1   
     4    2    3 ar  
     5    2   13 1   
     6    3    4 ar  
     7    3   23 1   
     8    4    5 ar  
     9    4   24 1   
    10    5    6 ar  
    11    5   25 1   
    12    6   26 1   
    13    7    8 ar  
    14    7   12 ar  
    15    7   19 1   
    16    8    9 ar  
    17    8   27 1   
    18    9   10 ar  
    19    9   14 1   
    20   10   11 ar  
    21   10   22 1   
    22   11   12 ar  
    23   11   28 1   
    24   12   29 1   
    25   13   20 1   
    26   13   21 1   
    27   14   15 1   
    28   14   16 1   
    29   14   17 1   
    30   15   30 1   
    31   15   31 1   
    32   15   32 1   
    33   16   33 1   
    34   16   34 1   
    35   16   35 1   
    36   17   36 1   
    37   17   37 1   
    38   17   38 1   
    39   18   19 2   
    40   22   39 1   
@<TRIPOS>SUBSTRUCTURE
     1 MTB         1 TEMP              0 ****  ****    0 ROOT
