@<TRIPOS>MOLECULE
MTC
   44    45     1     0     0
SMALL
bcc


@<TRIPOS>ATOM
      1 C1          0.6350   -0.3170   -0.4010 c3        1 MTC      0.003900
      2 C2          1.8370    0.2000    0.1920 c1        1 MTC     -0.193100
      3 C3          2.7330    0.5470    0.9130 cg        1 MTC     -0.090300
      4 C4          3.6330    0.7660    1.9740 ce        1 MTC     -0.011700
      5 C5          3.3710    0.1390    3.1510 cf        1 MTC      0.007300
      6 C6          2.2320   -0.6880    3.2350 ch        1 MTC     -0.101300
      7 C7          1.2310   -1.3390    3.1140 c1        1 MTC     -0.190100
      8 C8         -0.0040   -2.0400    2.8050 c3        1 MTC      0.320100
      9 C9          0.2390   -3.5390    2.5420 c3        1 MTC     -0.193400
     10 C10         0.9140   -3.8370    1.2430 c         1 MTC      0.606300
     11 C11         0.9840   -2.7330    0.2380 ce        1 MTC     -0.227200
     12 C12         0.3060   -1.5550    0.4020 cf        1 MTC      0.161800
     13 C13        -0.6050   -1.4450    1.5320 cf        1 MTC     -0.195200
     14 C14        -1.8600   -0.9550    1.5030 c2        1 MTC      0.014800
     15 C15        -2.6150   -0.5320    0.3190 c3        1 MTC     -0.057100
     16 C16        -8.5280   -1.5560   -0.2310 c3        1 MTC     -0.104000
     17 C17         1.2340   -3.2570   -2.1500 c         1 MTC      0.617100
     18 C18         0.5490   -4.9960   -3.6050 c3        1 MTC      0.128700
     19 O8         -0.9690   -1.9190    3.8440 oh        1 MTC     -0.576800
     20 O10         1.4470   -4.9260    1.0030 o         1 MTC     -0.522100
     21 O71         0.7470   -2.3970   -2.8720 o         1 MTC     -0.438000
     22 O72         1.2570   -4.5790   -2.4110 os        1 MTC     -0.377900
     23 N11         1.9290   -2.9440   -0.8620 n4        1 MTC     -0.486600
     24 S1         -3.7000   -1.8800   -0.1190 ss        1 MTC     -0.163100
     25 S2         -5.4940   -1.5800   -0.1450 ss        1 MTC     -0.002000
     26 S3         -7.0550   -2.4720   -0.4570 ss        1 MTC     -0.011100
     27 H11A        0.7370   -0.5330   -1.5000 hc        1 MTC      0.107200
     28 H12        -0.1850    0.4520   -0.2940 hc        1 MTC      0.107200
     29 H4          4.4970    1.4340    1.8300 ha        1 MTC      0.178000
     30 H5          4.0080    0.2590    4.0420 ha        1 MTC      0.177000
     31 H91        -0.7600   -4.0610    2.5480 hc        1 MTC      0.116200
     32 H92         0.8530   -3.9780    3.3750 hc        1 MTC      0.116200
     33 H14        -2.4250   -0.9100    2.4590 ha        1 MTC      0.179000
     34 H151       -3.1950    0.3990    0.5360 h1        1 MTC      0.087200
     35 H152       -1.9770   -0.3460   -0.5790 h1        1 MTC      0.087200
     36 H161       -9.1030   -1.5760   -1.1870 h1        1 MTC      0.084033
     37 H162       -9.1400   -2.0570    0.5560 h1        1 MTC      0.084033
     38 H163       -8.3560   -0.4990    0.0640 h1        1 MTC      0.084033
     39 H181        1.0030   -4.5030   -4.4970 h1        1 MTC      0.088700
     40 H182        0.7220   -6.1040   -3.5970 h1        1 MTC      0.088700
     41 H183       -0.5320   -4.7380   -3.5030 h1        1 MTC      0.088700
     42 HO8        -0.5110   -2.0510    4.6850 ho        1 MTC      0.435000
     43 H11         2.4970   -2.0940   -0.9960 hn        1 MTC      0.487300
     44 H112        2.5340   -3.7490   -0.6110 hn        1 MTC      0.487300
@<TRIPOS>BOND
     1    1    2 1   
     2    1   12 1   
     3    1   27 1   
     4    1   28 1   
     5    2    3 3   
     6    3    4 1   
     7    4    5 2   
     8    4   29 1   
     9    5    6 1   
    10    5   30 1   
    11    6    7 3   
    12    7    8 1   
    13    8    9 1   
    14    8   13 1   
    15    8   19 1   
    16    9   10 1   
    17    9   31 1   
    18    9   32 1   
    19   10   11 1   
    20   10   20 2   
    21   11   12 2   
    22   11   23 1   
    23   12   13 1   
    24   13   14 2   
    25   14   15 1   
    26   14   33 1   
    27   15   24 1   
    28   15   34 1   
    29   15   35 1   
    30   16   26 1   
    31   16   36 1   
    32   16   37 1   
    33   16   38 1   
    34   17   21 2   
    35   17   22 1   
    36   17   23 1   
    37   18   22 1   
    38   18   39 1   
    39   18   40 1   
    40   18   41 1   
    41   19   42 1   
    42   23   43 1   
    43   23   44 1   
    44   24   25 1   
    45   25   26 1   
@<TRIPOS>SUBSTRUCTURE
     1 MTC         1 TEMP              0 ****  ****    0 ROOT
