@<TRIPOS>MOLECULE
MTC
   44    45     1     0     0
SMALL
bcc


@<TRIPOS>ATOM
      1 C1          0.6130   -0.2970   -0.3800 c3        1 MTC      0.003900
      2 C2          1.8130    0.2220    0.2160 c1        1 MTC     -0.193100
      3 C3          2.7090    0.5660    0.9390 cg        1 MTC     -0.090300
      4 C4          3.6110    0.7760    2.0000 ce        1 MTC     -0.011700
      5 C5          3.3600    0.1270    3.1670 cf        1 MTC      0.007300
      6 C6          2.2310   -0.7120    3.2420 ch        1 MTC     -0.101300
      7 C7          1.2350   -1.3710    3.1140 c1        1 MTC     -0.190100
      8 C8          0.0050   -2.0790    2.8000 c3        1 MTC      0.320100
      9 C9          0.2630   -3.5710    2.5110 c3        1 MTC     -0.193400
     10 C10         0.9350   -3.8410    1.2040 c         1 MTC      0.606300
     11 C11         0.9890   -2.7200    0.2170 ce        1 MTC     -0.227200
     12 C12         0.3000   -1.5510    0.4030 cf        1 MTC      0.161800
     13 C13        -0.6070   -1.4700    1.5390 cf        1 MTC     -0.195200
     14 C14        -1.8670   -0.9920    1.5240 c2        1 MTC      0.014800
     15 C15        -2.6310   -0.5580    0.3500 c3        1 MTC     -0.057100
     16 C16        -8.5340   -1.6450   -0.1950 c3        1 MTC     -0.104000
     17 C17         1.2320   -3.2020   -2.1810 c         1 MTC      0.617100
     18 C18         0.5540   -4.9220   -3.6600 c3        1 MTC      0.128700
     19 O8         -0.9560   -1.9850    3.8450 oh        1 MTC     -0.576800
     20 O10         1.4780   -4.9210    0.9430 o         1 MTC     -0.522100
     21 O71         0.7360   -2.3330   -2.8870 o         1 MTC     -0.439000
     22 O72         1.2630   -4.5190   -2.4630 os        1 MTC     -0.377900
     23 N11         1.9310   -2.9030   -0.8900 ny        1 MTC     -0.486600
     24 S1         -3.7020   -1.9110   -0.1070 ss        1 MTC     -0.163100
     25 S2         -5.4990   -1.6320   -0.1210 ss        1 MTC     -0.002000
     26 S3         -7.0510   -2.5380   -0.4420 ss        1 MTC     -0.011100
     27 H11A        0.7130   -0.4930   -1.4830 hc        1 MTC      0.107200
     28 H12        -0.2130    0.4620   -0.2570 hc        1 MTC      0.107200
     29 H4          4.4680    1.4540    1.8620 ha        1 MTC      0.178000
     30 H5          4.0010    0.2380    4.0570 ha        1 MTC      0.177000
     31 H91         0.8840   -4.0180    3.3340 hc        1 MTC      0.116200
     32 H92        -0.7310   -4.1040    2.5120 hc        1 MTC      0.116200
     33 H14        -2.4290   -0.9690    2.4830 ha        1 MTC      0.179000
     34 H151       -1.9990   -0.3480   -0.5470 h1        1 MTC      0.087200
     35 H152       -3.2210    0.3620    0.5850 h1        1 MTC      0.087200
     36 H161       -8.3740   -0.5900    0.1140 h1        1 MTC      0.084033
     37 H162       -9.1150   -1.6590   -1.1480 h1        1 MTC      0.084033
     38 H163       -9.1340   -2.1640    0.5900 h1        1 MTC      0.084033
     39 H181       -0.5280   -4.6720   -3.5510 h1        1 MTC      0.088700
     40 H182        1.0020   -4.4130   -4.5460 h1        1 MTC      0.088700
     41 H183        0.7330   -6.0280   -3.6690 h1        1 MTC      0.088700
     42 HO8        -0.4920   -2.1260    4.6810 ho        1 MTC      0.435000
     43 H11         2.4900   -2.0460   -1.0130 hn        1 MTC      0.487300
     44 H112        2.5450   -3.7070   -0.6570 hn        1 MTC      0.487300
@<TRIPOS>BOND
     1    1    2 1   
     2    1   12 1   
     3    1   27 1   
     4    1   28 1   
     5    2    3 3   
     6    3    4 1   
     7    4    5 2   
     8    4   29 1   
     9    5    6 1   
    10    5   30 1   
    11    6    7 3   
    12    7    8 1   
    13    8    9 1   
    14    8   13 1   
    15    8   19 1   
    16    9   10 1   
    17    9   31 1   
    18    9   32 1   
    19   10   11 1   
    20   10   20 2   
    21   11   12 2   
    22   11   23 1   
    23   12   13 1   
    24   13   14 2   
    25   14   15 1   
    26   14   33 1   
    27   15   24 1   
    28   15   34 1   
    29   15   35 1   
    30   16   26 1   
    31   16   36 1   
    32   16   37 1   
    33   16   38 1   
    34   17   21 2   
    35   17   22 1   
    36   17   23 1   
    37   18   22 1   
    38   18   39 1   
    39   18   40 1   
    40   18   41 1   
    41   19   42 1   
    42   23   43 1   
    43   23   44 1   
    44   24   25 1   
    45   25   26 1   
@<TRIPOS>SUBSTRUCTURE
     1 MTC         1 TEMP              0 ****  ****    0 ROOT
