@<TRIPOS>MOLECULE
MTC
   43    44     1     0     0
SMALL
bcc


@<TRIPOS>ATOM
      1 C1          4.5840    7.8610   -5.4050 c3        1 MTC      0.038900
      2 C2          3.5950    6.8430   -5.1900 c1        1 MTC     -0.100100
      3 C3          2.7150    6.0250   -5.1830 cg        1 MTC     -0.173300
      4 C4          1.6290    5.1800   -5.4720 ce        1 MTC      0.010300
      5 C5          1.0450    5.3010   -6.6930 cf        1 MTC     -0.017700
      6 C6          1.5610    6.2640   -7.5810 ch        1 MTC     -0.122300
      7 C7          2.1590    7.1300   -8.1550 c1        1 MTC     -0.119100
      8 C8          2.9680    8.2050   -8.6990 c3        1 MTC      0.309100
      9 C9          4.0240    7.6680   -9.6900 c3        1 MTC     -0.201400
     10 C10         5.4330    7.5970   -9.1770 c         1 MTC      0.563300
     11 C11         5.6190    7.4900   -7.6920 ce        1 MTC     -0.078600
     12 C12         4.6950    8.0850   -6.8890 cf        1 MTC      0.006800
     13 C13         3.6700    8.9100   -7.5400 cf        1 MTC     -0.146200
     14 C14         3.3610   10.1710   -7.1980 c2        1 MTC     -0.093200
     15 C15         4.0560   10.9880   -6.1910 c3        1 MTC     -0.039100
     16 C16         8.6750   14.7170   -6.4140 c3        1 MTC     -0.091000
     17 C17         7.6900    7.2300   -6.4300 c         1 MTC      0.728100
     18 C18         9.8740    6.8910   -5.5610 c3        1 MTC      0.137700
     19 O8          2.0880    9.0840   -9.4020 oh        1 MTC     -0.576800
     20 O10         6.3930    7.5620   -9.9550 o         1 MTC     -0.525100
     21 O71         7.6290    8.1870   -5.6420 o         1 MTC     -0.576000
     22 O72         8.8600    6.5000   -6.4910 os        1 MTC     -0.437900
     23 N11         6.7000    6.6950   -7.2530 n         1 MTC     -0.410100
     24 S1          4.3450   12.5960   -6.8950 ss        1 MTC     -0.117100
     25 S2          5.9660   13.3520   -6.5470 ss        1 MTC     -0.019000
     26 S3          7.0280   14.7630   -7.0120 ss        1 MTC     -0.081100
     27 H11A        4.2580    8.8110   -4.8940 hc        1 MTC      0.089200
     28 H12         5.5750    7.5700   -4.9570 hc        1 MTC      0.089200
     29 H4          1.2880    4.4560   -4.7170 ha        1 MTC      0.152000
     30 H5          0.1910    4.6840   -7.0090 ha        1 MTC      0.154000
     31 H91         3.7370    6.6290  -10.0120 hc        1 MTC      0.095200
     32 H92         4.0130    8.3070  -10.6160 hc        1 MTC      0.095200
     33 H14         2.5230   10.6850   -7.7080 ha        1 MTC      0.153000
     34 H151        3.3980   11.1320   -5.2950 h1        1 MTC      0.090200
     35 H152        5.0160   10.5270   -5.8520 h1        1 MTC      0.090200
     36 H161        9.3710   14.6810   -7.2830 h1        1 MTC      0.071033
     37 H162        8.8660   15.6550   -5.8430 h1        1 MTC      0.071033
     38 H163        8.8770   13.8450   -5.7540 h1        1 MTC      0.071033
     39 H181       10.7090    6.1810   -5.7820 h1        1 MTC      0.054700
     40 H182       10.1730    7.9510   -5.7480 h1        1 MTC      0.054700
     41 H183        9.4980    6.7760   -4.5170 h1        1 MTC      0.054700
     42 HO8         2.6260    9.8160   -9.7330 ho        1 MTC      0.410000
     43 H11         7.0400    6.0490   -7.9410 hn        1 MTC      0.331500
@<TRIPOS>BOND
     1    1    2 1   
     2    1   12 1   
     3    1   27 1   
     4    1   28 1   
     5    2    3 3   
     6    3    4 1   
     7    4    5 2   
     8    4   29 1   
     9    5    6 1   
    10    5   30 1   
    11    6    7 3   
    12    7    8 1   
    13    8    9 1   
    14    8   13 1   
    15    8   19 1   
    16    9   10 1   
    17    9   31 1   
    18    9   32 1   
    19   10   11 1   
    20   10   20 2   
    21   11   12 2   
    22   11   23 1   
    23   12   13 1   
    24   13   14 2   
    25   14   15 1   
    26   14   33 1   
    27   15   24 1   
    28   15   34 1   
    29   15   35 1   
    30   16   26 1   
    31   16   36 1   
    32   16   37 1   
    33   16   38 1   
    34   17   21 2   
    35   17   22 1   
    36   17   23 1   
    37   18   22 1   
    38   18   39 1   
    39   18   40 1   
    40   18   41 1   
    41   19   42 1   
    42   23   43 1   
    43   24   25 1   
    44   25   26 1   
@<TRIPOS>SUBSTRUCTURE
     1 MTC         1 TEMP              0 ****  ****    0 ROOT
