@<TRIPOS>MOLECULE
MTC
   44    45     1     0     0
SMALL
bcc


@<TRIPOS>ATOM
      1 C1          0.6040   -0.2900   -0.3860 c3        1 MTC      0.003900
      2 C2          1.7960    0.2440    0.2140 c1        1 MTC     -0.193100
      3 C3          2.6840    0.6010    0.9410 cg        1 MTC     -0.090300
      4 C4          3.5780    0.8270    2.0050 ce        1 MTC     -0.011700
      5 C5          3.3240    0.1860    3.1760 cf        1 MTC      0.007300
      6 C6          2.2000   -0.6620    3.2510 ch        1 MTC     -0.101300
      7 C7          1.2110   -1.3310    3.1220 c1        1 MTC     -0.190100
      8 C8         -0.0110   -2.0510    2.8050 c3        1 MTC      0.320100
      9 C9          0.2610   -3.5430    2.5300 c3        1 MTC     -0.193400
     10 C10         0.9440   -3.8180    1.2300 c         1 MTC      0.606300
     11 C11         0.9960   -2.7040    0.2340 ce        1 MTC     -0.227200
     12 C12         0.2960   -1.5400    0.4060 cf        1 MTC      0.161800
     13 C13        -0.6190   -1.4560    1.5350 cf        1 MTC     -0.195200
     14 C14        -1.8820   -0.9880    1.5080 c2        1 MTC      0.014800
     15 C15        -2.6430   -0.5700    0.3260 c3        1 MTC     -0.057100
     16 C16        -8.5360   -1.6930   -0.2460 c3        1 MTC     -0.104000
     17 C17         1.2600   -3.2040   -2.1580 c         1 MTC      0.617100
     18 C18         0.6080   -4.9430   -3.6280 c3        1 MTC      0.128700
     19 O8         -0.9790   -1.9560    3.8430 oh        1 MTC     -0.576800
     20 O10         1.4970   -4.8960    0.9820 o         1 MTC     -0.522100
     21 O71         0.7590   -2.3460   -2.8740 o         1 MTC     -0.439000
     22 O72         1.3060   -4.5240   -2.4290 os        1 MTC     -0.377900
     23 N11         1.9470   -2.8890   -0.8650 n4        1 MTC     -0.486600
     24 S1         -3.7030   -1.9330   -0.1250 ss        1 MTC     -0.163100
     25 S2         -5.5020   -1.6640   -0.1540 ss        1 MTC     -0.002000
     26 S3         -7.0470   -2.5810   -0.4760 ss        1 MTC     -0.011100
     27 H11A       -0.2290    0.4630   -0.2740 hc        1 MTC      0.107200
     28 H12         0.7130   -0.4950   -1.4860 hc        1 MTC      0.107200
     29 H4          4.4290    1.5120    1.8680 ha        1 MTC      0.178000
     30 H5          3.9580    0.3100    4.0690 ha        1 MTC      0.177000
     31 H91         0.8800   -3.9780    3.3610 hc        1 MTC      0.116200
     32 H92        -0.7290   -4.0830    2.5290 hc        1 MTC      0.116200
     33 H14        -2.4510   -0.9620    2.4630 ha        1 MTC      0.179000
     34 H151       -3.2390    0.3490    0.5490 h1        1 MTC      0.087200
     35 H152       -2.0060   -0.3650   -0.5700 h1        1 MTC      0.087200
     36 H161       -8.3830   -0.6330    0.0530 h1        1 MTC      0.084033
     37 H162       -9.1380   -2.2070    0.5400 h1        1 MTC      0.084033
     38 H163       -9.1110   -1.7190   -1.2020 h1        1 MTC      0.084033
     39 H181        0.8000   -6.0470   -3.6280 h1        1 MTC      0.088700
     40 H182        1.0560   -4.4350   -4.5150 h1        1 MTC      0.088700
     41 H183       -0.4770   -4.7040   -3.5280 h1        1 MTC      0.088700
     42 HO8        -0.5200   -2.0870    4.6840 ho        1 MTC      0.435000
     43 H11         2.5660   -3.6860   -0.6200 hn        1 MTC      0.487300
     44 H112        2.4990   -2.0280   -0.9910 hn        1 MTC      0.487300
@<TRIPOS>BOND
     1    1    2 1   
     2    1   12 1   
     3    1   27 1   
     4    1   28 1   
     5    2    3 3   
     6    3    4 1   
     7    4    5 2   
     8    4   29 1   
     9    5    6 1   
    10    5   30 1   
    11    6    7 3   
    12    7    8 1   
    13    8    9 1   
    14    8   13 1   
    15    8   19 1   
    16    9   10 1   
    17    9   31 1   
    18    9   32 1   
    19   10   11 1   
    20   10   20 2   
    21   11   12 2   
    22   11   23 1   
    23   12   13 1   
    24   13   14 2   
    25   14   15 1   
    26   14   33 1   
    27   15   24 1   
    28   15   34 1   
    29   15   35 1   
    30   16   26 1   
    31   16   36 1   
    32   16   37 1   
    33   16   38 1   
    34   17   21 2   
    35   17   22 1   
    36   17   23 1   
    37   18   22 1   
    38   18   39 1   
    39   18   40 1   
    40   18   41 1   
    41   19   42 1   
    42   23   43 1   
    43   23   44 1   
    44   24   25 1   
    45   25   26 1   
@<TRIPOS>SUBSTRUCTURE
     1 MTC         1 TEMP              0 ****  ****    0 ROOT
