@<TRIPOS>MOLECULE
MTE
   36    38     1     0     0
SMALL
bcc


@<TRIPOS>ATOM
      1 N1          0.0970    0.2260    0.0390 nc        1 MTE     -0.648300
      2 C2          1.3760   -0.1480    0.1090 cd        1 MTE      0.579800
      3 N2          2.2370   -0.0200   -1.0420 nv        1 MTE     -0.862800
      4 N3          1.9570   -0.7080    1.2590 ns        1 MTE     -0.476400
      5 C4          1.1910   -0.9210    2.4180 c         1 MTE      0.696700
      6 O4          1.7800   -1.4100    3.4070 o         1 MTE     -0.677500
      7 N5         -1.0530   -0.8590    3.4350 nu        1 MTE     -0.675000
      8 C6         -2.3320   -0.1530    3.5380 c3        1 MTE      0.243700
      9 C7         -2.6740    0.7930    2.3420 c3        1 MTE      0.358300
     10 N8         -2.0890    0.3680    1.0720 nu        1 MTE     -0.668000
     11 C9         -0.2250   -0.5400    2.3490 cd        1 MTE     -0.067200
     12 C10        -0.7170    0.0320    1.1600 cc        1 MTE      0.304600
     13 C1'        -2.5070    0.5730    4.8420 c2        1 MTE     -0.205600
     14 S1'        -2.2740   -0.3710    6.2450 sh        1 MTE     -0.385400
     15 C2'        -2.8200    1.8930    4.9180 c2        1 MTE      0.116400
     16 S2'        -3.0810    2.7630    6.3230 sh        1 MTE     -0.129400
     17 C3'        -3.0020    2.6970    3.6730 c3        1 MTE      0.010300
     18 O3'        -2.2270    2.1220    2.6220 os        1 MTE     -0.404600
     19 C4'        -2.6300    4.2130    3.7660 c3        1 MTE      0.260400
     20 O4'        -3.1830    4.9220    2.7440 os        1 MTE     -0.544200
     21 P          -4.8500    5.3970    3.0030 p5        1 MTE      1.316900
     22 O1P        -4.7480    6.0610    4.3460 o         1 MTE     -0.914833
     23 O2P        -5.1640    6.2520    1.8170 o         1 MTE     -0.914833
     24 O3P        -5.4620    4.0080    3.0300 o         1 MTE     -0.914833
     25 HN21        2.9010    0.7150   -0.8870 hn        1 MTE      0.379300
     26 HN22        1.7000    0.1790   -1.8650 hn        1 MTE      0.379300
     27 HN3         2.9150   -0.9750    1.2660 hn        1 MTE      0.324500
     28 HN5        -0.5460   -0.8490    4.3060 hn        1 MTE      0.409800
     29 H6         -3.1030   -0.9870    3.5070 h1        1 MTE      0.044700
     30 H7         -3.7980    0.7930    2.1980 h2        1 MTE      0.090700
     31 HN8        -2.2880    1.0430    0.3520 hn        1 MTE      0.418800
     32 H1S        -3.1830   -1.3090    6.0320 hs        1 MTE      0.175800
     33 H2S        -2.9190    1.8110    7.2270 hs        1 MTE      0.133800
     34 H3'        -4.1340    2.7570    3.3770 h1        1 MTE      0.225700
     35 H4'1       -1.5080    4.3000    3.7310 h1        1 MTE      0.009200
     36 H4'2       -3.0260    4.5770    4.7650 h1        1 MTE      0.009200
@<TRIPOS>BOND
     1    1    2 2   
     2    1   12 1   
     3    2    3 1   
     4    2    4 1   
     5    3   25 1   
     6    3   26 1   
     7    4    5 1   
     8    4   27 1   
     9    5    6 2   
    10    5   11 1   
    11    7    8 1   
    12    7   11 1   
    13    7   28 1   
    14    8    9 1   
    15    8   13 1   
    16    8   29 1   
    17    9   10 1   
    18    9   18 1   
    19    9   30 1   
    20   10   12 1   
    21   10   31 1   
    22   11   12 2   
    23   13   14 1   
    24   13   15 2   
    25   14   32 1   
    26   15   16 1   
    27   15   17 1   
    28   16   33 1   
    29   17   18 1   
    30   17   19 1   
    31   17   34 1   
    32   19   20 1   
    33   19   35 1   
    34   19   36 1   
    35   20   21 1   
    36   21   22 1   
    37   21   23 1   
    38   21   24 1   
@<TRIPOS>SUBSTRUCTURE
     1 MTE         1 TEMP              0 ****  ****    0 ROOT
