@<TRIPOS>MOLECULE
MTE
   36    38     1     0     0
SMALL
bcc


@<TRIPOS>ATOM
      1 N1          1.8630   -0.9360    3.5220 nc        1 MTE     -0.648300
      2 C2          1.9440   -0.1010    4.5590 cd        1 MTE      0.579800
      3 N2          3.1210   -0.0860    5.3940 nh        1 MTE     -0.862800
      4 N3          0.9110    0.7780    4.9270 n         1 MTE     -0.476400
      5 C4         -0.2970    0.8050    4.2090 c         1 MTE      0.696700
      6 O4         -1.1650    1.6230    4.5860 o         1 MTE     -0.677500
      7 N5         -1.6470   -0.2260    2.4240 nh        1 MTE     -0.675000
      8 C6         -1.6560   -0.8400    1.0940 c3        1 MTE      0.243700
      9 C7         -0.2880   -1.4280    0.6180 c3        1 MTE      0.358300
     10 N8          0.5660   -1.8870    1.7110 nh        1 MTE     -0.668000
     11 C9         -0.4130   -0.1280    3.0810 cd        1 MTE     -0.067200
     12 C10         0.6820   -0.9590    2.7730 cc        1 MTE      0.304600
     13 C1'        -2.2380    0.0490    0.0330 c2        1 MTE     -0.205600
     14 S1'        -3.7890    0.6780    0.3690 sh        1 MTE     -0.385400
     15 C2'        -1.5850    0.3520   -1.1200 c2        1 MTE      0.116400
     16 S2'        -2.1790    1.2900   -2.3710 sh        1 MTE     -0.129400
     17 C3'        -0.2210   -0.1990   -1.3800 c3        1 MTE      0.010300
     18 O3'         0.4320   -0.4490   -0.1360 os        1 MTE     -0.404600
     19 C4'         0.7310    0.6870   -2.2490 c3        1 MTE      0.260400
     20 O4'         1.7660   -0.0420   -2.7480 os        1 MTE     -0.544200
     21 P           1.3920   -0.9360   -4.2090 p5        1 MTE      1.316900
     22 O1P         0.8230    0.1560   -5.0680 o         1 MTE     -0.914833
     23 O2P         2.7060   -1.5300   -4.6070 o         1 MTE     -0.914833
     24 O3P         0.3610   -1.8800   -3.6190 o         1 MTE     -0.914833
     25 HN21        3.7040   -0.8780    5.1970 hn        1 MTE      0.379300
     26 HN22        3.6360    0.7600    5.2360 hn        1 MTE      0.379300
     27 HN3         1.0140    1.3830    5.7100 hn        1 MTE      0.324500
     28 HN5        -2.1470    0.6490    2.4380 hn        1 MTE      0.409800
     29 H6         -2.3530   -1.7290    1.2130 h1        1 MTE      0.044700
     30 H7         -0.4970   -2.3310   -0.0330 h2        1 MTE      0.090700
     31 HN8         1.4540   -2.1970    1.3550 hn        1 MTE      0.418800
     32 H1S        -4.4530   -0.4560    0.5370 hs        1 MTE      0.175800
     33 H2S        -3.3830    1.5770   -1.9040 hs        1 MTE      0.133800
     34 H3'        -0.2820   -1.1740   -2.0270 h1        1 MTE      0.225700
     35 H4'1        0.0950    1.1060   -3.0900 h1        1 MTE      0.009200
     36 H4'2        1.1240    1.5180   -1.5990 h1        1 MTE      0.009200
@<TRIPOS>BOND
     1    1    2 2   
     2    1   12 1   
     3    2    3 1   
     4    2    4 1   
     5    3   25 1   
     6    3   26 1   
     7    4    5 1   
     8    4   27 1   
     9    5    6 2   
    10    5   11 1   
    11    7    8 1   
    12    7   11 1   
    13    7   28 1   
    14    8    9 1   
    15    8   13 1   
    16    8   29 1   
    17    9   10 1   
    18    9   18 1   
    19    9   30 1   
    20   10   12 1   
    21   10   31 1   
    22   11   12 2   
    23   13   14 1   
    24   13   15 2   
    25   14   32 1   
    26   15   16 1   
    27   15   17 1   
    28   16   33 1   
    29   17   18 1   
    30   17   19 1   
    31   17   34 1   
    32   19   20 1   
    33   19   35 1   
    34   19   36 1   
    35   20   21 1   
    36   21   22 1   
    37   21   23 1   
    38   21   24 1   
@<TRIPOS>SUBSTRUCTURE
     1 MTE         1 TEMP              0 ****  ****    0 ROOT
