@<TRIPOS>MOLECULE
MTE
   36    39     1     0     0
SMALL
bcc


@<TRIPOS>ATOM
      1 N1          0.2480   -0.2420    0.1340 nc        1 MTE     -0.634300
      2 C2          1.5610   -0.1900    0.3510 cd        1 MTE      0.527800
      3 N2          2.4970   -0.2310   -0.7530 nh        1 MTE     -0.856800
      4 N3          2.1310   -0.1140    1.6350 n         1 MTE     -0.467400
      5 C4          1.3210   -0.1040    2.7780 c         1 MTE      0.684700
      6 O4          1.8970   -0.0190    3.8850 o         1 MTE     -0.670500
      7 N5         -0.9590   -0.3020    3.6680 nh        1 MTE     -0.689000
      8 C6         -2.4160   -0.3180    3.4680 c3        1 MTE      0.303700
      9 C7         -2.8370    0.2020    2.0620 c3        1 MTE      0.360300
     10 N8         -2.0150   -0.3610    0.9870 nh        1 MTE     -0.669000
     11 C9         -0.1400   -0.1900    2.5610 cd        1 MTE      0.017800
     12 C10        -0.6130   -0.2450    1.2320 cc        1 MTE      0.212600
     13 C1'        -3.1830    0.4140    4.4940 c2        1 MTE     -0.360600
     14 S1'        -3.6640   -0.4850    5.8140 sh        1 MTE     -0.367400
     15 C2'        -3.5770    1.7460    4.3130 c2        1 MTE     -0.055500
     16 S2'        -4.0050    2.7220    5.4970 s4        1 MTE     -0.042900
     17 C3'        -3.5590    2.3340    2.9360 c3        1 MTE      0.190300
     18 O3'        -2.7490    1.6230    1.9810 os        1 MTE     -0.473600
     19 C4'        -2.9980    3.7820    2.8440 c3        1 MTE      0.196400
     20 O4'        -4.0040    4.7190    3.0170 os        1 MTE     -0.581200
     21 P          -3.8610    5.6840    4.3860 p5        1 MTE      1.478800
     22 O1P        -2.5350    6.3400    4.2980 o         1 MTE     -0.865000
     23 O2P        -5.1220    6.4540    4.4910 o         1 MTE     -0.865000
     24 O3P        -3.8110    4.4620    5.4220 os        1 MTE     -0.636200
     25 HN21        2.0590   -0.6340   -1.5600 hn        1 MTE      0.367300
     26 HN22        2.7860    0.7060   -0.9690 hn        1 MTE      0.367300
     27 HN3         3.1180   -0.0840    1.7470 hn        1 MTE      0.321500
     28 HN5        -0.6570    0.2330    4.4590 hn        1 MTE      0.421800
     29 H6         -2.6810   -1.4200    3.5070 h1        1 MTE      0.045700
     30 H7         -3.9020   -0.1170    1.8650 h2        1 MTE      0.054700
     31 HN8        -2.2680    0.0500    0.1050 hn        1 MTE      0.379800
     32 H1S        -2.7270   -0.1980    6.7110 hs        1 MTE      0.097800
     33 H2S        -3.6410    2.2200    6.6530 hs        1 MTE      0.114000
     34 H3'        -4.6140    2.3220    2.5340 h1        1 MTE      0.040700
     35 H4'1       -2.5650    3.9080    1.8100 h1        1 MTE      0.026200
     36 H4'2       -2.1790    3.9250    3.6010 h1        1 MTE      0.026200
@<TRIPOS>BOND
     1    1    2 2   
     2    1   12 1   
     3    2    3 1   
     4    2    4 1   
     5    3   25 1   
     6    3   26 1   
     7    4    5 1   
     8    4   27 1   
     9    5    6 2   
    10    5   11 1   
    11    7    8 1   
    12    7   11 1   
    13    7   28 1   
    14    8    9 1   
    15    8   13 1   
    16    8   29 1   
    17    9   10 1   
    18    9   18 1   
    19    9   30 1   
    20   10   12 1   
    21   10   31 1   
    22   11   12 2   
    23   13   14 1   
    24   13   15 2   
    25   14   32 1   
    26   15   16 1   
    27   15   17 1   
    28   16   24 1   
    29   16   33 1   
    30   17   18 1   
    31   17   19 1   
    32   17   34 1   
    33   19   20 1   
    34   19   35 1   
    35   19   36 1   
    36   20   21 1   
    37   21   22 1   
    38   21   23 1   
    39   21   24 1   
@<TRIPOS>SUBSTRUCTURE
     1 MTE         1 TEMP              0 ****  ****    0 ROOT
