@<TRIPOS>MOLECULE
MTF
   10     9     1     0     0
SMALL
bcc


@<TRIPOS>ATOM
      1 C           0.1470   -0.0160   -0.0490 c         1 MTF      0.031200
      2 S           1.6350   -0.0070   -0.1240 s         1 MTF      0.160600
      3 N          -0.6990   -0.0060    1.1820 ny        1 MTF     -0.619800
      4 CM          0.0450    0.0130    2.4620 c3        1 MTF      0.066100
      5 H          -0.5760   -0.0310   -0.9020 hx        1 MTF      0.099200
      6 HN         -1.3140    0.8200    1.1420 hn        1 MTF      0.459800
      7 HM1         0.6880    0.9320    2.5180 hx        1 MTF      0.114367
      8 HM2        -0.6930    0.0190    3.3100 hx        1 MTF      0.114367
      9 HM3         0.6980   -0.8980    2.5400 hx        1 MTF      0.114367
     10 HN3        -1.3040   -0.8410    1.1610 hn        1 MTF      0.459800
@<TRIPOS>BOND
     1    1    2 2   
     2    1    3 1   
     3    1    5 1   
     4    3    4 1   
     5    3    6 1   
     6    3   10 1   
     7    4    7 1   
     8    4    8 1   
     9    4    9 1   
@<TRIPOS>SUBSTRUCTURE
     1 MTF         1 TEMP              0 ****  ****    0 ROOT
