@<TRIPOS>MOLECULE
MTF
   10     9     1     0     0
SMALL
bcc


@<TRIPOS>ATOM
      1 C           0.1480   -0.0090   -0.0490 c         1 MTF      0.031200
      2 S           1.6360   -0.0020   -0.1220 s         1 MTF      0.160600
      3 N          -0.6990   -0.0040    1.1810 n4        1 MTF     -0.619800
      4 CM          0.0440    0.0060    2.4620 c3        1 MTF      0.066100
      5 H          -0.5750   -0.0180   -0.9030 hx        1 MTF      0.099200
      6 HN         -1.3120    0.8240    1.1450 hn        1 MTF      0.459800
      7 HM1         0.6950   -0.9070    2.5360 hx        1 MTF      0.114367
      8 HM2         0.6900    0.9230    2.5240 hx        1 MTF      0.114367
      9 HM3        -0.6950    0.0100    3.3090 hx        1 MTF      0.114367
     10 HN3        -1.3060   -0.8370    1.1550 hn        1 MTF      0.459800
@<TRIPOS>BOND
     1    1    2 2   
     2    1    3 1   
     3    1    5 1   
     4    3    4 1   
     5    3    6 1   
     6    3   10 1   
     7    4    7 1   
     8    4    8 1   
     9    4    9 1   
@<TRIPOS>SUBSTRUCTURE
     1 MTF         1 TEMP              0 ****  ****    0 ROOT
