@<TRIPOS>MOLECULE
MTF
    9     8     1     0     0
SMALL
bcc


@<TRIPOS>ATOM
      1 C          -0.8280    0.0000   -0.2100 c         1 MTF      0.386200
      2 S           0.1670   -0.0000   -1.4250 s         1 MTF     -0.464400
      3 N          -0.5470    0.0000    1.1150 n         1 MTF     -0.494900
      4 CM          0.7910   -0.0000    1.6260 c3        1 MTF      0.061300
      5 H          -1.9300    0.0000   -0.3880 h5        1 MTF      0.033200
      6 HN         -1.2890    0.0000    1.7760 hn        1 MTF      0.312500
      7 HM1         0.7620   -0.0000    2.7460 h1        1 MTF      0.055033
      8 HM2         1.3470   -0.9100    1.2660 h1        1 MTF      0.055033
      9 HM3         1.3470    0.9100    1.2660 h1        1 MTF      0.055033
@<TRIPOS>BOND
     1    1    2 2   
     2    1    3 1   
     3    1    5 1   
     4    3    4 1   
     5    3    6 1   
     6    4    7 1   
     7    4    8 1   
     8    4    9 1   
@<TRIPOS>SUBSTRUCTURE
     1 MTF         1 TEMP              0 ****  ****    0 ROOT
