@<TRIPOS>MOLECULE
MTF
   10     9     1     0     0
SMALL
bcc


@<TRIPOS>ATOM
      1 C           0.1460   -0.0030   -0.0490 c         1 MTF      0.031200
      2 S           1.6340   -0.0030   -0.1250 s         1 MTF      0.160600
      3 N          -0.6990   -0.0020    1.1820 n4        1 MTF     -0.619800
      4 CM          0.0460    0.0000    2.4610 c3        1 MTF      0.066100
      5 H          -0.5780   -0.0050   -0.9020 hx        1 MTF      0.099200
      6 HN         -1.3090    0.8280    1.1510 hn        1 MTF      0.459800
      7 HM1         0.6940    0.9160    2.5280 hx        1 MTF      0.114367
      8 HM2        -0.6920    0.0010    3.3100 hx        1 MTF      0.114367
      9 HM3         0.6940   -0.9150    2.5300 hx        1 MTF      0.114367
     10 HN3        -1.3080   -0.8330    1.1530 hn        1 MTF      0.459800
@<TRIPOS>BOND
     1    1    2 2   
     2    1    3 1   
     3    1    5 1   
     4    3    4 1   
     5    3    6 1   
     6    3   10 1   
     7    4    7 1   
     8    4    8 1   
     9    4    9 1   
@<TRIPOS>SUBSTRUCTURE
     1 MTF         1 TEMP              0 ****  ****    0 ROOT
