@<TRIPOS>MOLECULE
MTG
   11    10     1     0     0
SMALL
bcc


@<TRIPOS>ATOM
      1 O5         -0.0680    0.0000   -0.0950 o         1 MTG     -0.830300
      2 O6          1.9650    0.0000   -1.0220 o         1 MTG     -0.830300
      3 C1          1.1890    0.0000   -0.0220 c         1 MTG      0.931600
      4 C2          1.8960   -0.0000    1.3490 c3        1 MTG     -0.129300
      5 S3          0.8040   -0.0000    2.7390 ss        1 MTG     -0.273200
      6 C4          1.9680   -0.0000    4.0480 c3        1 MTG     -0.057000
      7 H21         2.5490   -0.9030    1.3900 h1        1 MTG      0.039700
      8 H22         2.5490    0.9030    1.3900 h1        1 MTG      0.039700
      9 H41         1.3900   -0.0000    4.9990 h1        1 MTG      0.036367
     10 H42         2.6230    0.9000    4.0240 h1        1 MTG      0.036367
     11 H43         2.6230   -0.9000    4.0240 h1        1 MTG      0.036367
@<TRIPOS>BOND
     1    1    3 1   
     2    2    3 1   
     3    3    4 1   
     4    4    5 1   
     5    4    7 1   
     6    4    8 1   
     7    5    6 1   
     8    6    9 1   
     9    6   10 1   
    10    6   11 1   
@<TRIPOS>SUBSTRUCTURE
     1 MTG         1 TEMP              0 ****  ****    0 ROOT
