@<TRIPOS>MOLECULE
MTG
   11    10     1     0     0
SMALL
bcc


@<TRIPOS>ATOM
      1 O5         -1.5950    1.1920   -0.0000 o         1 MTG     -0.830300
      2 O6         -2.3950   -0.8930   -0.0000 o         1 MTG     -0.830300
      3 C1         -1.4450   -0.0580   -0.0000 c         1 MTG      0.931600
      4 C2         -0.0330   -0.6800    0.0000 c3        1 MTG     -0.129300
      5 S3          1.2870    0.4950    0.0000 ss        1 MTG     -0.273200
      6 C4          2.6650   -0.5870    0.0000 c3        1 MTG     -0.057000
      7 H21         0.0470   -1.3290   -0.9030 h1        1 MTG      0.039700
      8 H22         0.0470   -1.3290    0.9030 h1        1 MTG      0.039700
      9 H41         3.5790    0.0480    0.0000 h1        1 MTG      0.036367
     10 H42         2.6810   -1.2420    0.9000 h1        1 MTG      0.036367
     11 H43         2.6810   -1.2420   -0.9000 h1        1 MTG      0.036367
@<TRIPOS>BOND
     1    1    3 1   
     2    2    3 1   
     3    3    4 1   
     4    4    5 1   
     5    4    7 1   
     6    4    8 1   
     7    5    6 1   
     8    6    9 1   
     9    6   10 1   
    10    6   11 1   
@<TRIPOS>SUBSTRUCTURE
     1 MTG         1 TEMP              0 ****  ****    0 ROOT
