@<TRIPOS>MOLECULE
MTG
   11    10     1     0     0
SMALL
bcc


@<TRIPOS>ATOM
      1 O5          0.1270   -0.6660   -0.2990 o         1 MTG     -0.828300
      2 O6          1.6650    0.8900   -0.7490 o         1 MTG     -0.828300
      3 C1          1.1380    0.0260    0.0030 c         1 MTG      0.928600
      4 C2          1.8250   -0.2610    1.3580 c3        1 MTG     -0.126300
      5 S3          1.1590    0.7620    2.6350 ss        1 MTG     -0.289200
      6 C4          2.0990    0.2400    4.0170 c3        1 MTG     -0.049000
      7 H21         1.6680   -1.3330    1.6160 h1        1 MTG      0.039700
      8 H22         2.9160   -0.0670    1.2510 h1        1 MTG      0.039700
      9 H41         1.7520    0.8350    4.8910 h1        1 MTG      0.037700
     10 H42         3.1890    0.4160    3.8680 h1        1 MTG      0.037700
     11 H43         1.9530   -0.8420    4.2340 h1        1 MTG      0.037700
@<TRIPOS>BOND
     1    1    3 1   
     2    2    3 1   
     3    3    4 1   
     4    4    5 1   
     5    4    7 1   
     6    4    8 1   
     7    5    6 1   
     8    6    9 1   
     9    6   10 1   
    10    6   11 1   
@<TRIPOS>SUBSTRUCTURE
     1 MTG         1 TEMP              0 ****  ****    0 ROOT
