@<TRIPOS>MOLECULE
MTG
   11    10     1     0     0
SMALL
bcc


@<TRIPOS>ATOM
      1 O5         -1.9010    0.5220   -1.9890 o         1 MTG     -0.828300
      2 O6         -0.0130    0.5220   -3.0790 o         1 MTG     -0.828300
      3 C1         -0.6420    0.5220   -1.9890 c         1 MTG      0.928600
      4 C2          0.1140    0.5220   -0.6790 c3        1 MTG     -0.126300
      5 S3         -0.6330   -0.6380    0.4350 ss        1 MTG     -0.289200
      6 C4          0.3520   -0.7650    1.9040 c3        1 MTG     -0.049000
      7 H21         1.0430    0.2670   -0.8390 h1        1 MTG      0.039700
      8 H22         0.0850    1.4150   -0.2860 h1        1 MTG      0.039700
      9 H41        -0.0560   -1.4090    2.5140 h1        1 MTG      0.037700
     10 H42         1.2500   -1.0650    1.6680 h1        1 MTG      0.037700
     11 H43         0.4030    0.1080    2.3380 h1        1 MTG      0.037700
@<TRIPOS>BOND
     1    1    3 1   
     2    2    3 1   
     3    3    4 1   
     4    4    5 1   
     5    4    7 1   
     6    4    8 1   
     7    5    6 1   
     8    6    9 1   
     9    6   10 1   
    10    6   11 1   
@<TRIPOS>SUBSTRUCTURE
     1 MTG         1 TEMP              0 ****  ****    0 ROOT
