@<TRIPOS>MOLECULE
MTH
   36    33     1     0     0
SMALL
bcc


@<TRIPOS>ATOM
      1 CS         -4.4600   -4.2760   -1.1400 c3        1 MTH     -0.057000
      2 S5'        -2.7470   -3.7920   -1.4420 ss        1 MTH     -0.268200
      3 C5'        -2.4170   -2.2490   -0.6360 c3        1 MTH     -0.046300
      4 C4'        -0.9190   -1.9900   -0.6340 c3        1 MTH      0.098100
      5 O4'        -0.6820   -0.7480   -0.8990 os        1 MTH     -0.406600
      6 C2'         0.5040   -0.9840    1.0840 c3        1 MTH      0.084100
      7 O2'         1.8590   -1.3850    1.5730 oh        1 MTH     -0.595800
      8 C3'        -0.3350   -2.2190    0.7850 c3        1 MTH      0.125100
      9 O3'         0.4440   -3.3270    0.8000 oh        1 MTH     -0.578800
     10 C1'         0.6040   -0.3560   -0.0590 c3        1 MTH      0.401300
     11 N9          0.6390    1.0740    0.1590 n3        1 MTH     -0.446800
     12 C8         -0.4330    1.8670    0.3080 c1        1 MTH      0.055800
     13 C7         -0.0140    3.1670    0.2110 cg        1 MTH     -0.200500
     14 C5          1.3500    3.1630   -0.0020 cg        1 MTH     -0.200500
     15 C6          2.2600    4.1840   -0.1700 c1        1 MTH      0.590600
     16 N6          2.3100    5.6480   -0.0920 n3        1 MTH     -0.809400
     17 N1          3.5470    3.9050   -0.3640 n1        1 MTH     -0.588800
     18 C2          3.9640    2.6100   -0.3990 c1        1 MTH      0.403300
     19 N3          3.0730    1.6070   -0.2350 n1        1 MTH     -0.561800
     20 C4          1.7580    1.8920   -0.0360 c1        1 MTH      0.055800
     21 HCS1       -4.7030   -5.0230   -1.7410 h1        1 MTH      0.070700
     22 HCS2       -4.5610   -4.5670   -0.1880 h1        1 MTH      0.070700
     23 HCS3       -5.0480   -3.5160   -1.3120 h1        1 MTH      0.070700
     24 H5'1       -2.7350   -2.2850    0.2630 h1        1 MTH      0.083700
     25 H5'2       -2.8800   -1.5150   -1.1230 h1        1 MTH      0.083700
     26 H4'1       -0.4700   -2.5710   -1.2860 h1        1 MTH      0.101700
     27 H2'1        0.0510   -0.4140    1.7520 h1        1 MTH      0.084700
     28 HO21        1.9240   -1.2110    2.4740 ho        1 MTH      0.435000
     29 H3'1       -1.0720   -2.3050    1.4510 h1        1 MTH      0.090700
     30 HO31        0.1380   -3.8920    1.3970 ho        1 MTH      0.428000
     31 H1'1        1.4060   -0.6410   -0.5280 h2        1 MTH      0.103700
     32 HC81       -1.3390    1.5760    0.3980 DU        1 MTH      0.169000
     33 HC71       -0.5750    3.9520    0.2800 DU        1 MTH      0.169000
     34 HN61        3.1120    6.0740    0.0450 hn        1 MTH      0.429300
     35 HN62        1.5240    6.1450   -0.1520 hn        1 MTH      0.429300
     36 HC21        4.9210    2.4020   -0.5440 ha        1 MTH      0.128500
@<TRIPOS>BOND
     1    1    2 1   
     2    1   21 1   
     3    1   22 1   
     4    1   23 1   
     5    2    3 1   
     6    3    4 1   
     7    3   24 1   
     8    3   25 1   
     9    4    5 1   
    10    4    8 1   
    11    4   26 1   
    12    5   10 1   
    13    6    7 1   
    14    6    8 1   
    15    6   10 1   
    16    6   27 1   
    17    7   28 1   
    18    8    9 1   
    19    8   29 1   
    20    9   30 1   
    21   10   11 1   
    22   10   31 1   
    23   11   12 1   
    24   11   20 1   
    25   12   13 3   
    26   13   14 1   
    27   14   20 3   
    28   15   16 1   
    29   15   17 3   
    30   16   34 1   
    31   16   35 1   
    32   18   19 3   
    33   18   36 1   
@<TRIPOS>SUBSTRUCTURE
     1 MTH         1 TEMP              0 ****  ****    0 ROOT
