@<TRIPOS>MOLECULE
MTH
   36    38     1     0     0
SMALL
bcc


@<TRIPOS>ATOM
      1 CS          0.3140   -0.2120    0.6280 c3        1 MTH     -0.049000
      2 S5'         1.3630    1.1660    0.3650 ss        1 MTH     -0.268200
      3 C5'         2.2310    1.3150    1.8930 c3        1 MTH     -0.045300
      4 C4'         3.3460    0.3050    2.0890 c3        1 MTH      0.101100
      5 O4'         4.5350    0.7240    1.3990 os        1 MTH     -0.396600
      6 C2'         5.0980    0.7670    3.7500 c3        1 MTH      0.084100
      7 O2'         6.0030   -0.2140    4.2060 oh        1 MTH     -0.594800
      8 C3'         3.7090    0.1150    3.5810 c3        1 MTH      0.127100
      9 O3'         3.6650   -1.2420    3.9480 oh        1 MTH     -0.576800
     10 C1'         5.5170    1.2180    2.3110 c3        1 MTH      0.218800
     11 N9          5.6730    2.6510    2.1740 na        1 MTH     -0.195100
     12 C8          5.1030    3.4850    1.1980 cc        1 MTH     -0.100100
     13 C7          5.5900    4.7820    1.3300 cd        1 MTH     -0.162200
     14 C5          6.5220    4.7760    2.4250 ca        1 MTH     -0.370400
     15 C6          7.3580    5.7370    3.0740 ca        1 MTH      0.730200
     16 N6          7.3080    7.0640    2.6890 nv        1 MTH     -0.947500
     17 N1          8.1670    5.3430    4.1110 nb        1 MTH     -0.789000
     18 C2          8.1040    4.0350    4.4860 ca        1 MTH      0.682900
     19 N3          7.3620    3.0250    3.9830 nb        1 MTH     -0.765000
     20 C4          6.5650    3.4170    2.9360 ca        1 MTH      0.463800
     21 HCS1       -0.3770   -0.0530    1.4860 h1        1 MTH      0.065367
     22 HCS2       -0.2850   -0.3230   -0.3060 h1        1 MTH      0.065367
     23 HCS3        0.8870   -1.1490    0.8030 h1        1 MTH      0.065367
     24 H5'1        2.6580    2.3520    1.8810 h1        1 MTH      0.084700
     25 H5'2        1.5090    1.2390    2.7420 h1        1 MTH      0.084700
     26 H4'1        3.0770   -0.6820    1.6180 h1        1 MTH      0.095700
     27 H2'1        5.0440    1.6240    4.4700 h1        1 MTH      0.084700
     28 HO21        6.7900    0.2560    4.5160 ho        1 MTH      0.436000
     29 H3'1        2.9580    0.6120    4.2540 h1        1 MTH      0.091700
     30 HO31        4.4660   -1.6720    3.6190 ho        1 MTH      0.425000
     31 H1'1        6.4890    0.7200    2.0060 h2        1 MTH      0.101700
     32 HC81        4.3960    3.0660    0.4770 h4        1 MTH      0.189000
     33 HC71        5.3150    5.6400    0.7240 ha        1 MTH      0.156000
     34 HN61        8.0010    7.6880    3.0290 hn        1 MTH      0.429300
     35 HN62        6.9190    7.2520    1.7980 hn        1 MTH      0.429300
     36 HC21        8.7710    3.7650    5.3320 h5        1 MTH      0.049100
@<TRIPOS>BOND
     1    1    2 1   
     2    1   21 1   
     3    1   22 1   
     4    1   23 1   
     5    2    3 1   
     6    3    4 1   
     7    3   24 1   
     8    3   25 1   
     9    4    5 1   
    10    4    8 1   
    11    4   26 1   
    12    5   10 1   
    13    6    7 1   
    14    6    8 1   
    15    6   10 1   
    16    6   27 1   
    17    7   28 1   
    18    8    9 1   
    19    8   29 1   
    20    9   30 1   
    21   10   11 1   
    22   10   31 1   
    23   11   12 1   
    24   11   20 1   
    25   12   13 2   
    26   12   32 1   
    27   13   14 1   
    28   13   33 1   
    29   14   15 ar  
    30   14   20 ar  
    31   15   16 1   
    32   15   17 ar  
    33   16   34 1   
    34   16   35 1   
    35   17   18 ar  
    36   18   19 ar  
    37   18   36 1   
    38   19   20 ar  
@<TRIPOS>SUBSTRUCTURE
     1 MTH         1 TEMP              0 ****  ****    0 ROOT
