@<TRIPOS>MOLECULE
MTH
   37    39     1     0     0
SMALL
bcc


@<TRIPOS>ATOM
      1 CS          0.6090    1.4640    0.1680 c3        1 MTH     -0.049000
      2 S5'         2.3040    1.0300    0.2810 ss        1 MTH     -0.263200
      3 C5'         2.4990    0.7490    2.0170 c3        1 MTH     -0.058300
      4 C4'         3.6830   -0.1570    2.2890 c3        1 MTH      0.144100
      5 O4'         4.8850    0.3270    1.6610 os        1 MTH     -0.387600
      6 C2'         5.2930    0.5310    4.0260 c3        1 MTH      0.089100
      7 O2'         6.2850   -0.2780    4.6010 oh        1 MTH     -0.565800
      8 C3'         3.9690   -0.2420    3.8040 c3        1 MTH      0.082100
      9 O3'         4.1420   -1.6080    4.1180 oh        1 MTH     -0.581800
     10 C1'         5.7300    0.9860    2.5940 c3        1 MTH      0.205800
     11 N9          5.6700    2.4310    2.3740 na        1 MTH     -0.173100
     12 C8          4.9040    3.1000    1.4180 cc        1 MTH     -0.000100
     13 C7          5.2270    4.4610    1.3800 cd        1 MTH     -0.239200
     14 C5          6.2630    4.6720    2.3420 ca        1 MTH     -0.273400
     15 C6          7.0550    5.7250    2.8220 ca        1 MTH      0.489200
     16 N6          6.8700    7.0810    2.2620 n4        1 MTH     -0.816300
     17 N1          7.9990    5.5630    3.7850 nb        1 MTH     -0.689000
     18 C2          8.1530    4.3010    4.2760 ca        1 MTH      0.661900
     19 N3          7.4810    3.1750    3.9270 nb        1 MTH     -0.621000
     20 C4          6.5410    3.3550    2.9650 ca        1 MTH      0.464800
     21 HCS1        0.3760    2.4040    0.7140 h1        1 MTH      0.074033
     22 HCS2        0.4060    1.6120   -0.9190 h1        1 MTH      0.074033
     23 HCS3       -0.0540    0.6550    0.5500 h1        1 MTH      0.074033
     24 H5'1        1.5810    0.2640    2.4350 h1        1 MTH      0.072700
     25 H5'2        2.6340    1.7290    2.5370 h1        1 MTH      0.072700
     26 H4'1        3.5270   -1.1790    1.8390 h1        1 MTH      0.133700
     27 H2'1        5.1710    1.3890    4.7380 h1        1 MTH      0.107700
     28 HO21        6.3240   -1.1110    4.1030 ho        1 MTH      0.430000
     29 H3'1        3.1380    0.2020    4.4120 h1        1 MTH      0.071700
     30 HO31        4.2290   -1.6720    5.0800 ho        1 MTH      0.429000
     31 H1'1        6.7860    0.6460    2.3630 h2        1 MTH      0.125700
     32 HC81        4.1590    2.5420    0.8140 h4        1 MTH      0.237000
     33 HC71        4.7680    5.1990    0.7280 ha        1 MTH      0.169000
     34 HN61        6.1190    7.0480    1.5650 hn        1 MTH      0.471467
     35 HN62        6.6230    7.7390    3.0110 hn        1 MTH      0.471467
     36 HC21        8.9340    4.1850    5.0630 h5        1 MTH      0.097100
     37 H63         7.7430    7.3950    1.8190 hn        1 MTH      0.471467
@<TRIPOS>BOND
     1    1    2 1   
     2    1   21 1   
     3    1   22 1   
     4    1   23 1   
     5    2    3 1   
     6    3    4 1   
     7    3   24 1   
     8    3   25 1   
     9    4    5 1   
    10    4    8 1   
    11    4   26 1   
    12    5   10 1   
    13    6    7 1   
    14    6    8 1   
    15    6   10 1   
    16    6   27 1   
    17    7   28 1   
    18    8    9 1   
    19    8   29 1   
    20    9   30 1   
    21   10   11 1   
    22   10   31 1   
    23   11   12 1   
    24   11   20 1   
    25   12   13 2   
    26   12   32 1   
    27   13   14 1   
    28   13   33 1   
    29   14   15 ar  
    30   14   20 ar  
    31   15   16 1   
    32   15   17 ar  
    33   16   34 1   
    34   16   35 1   
    35   16   37 1   
    36   17   18 ar  
    37   18   19 ar  
    38   18   36 1   
    39   19   20 ar  
@<TRIPOS>SUBSTRUCTURE
     1 MTH         1 TEMP              0 ****  ****    0 ROOT
