@<TRIPOS>MOLECULE
MTH
   36    38     1     0     0
SMALL
bcc


@<TRIPOS>ATOM
      1 CS          0.2480   -0.1790    0.7460 c3        1 MTH     -0.049000
      2 S5'         1.2460    1.2390    0.5000 ss        1 MTH     -0.267200
      3 C5'         2.2260    1.3110    1.9640 c3        1 MTH     -0.049300
      4 C4'         3.3490    0.2930    2.0230 c3        1 MTH      0.132100
      5 O4'         4.5050    0.7730    1.3160 os        1 MTH     -0.394600
      6 C2'         5.1220    0.7490    3.6550 c3        1 MTH      0.086100
      7 O2'         6.0940   -0.1420    4.1520 oh        1 MTH     -0.600800
      8 C3'         3.7910   -0.0110    3.4740 c3        1 MTH      0.128100
      9 O3'         3.8890   -1.4150    3.5920 oh        1 MTH     -0.591800
     10 C1'         5.5140    1.2280    2.2190 c3        1 MTH      0.222800
     11 N9          5.6760    2.6640    2.1110 na        1 MTH     -0.195100
     12 C8          5.0960    3.5170    1.1590 cc        1 MTH     -0.099100
     13 C7          5.5740    4.8140    1.3200 cd        1 MTH     -0.163200
     14 C5          6.5070    4.7900    2.4140 ca        1 MTH     -0.370400
     15 C6          7.3350    5.7420    3.0840 ca        1 MTH      0.730200
     16 N6          7.2770    7.0760    2.7280 nh        1 MTH     -0.946500
     17 N1          8.1460    5.3300    4.1140 nb        1 MTH     -0.789000
     18 C2          8.0900    4.0150    4.4600 ca        1 MTH      0.682900
     19 N3          7.3560    3.0110    3.9340 nb        1 MTH     -0.769000
     20 C4          6.5590    3.4190    2.8940 ca        1 MTH      0.463800
     21 HCS1       -0.3850   -0.0910    1.6570 h1        1 MTH      0.065700
     22 HCS2        0.8520   -1.1110    0.8230 h1        1 MTH      0.065700
     23 HCS3       -0.4120   -0.2480   -0.1500 h1        1 MTH      0.065700
     24 H5'1        2.6540    2.3470    1.9690 h1        1 MTH      0.083700
     25 H5'2        1.5680    1.1950    2.8600 h1        1 MTH      0.083700
     26 H4'1        3.0660   -0.6580    1.4890 h1        1 MTH      0.108700
     27 H2'1        4.9810    1.6100    4.3630 h1        1 MTH      0.076700
     28 HO21        6.8610    0.3910    4.4070 ho        1 MTH      0.442000
     29 H3'1        3.0380    0.3540    4.2250 h1        1 MTH      0.058700
     30 HO31        4.5790   -1.6200    4.2370 ho        1 MTH      0.433000
     31 H1'1        6.4740    0.7300    1.8820 h2        1 MTH      0.103700
     32 HC81        4.3870    3.1100    0.4320 h4        1 MTH      0.190000
     33 HC71        5.2920    5.6840    0.7340 ha        1 MTH      0.156000
     34 HN61        7.9660    7.6970    3.0820 hn        1 MTH      0.429300
     35 HN62        6.8880    7.2810    1.8400 hn        1 MTH      0.429300
     36 HC21        8.7580    3.7310    5.3030 h5        1 MTH      0.048100
@<TRIPOS>BOND
     1    1    2 1   
     2    1   21 1   
     3    1   22 1   
     4    1   23 1   
     5    2    3 1   
     6    3    4 1   
     7    3   24 1   
     8    3   25 1   
     9    4    5 1   
    10    4    8 1   
    11    4   26 1   
    12    5   10 1   
    13    6    7 1   
    14    6    8 1   
    15    6   10 1   
    16    6   27 1   
    17    7   28 1   
    18    8    9 1   
    19    8   29 1   
    20    9   30 1   
    21   10   11 1   
    22   10   31 1   
    23   11   12 1   
    24   11   20 1   
    25   12   13 2   
    26   12   32 1   
    27   13   14 1   
    28   13   33 1   
    29   14   15 ar  
    30   14   20 ar  
    31   15   16 1   
    32   15   17 ar  
    33   16   34 1   
    34   16   35 1   
    35   17   18 ar  
    36   18   19 ar  
    37   18   36 1   
    38   19   20 ar  
@<TRIPOS>SUBSTRUCTURE
     1 MTH         1 TEMP              0 ****  ****    0 ROOT
