@<TRIPOS>MOLECULE
MTH
   36    38     1     0     0
SMALL
bcc


@<TRIPOS>ATOM
      1 CS          5.4080   -1.4530    0.4960 c3        1 MTH     -0.049000
      2 S5'         3.8070   -2.1090    0.2260 ss        1 MTH     -0.268200
      3 C5'         2.7410   -0.8730    0.8920 c3        1 MTH     -0.045300
      4 C4'         2.5590    0.3490    0.0130 c3        1 MTH      0.101100
      5 O4'         1.5860    0.0940   -1.0130 os        1 MTH     -0.396600
      6 C2'         0.6220    1.8150    0.3860 c3        1 MTH      0.084100
      7 O2'         0.5140    3.1050   -0.1740 oh        1 MTH     -0.594800
      8 C3'         2.0870    1.5850    0.8160 c3        1 MTH      0.127100
      9 O3'         2.9280    2.6900    0.5950 oh        1 MTH     -0.576800
     10 C1'         0.3490    0.7500   -0.7280 c3        1 MTH      0.218800
     11 N9         -0.6740   -0.2110   -0.3750 na        1 MTH     -0.195100
     12 C8         -0.5930   -1.6120   -0.4400 cc        1 MTH     -0.100100
     13 C7         -1.8250   -2.1800   -0.1330 cd        1 MTH     -0.162200
     14 C5         -2.7390   -1.1000    0.1240 ca        1 MTH     -0.370400
     15 C6         -4.1180   -0.9770    0.4780 ca        1 MTH      0.730200
     16 N6         -4.8680   -2.1100    0.7300 nh        1 MTH     -0.947500
     17 N1         -4.6740    0.2720    0.6170 nb        1 MTH     -0.789000
     18 C2         -3.8530    1.3420    0.4300 ca        1 MTH      0.682900
     19 N3         -2.5420    1.3830    0.1090 nb        1 MTH     -0.765000
     20 C4         -1.9910    0.1350   -0.0440 ca        1 MTH      0.463800
     21 HCS1        5.5740   -0.5040   -0.0620 h1        1 MTH      0.065367
     22 HCS2        5.6080   -1.2690    1.5750 h1        1 MTH      0.065367
     23 HCS3        6.1220   -2.2230    0.1210 h1        1 MTH      0.065367
     24 H5'1        1.7560   -1.3890    1.0320 h1        1 MTH      0.084700
     25 H5'2        3.1200   -0.5550    1.8950 h1        1 MTH      0.084700
     26 H4'1        3.5090    0.5810   -0.5480 h1        1 MTH      0.095700
     27 H2'1       -0.0660    1.7030    1.2650 h1        1 MTH      0.084700
     28 HO21       -0.4300    3.3090   -0.2230 ho        1 MTH      0.436000
     29 H3'1        2.1480    1.4030    1.9240 h1        1 MTH      0.091700
     30 HO31        2.7100    3.0700   -0.2670 ho        1 MTH      0.425000
     31 H1'1        0.0480    1.2570   -1.6960 h2        1 MTH      0.101700
     32 HC81        0.3540   -2.0850   -0.7160 h4        1 MTH      0.189000
     33 HC71       -2.0550   -3.2400   -0.0910 ha        1 MTH      0.156000
     34 HN61       -4.5110   -2.9640    0.3770 hn        1 MTH      0.429300
     35 HN62       -5.8530   -2.0240    0.8150 hn        1 MTH      0.429300
     36 HC21       -4.3460    2.3300    0.5590 h5        1 MTH      0.049100
@<TRIPOS>BOND
     1    1    2 1   
     2    1   21 1   
     3    1   22 1   
     4    1   23 1   
     5    2    3 1   
     6    3    4 1   
     7    3   24 1   
     8    3   25 1   
     9    4    5 1   
    10    4    8 1   
    11    4   26 1   
    12    5   10 1   
    13    6    7 1   
    14    6    8 1   
    15    6   10 1   
    16    6   27 1   
    17    7   28 1   
    18    8    9 1   
    19    8   29 1   
    20    9   30 1   
    21   10   11 1   
    22   10   31 1   
    23   11   12 1   
    24   11   20 1   
    25   12   13 2   
    26   12   32 1   
    27   13   14 1   
    28   13   33 1   
    29   14   15 ar  
    30   14   20 ar  
    31   15   16 1   
    32   15   17 ar  
    33   16   34 1   
    34   16   35 1   
    35   17   18 ar  
    36   18   19 ar  
    37   18   36 1   
    38   19   20 ar  
@<TRIPOS>SUBSTRUCTURE
     1 MTH         1 TEMP              0 ****  ****    0 ROOT
