@<TRIPOS>MOLECULE
MTI
   37    34     1     0     0
SMALL
bcc


@<TRIPOS>ATOM
      1 CS         -4.6660   -3.7640   -0.9310 c3        1 MTI     -0.048000
      2 S5'        -2.9400   -3.4650   -1.2310 ss        1 MTI     -0.247200
      3 C5'        -2.5050   -1.8250   -0.6430 c3        1 MTI     -0.069300
      4 C4'        -0.9680   -1.6720   -0.6400 c3        1 MTI      0.094500
      5 N4'        -0.6360   -0.4270   -0.8420 n4        1 MTI     -0.757000
      6 C2'         0.5580   -0.8390    1.1310 c3        1 MTI      0.145100
      7 O2'         1.8530   -1.3550    1.6010 oh        1 MTI     -0.579800
      8 C3'        -0.3990   -2.0200    0.7610 c3        1 MTI      0.109100
      9 O3'         0.2740   -3.1620    0.7170 oh        1 MTI     -0.580800
     10 C1'         0.7070   -0.1680    0.0260 c3        1 MTI      0.230700
     11 C9          0.8580    1.2930    0.3320 ce        1 MTI     -0.280000
     12 C8          0.0650    2.0800    1.1300 c1        1 MTI      0.266500
     13 N7          0.5630    3.3380    1.1080 nf        1 MTI     -0.375400
     14 C5          1.6890    3.3430    0.2830 ch        1 MTI     -0.114000
     15 C6          2.6470    4.3390    0.0090 c1        1 MTI      0.817900
     16 O6          2.5800    5.4210    0.5790 o         1 MTI     -0.537500
     17 N1          3.7440    4.0350   -0.7290 n2        1 MTI     -0.779800
     18 C2          3.9180    2.7630   -1.2060 c1        1 MTI      0.481300
     19 N3          2.9770    1.7870   -0.9360 n1        1 MTI     -0.570800
     20 C4          1.8640    2.0890   -0.1890 cg        1 MTI     -0.050300
     21 HS1        -4.8260   -3.8240    0.0430 h1        1 MTI      0.084700
     22 HS2        -4.9290   -4.6070   -1.3560 h1        1 MTI      0.084700
     23 HS3        -5.1980   -3.0250   -1.3090 h1        1 MTI      0.084700
     24 H5'1       -2.8430   -1.7060    0.2590 h1        1 MTI      0.088700
     25 H5'2       -2.8890   -1.1700   -1.2130 h1        1 MTI      0.088700
     26 H4'        -0.5630   -2.2480   -1.3250 hx        1 MTI      0.133700
     27 H4'1       -1.2930    0.1160   -0.5620 hn        1 MTI      0.463800
     28 H4'2       -0.4630   -0.2830   -1.7640 hn        1 MTI      0.463800
     29 H1          0.1780   -0.3180    1.7630 h1        1 MTI      0.081700
     30 H2'         1.8530   -1.3940    2.4890 ho        1 MTI      0.455000
     31 H3'        -1.1700   -2.0850    1.4510 h1        1 MTI      0.078700
     32 H2         -0.1980   -3.8020    1.1240 ho        1 MTI      0.452000
     33 H1'         1.4830   -0.4890   -0.4600 hx        1 MTI      0.135700
     34 H8         -0.6830    1.7780    1.6550 DU        1 MTI      0.245000
     35 HN7         0.2380    4.0230    1.5370 DU        1 MTI      0.245000
     36 HN1         4.3940    4.7070   -0.9160 hn        1 MTI      0.517400
     37 H3          4.7250    2.5400   -1.7480 ha        1 MTI      0.141500
@<TRIPOS>BOND
     1    1    2 1   
     2    1   21 1   
     3    1   22 1   
     4    1   23 1   
     5    2    3 1   
     6    3    4 1   
     7    3   24 1   
     8    3   25 1   
     9    4    5 1   
    10    4    8 1   
    11    4   26 1   
    12    5   10 1   
    13    5   27 1   
    14    5   28 1   
    15    6    7 1   
    16    6    8 1   
    17    6   10 1   
    18    6   29 1   
    19    7   30 1   
    20    8    9 1   
    21    8   31 1   
    22    9   32 1   
    23   10   11 1   
    24   10   33 1   
    25   11   12 2   
    26   11   20 1   
    27   12   13 2   
    28   13   14 1   
    29   14   20 3   
    30   15   16 2   
    31   15   17 2   
    32   17   36 1   
    33   18   19 3   
    34   18   37 1   
@<TRIPOS>SUBSTRUCTURE
     1 MTI         1 TEMP              0 ****  ****    0 ROOT
