@<TRIPOS>MOLECULE
MTI
   37    39     1     0     0
SMALL
bcc


@<TRIPOS>ATOM
      1 CS          3.9350   -2.2160   -1.4780 c3        1 MTI     -0.054000
      2 S5'         2.3780   -2.0970   -0.6810 ss        1 MTI     -0.252200
      3 C5'         2.6280   -0.9220    0.6030 c3        1 MTI     -0.072300
      4 C4'         2.4280    0.5180    0.1490 c3        1 MTI      0.095500
      5 N4'         1.1890    0.6900   -0.6890 n4        1 MTI     -0.763000
      6 C2'         0.9930    2.2790    1.1650 c3        1 MTI      0.139100
      7 O2'         1.2240    3.5510    0.6010 oh        1 MTI     -0.584800
      8 C3'         2.3070    1.4820    1.3650 c3        1 MTI      0.100100
      9 O3'         3.3680    2.4090    1.3370 oh        1 MTI     -0.579800
     10 C1'         0.1760    1.5080    0.0970 c3        1 MTI      0.241800
     11 C9         -0.9080    0.6650    0.6200 cc        1 MTI     -0.251300
     12 C8         -1.4510    0.5870    1.9240 cd        1 MTI     -0.053300
     13 N7         -2.5420   -0.2570    1.9270 na        1 MTI     -0.104100
     14 C5         -2.7300   -0.7380    0.6380 cd        1 MTI     -0.213900
     15 C6         -3.7520   -1.6380    0.1070 c         1 MTI      0.727100
     16 O6         -4.6620   -2.1700    0.7570 o         1 MTI     -0.582500
     17 N1         -3.6120   -1.8690   -1.2810 n         1 MTI     -0.475400
     18 C2         -2.5900   -1.2890   -2.0180 cd        1 MTI      0.518800
     19 N3         -1.6470   -0.4780   -1.5640 nc        1 MTI     -0.648100
     20 C4         -1.7230   -0.1840   -0.2140 cc        1 MTI      0.132400
     21 HS1         4.7390   -2.5330   -0.7760 h1        1 MTI      0.083367
     22 HS2         3.8090   -3.0080   -2.2560 h1        1 MTI      0.083367
     23 HS3         4.2390   -1.2680   -1.9710 h1        1 MTI      0.083367
     24 H5'1        1.8880   -1.1930    1.4000 h1        1 MTI      0.109200
     25 H5'2        3.6520   -1.0020    1.0480 h1        1 MTI      0.109200
     26 H4'         3.3130    0.8400   -0.4800 hx        1 MTI      0.118700
     27 H4'1        1.4240    1.1980   -1.5440 hn        1 MTI      0.471300
     28 H4'2        0.8120   -0.2390   -0.9470 hn        1 MTI      0.471300
     29 H1          0.4310    2.3770    2.1300 h1        1 MTI      0.084700
     30 H2'         1.8890    4.0050    1.1410 ho        1 MTI      0.450000
     31 H3'         2.2800    0.9010    2.3240 h1        1 MTI      0.082700
     32 H2          4.0680    2.0810    1.9180 ho        1 MTI      0.436000
     33 H1'        -0.2690    2.2600   -0.6340 hx        1 MTI      0.141700
     34 H8         -1.1330    1.0950    2.8400 h4        1 MTI      0.187000
     35 HN7        -3.1240   -0.4740    2.7010 hn        1 MTI      0.339700
     36 HN1        -4.2820   -2.4580   -1.7290 hn        1 MTI      0.359500
     37 H3         -2.5700   -1.5400   -3.1040 h5        1 MTI      0.072800
@<TRIPOS>BOND
     1    1    2 1   
     2    1   21 1   
     3    1   22 1   
     4    1   23 1   
     5    2    3 1   
     6    3    4 1   
     7    3   24 1   
     8    3   25 1   
     9    4    5 1   
    10    4    8 1   
    11    4   26 1   
    12    5   10 1   
    13    5   27 1   
    14    5   28 1   
    15    6    7 1   
    16    6    8 1   
    17    6   10 1   
    18    6   29 1   
    19    7   30 1   
    20    8    9 1   
    21    8   31 1   
    22    9   32 1   
    23   10   11 1   
    24   10   33 1   
    25   11   12 2   
    26   11   20 1   
    27   12   13 1   
    28   12   34 1   
    29   13   14 1   
    30   13   35 1   
    31   14   15 1   
    32   14   20 2   
    33   15   16 2   
    34   15   17 1   
    35   17   18 1   
    36   17   36 1   
    37   18   19 2   
    38   18   37 1   
    39   19   20 1   
@<TRIPOS>SUBSTRUCTURE
     1 MTI         1 TEMP              0 ****  ****    0 ROOT
