@<TRIPOS>MOLECULE
MTI
   37    39     1     0     0
SMALL
bcc


@<TRIPOS>ATOM
      1 CS          2.1100    0.6670   -0.9020 c3        1 MTI     -0.050000
      2 S5'         2.7960    1.8260    0.2220 ss        1 MTI     -0.264200
      3 C5'         2.4410    1.1630    1.8110 c3        1 MTI     -0.067300
      4 C4'         3.5080    0.1980    2.3120 c3        1 MTI      0.088500
      5 N4'         4.9020    0.7210    2.0930 ny        1 MTI     -0.767000
      6 C2'         4.6910    0.2490    4.5000 c3        1 MTI      0.098100
      7 O2'         5.3660   -0.9610    4.7880 oh        1 MTI     -0.597800
      8 C3'         3.3330   -0.0780    3.8330 c3        1 MTI      0.115100
      9 O3'         2.9260   -1.3990    4.0590 oh        1 MTI     -0.560800
     10 C1'         5.5560    0.9770    3.4430 c3        1 MTI      0.240800
     11 C9          5.7470    2.4170    3.6680 cc        1 MTI     -0.254300
     12 C8          5.3960    3.2310    4.7710 cd        1 MTI     -0.051300
     13 N7          5.8780    4.5090    4.5800 na        1 MTI     -0.102100
     14 C5          6.5420    4.5530    3.3610 cd        1 MTI     -0.212900
     15 C6          7.2420    5.6560    2.7060 c         1 MTI      0.727100
     16 O6          7.3540    6.8090    3.1440 o         1 MTI     -0.580500
     17 N1          7.8100    5.2860    1.4640 ns        1 MTI     -0.474400
     18 C2          7.6820    4.0020    0.9570 cd        1 MTI      0.519800
     19 N3          7.0500    2.9850    1.5230 nc        1 MTI     -0.650100
     20 C4          6.4810    3.2590    2.7550 cc        1 MTI      0.131400
     21 HS1         1.0200    0.5180   -0.7330 h1        1 MTI      0.083367
     22 HS2         2.6200   -0.3210   -0.8620 h1        1 MTI      0.083367
     23 HS3         2.2570    1.1140   -1.9160 h1        1 MTI      0.083367
     24 H5'1        1.4590    0.6250    1.8350 h1        1 MTI      0.114200
     25 H5'2        2.3560    2.0500    2.4930 h1        1 MTI      0.114200
     26 H4'         3.4130   -0.7780    1.7480 hx        1 MTI      0.112700
     27 H4'1        5.4570    0.0300    1.5830 hn        1 MTI      0.469300
     28 H4'2        4.8620    1.5860    1.5250 hn        1 MTI      0.469300
     29 H1          4.5550    0.8730    5.4200 h1        1 MTI      0.092700
     30 H2'         5.1130   -1.2360    5.6800 ho        1 MTI      0.446000
     31 H3'         2.5030    0.5540    4.2570 h1        1 MTI      0.119700
     32 H2          3.6770   -1.9930    3.8960 ho        1 MTI      0.428000
     33 H1'         6.5790    0.4780    3.4050 hx        1 MTI      0.136700
     34 H8          4.8470    2.9710    5.6800 h4        1 MTI      0.187000
     35 HN7         5.7920    5.2770    5.2030 hn        1 MTI      0.340700
     36 HN1         8.3210    5.9780    0.9580 hn        1 MTI      0.359500
     37 H3          8.1640    3.8180   -0.0310 h5        1 MTI      0.072800
@<TRIPOS>BOND
     1    1    2 1   
     2    1   21 1   
     3    1   22 1   
     4    1   23 1   
     5    2    3 1   
     6    3    4 1   
     7    3   24 1   
     8    3   25 1   
     9    4    5 1   
    10    4    8 1   
    11    4   26 1   
    12    5   10 1   
    13    5   27 1   
    14    5   28 1   
    15    6    7 1   
    16    6    8 1   
    17    6   10 1   
    18    6   29 1   
    19    7   30 1   
    20    8    9 1   
    21    8   31 1   
    22    9   32 1   
    23   10   11 1   
    24   10   33 1   
    25   11   12 2   
    26   11   20 1   
    27   12   13 1   
    28   12   34 1   
    29   13   14 1   
    30   13   35 1   
    31   14   15 1   
    32   14   20 2   
    33   15   16 2   
    34   15   17 1   
    35   17   18 1   
    36   17   36 1   
    37   18   19 2   
    38   18   37 1   
    39   19   20 1   
@<TRIPOS>SUBSTRUCTURE
     1 MTI         1 TEMP              0 ****  ****    0 ROOT
