@<TRIPOS>MOLECULE
MTI
   37    39     1     0     0
SMALL
bcc


@<TRIPOS>ATOM
      1 CS          2.1530    0.7080   -0.9490 c3        1 MTI     -0.050000
      2 S5'         2.8330    1.8560    0.1900 ss        1 MTI     -0.264200
      3 C5'         2.4460    1.1910    1.7710 c3        1 MTI     -0.067300
      4 C4'         3.4950    0.2130    2.2850 c3        1 MTI      0.088500
      5 N4'         4.8980    0.7220    2.0910 n4        1 MTI     -0.767000
      6 C2'         4.6430    0.2440    4.4920 c3        1 MTI      0.098100
      7 O2'         5.3010   -0.9750    4.7860 oh        1 MTI     -0.597800
      8 C3'         3.2930   -0.0670    3.8030 c3        1 MTI      0.115100
      9 O3'         2.8690   -1.3840    4.0170 oh        1 MTI     -0.560800
     10 C1'         5.5340    0.9660    3.4510 c3        1 MTI      0.240800
     11 C9          5.7360    2.4030    3.6850 cc        1 MTI     -0.254300
     12 C8          5.3770    3.2160    4.7850 cd        1 MTI     -0.051300
     13 N7          5.8750    4.4900    4.6070 na        1 MTI     -0.102100
     14 C5          6.5590    4.5310    3.3980 cd        1 MTI     -0.212900
     15 C6          7.2800    5.6300    2.7590 c         1 MTI      0.727100
     16 O6          7.3970    6.7800    3.2040 o         1 MTI     -0.580500
     17 N1          7.8630    5.2580    1.5250 n         1 MTI     -0.474400
     18 C2          7.7300    3.9770    1.0100 cd        1 MTI      0.519800
     19 N3          7.0780    2.9650    1.5630 nc        1 MTI     -0.650100
     20 C4          6.4930    3.2400    2.7870 cc        1 MTI      0.131400
     21 HS1         2.3210    1.1570   -1.9580 h1        1 MTI      0.083367
     22 HS2         2.6520   -0.2840   -0.9040 h1        1 MTI      0.083367
     23 HS3         1.0590    0.5710   -0.7970 h1        1 MTI      0.083367
     24 H5'1        2.3600    2.0760    2.4550 h1        1 MTI      0.114200
     25 H5'2        1.4580    0.6630    1.7780 h1        1 MTI      0.114200
     26 H4'         3.3990   -0.7600    1.7160 hx        1 MTI      0.112700
     27 H4'1        4.8760    1.5890    1.5250 hn        1 MTI      0.469300
     28 H4'2        5.4530    0.0280    1.5860 hn        1 MTI      0.469300
     29 H1          4.5000    0.8650    5.4120 h1        1 MTI      0.092700
     30 H2'         5.0310   -1.2500    5.6730 ho        1 MTI      0.446000
     31 H3'         2.4630    0.5720    4.2160 h1        1 MTI      0.119700
     32 H2          3.6160   -1.9850    3.8640 ho        1 MTI      0.428000
     33 H1'         6.5510    0.4560    3.4280 hx        1 MTI      0.136700
     34 H8          4.8110    2.9590    5.6850 h4        1 MTI      0.187000
     35 HN7         5.7870    5.2570    5.2320 hn        1 MTI      0.340700
     36 HN1         8.3900    5.9460    1.0290 hn        1 MTI      0.359500
     37 H3          8.2250    3.7920    0.0300 h5        1 MTI      0.072800
@<TRIPOS>BOND
     1    1    2 1   
     2    1   21 1   
     3    1   22 1   
     4    1   23 1   
     5    2    3 1   
     6    3    4 1   
     7    3   24 1   
     8    3   25 1   
     9    4    5 1   
    10    4    8 1   
    11    4   26 1   
    12    5   10 1   
    13    5   27 1   
    14    5   28 1   
    15    6    7 1   
    16    6    8 1   
    17    6   10 1   
    18    6   29 1   
    19    7   30 1   
    20    8    9 1   
    21    8   31 1   
    22    9   32 1   
    23   10   11 1   
    24   10   33 1   
    25   11   12 2   
    26   11   20 1   
    27   12   13 1   
    28   12   34 1   
    29   13   14 1   
    30   13   35 1   
    31   14   15 1   
    32   14   20 2   
    33   15   16 2   
    34   15   17 1   
    35   17   18 1   
    36   17   36 1   
    37   18   19 2   
    38   18   37 1   
    39   19   20 1   
@<TRIPOS>SUBSTRUCTURE
     1 MTI         1 TEMP              0 ****  ****    0 ROOT
