@<TRIPOS>MOLECULE
MTJ
   29    29     1     0     0
SMALL
bcc


@<TRIPOS>ATOM
      1 N           1.4030    0.4370    1.8330 n3        1 MTJ     -0.799200
      2 CN          1.9440    1.6010    2.4800 c3        1 MTJ      0.146100
      3 CA         -0.0480    0.3190    1.9380 c3        1 MTJ      0.050500
      4 CB         -0.5880   -0.8360    1.0810 c3        1 MTJ     -0.037100
      5 CG         -0.3820   -0.6200   -0.3760 ca        1 MTJ     -0.075300
      6 CD1         0.7560   -1.1290   -1.0190 ca        1 MTJ     -0.108000
      7 CE1         0.9550   -0.9380   -2.3820 ca        1 MTJ     -0.181000
      8 CZ         -0.0030   -0.2220   -3.1200 ca        1 MTJ      0.088100
      9 OM          0.2790   -0.0940   -4.4740 os        1 MTJ     -0.339900
     10 CM         -0.6260    0.7050   -5.2200 c3        1 MTJ      0.119700
     11 CE2        -1.1420    0.2960   -2.4970 ca        1 MTJ     -0.181000
     12 CD2        -1.3210    0.0930   -1.1290 ca        1 MTJ     -0.108000
     13 C          -0.5380    0.1080    3.4160 c         1 MTJ      0.928600
     14 O27        -0.4720    1.1050    4.1880 o         1 MTJ     -0.836800
     15 O28        -1.0160   -1.0140    3.7310 o         1 MTJ     -0.836800
     16 HN1         1.6540    0.4460    0.8580 hn        1 MTJ      0.317800
     17 HN1A        3.0620    1.5040    2.5020 h1        1 MTJ      0.025367
     18 HN2         1.6890    2.5680    1.9620 h1        1 MTJ      0.025367
     19 HN3         1.5480    1.6560    3.5320 h1        1 MTJ      0.025367
     20 HA         -0.5480    1.2720    1.5800 h1        1 MTJ     -0.000300
     21 HB1        -0.1060   -1.7930    1.4130 hc        1 MTJ      0.069200
     22 HB2        -1.6840   -0.9270    1.3080 hc        1 MTJ      0.069200
     23 HD1         1.5030   -1.6850   -0.4290 ha        1 MTJ      0.140500
     24 HE1         1.8450   -1.3340   -2.8890 ha        1 MTJ      0.127500
     25 HM1        -0.1900    0.7110   -6.2500 h1        1 MTJ      0.034033
     26 HM2        -1.6450    0.2440   -5.2300 h1        1 MTJ      0.034033
     27 HM3        -0.6760    1.7420   -4.8080 h1        1 MTJ      0.034033
     28 HE2        -1.8930    0.8600   -3.0650 ha        1 MTJ      0.127500
     29 HD2        -2.2120    0.5020   -0.6300 ha        1 MTJ      0.140500
@<TRIPOS>BOND
     1    1    2 1   
     2    1    3 1   
     3    1   16 1   
     4    2   17 1   
     5    2   18 1   
     6    2   19 1   
     7    3    4 1   
     8    3   13 1   
     9    3   20 1   
    10    4    5 1   
    11    4   21 1   
    12    4   22 1   
    13    5    6 ar  
    14    5   12 ar  
    15    6    7 ar  
    16    6   23 1   
    17    7    8 ar  
    18    7   24 1   
    19    8    9 1   
    20    8   11 ar  
    21    9   10 1   
    22   10   25 1   
    23   10   26 1   
    24   10   27 1   
    25   11   12 ar  
    26   11   28 1   
    27   12   29 1   
    28   13   14 1   
    29   13   15 1   
@<TRIPOS>SUBSTRUCTURE
     1 MTJ         1 TEMP              0 ****  ****    0 ROOT
