@<TRIPOS>MOLECULE
MTJ
   30    30     1     0     0
SMALL
bcc


@<TRIPOS>ATOM
      1 N          -0.0260   -0.0170   -0.1610 ny        1 MTJ     -0.754000
      2 CN         -0.4270    0.8440   -1.2840 c3        1 MTJ      0.094100
      3 CA          1.4630   -0.1230   -0.0060 c3        1 MTJ     -0.063500
      4 CB          1.8970   -0.0840    1.4540 c3        1 MTJ     -0.046100
      5 CG          1.4790    1.1670    2.1410 ca        1 MTJ     -0.148300
      6 CD1         0.3570    1.1750    2.9830 ca        1 MTJ     -0.104500
      7 CE1        -0.0420    2.3390    3.6270 ca        1 MTJ     -0.176500
      8 CZ          0.6970    3.5210    3.4300 ca        1 MTJ      0.127100
      9 OM          0.2110    4.6260    4.0990 os        1 MTJ     -0.324900
     10 CM          0.9980    5.8100    4.0120 c3        1 MTJ      0.111700
     11 CE2         1.8250    3.5260    2.6010 ca        1 MTJ     -0.176500
     12 CD2         2.2080    2.3470    1.9650 ca        1 MTJ     -0.104500
     13 C           1.9670   -1.5070   -0.6400 c         1 MTJ      0.933600
     14 O27         1.0520   -2.3280   -0.9140 o         1 MTJ     -0.760800
     15 O28         3.1960   -1.5970   -0.7870 o         1 MTJ     -0.760800
     16 HN1        -0.4450    0.3200    0.7090 hn        1 MTJ      0.453300
     17 HN1A       -1.5450    0.8300   -1.3830 hx        1 MTJ      0.087367
     18 HN2         0.0380    0.4510   -2.2290 hx        1 MTJ      0.087367
     19 HN3        -0.0780    1.8940   -1.1060 hx        1 MTJ      0.087367
     20 HA          1.9460    0.7190   -0.5720 hx        1 MTJ      0.088700
     21 HB1         1.4990   -0.9830    1.9970 hc        1 MTJ      0.090700
     22 HB2         3.0190   -0.1780    1.4440 hc        1 MTJ      0.090700
     23 HD1        -0.2000    0.2410    3.1620 ha        1 MTJ      0.138500
     24 HE1        -0.9150    2.3520    4.2940 ha        1 MTJ      0.148000
     25 HM1         2.0280    5.6310    4.4040 h1        1 MTJ      0.047700
     26 HM2         0.4460    6.5350    4.6630 h1        1 MTJ      0.047700
     27 HM3         1.0370    6.1780    2.9580 h1        1 MTJ      0.047700
     28 HE2         2.4160    4.4410    2.4530 ha        1 MTJ      0.148000
     29 HD2         3.1020    2.3410    1.3210 ha        1 MTJ      0.138500
     30 HN31       -0.3480   -0.9980   -0.3480 hn        1 MTJ      0.453300
@<TRIPOS>BOND
     1    1    2 1   
     2    1    3 1   
     3    1   16 1   
     4    1   30 1   
     5    2   17 1   
     6    2   18 1   
     7    2   19 1   
     8    3    4 1   
     9    3   13 1   
    10    3   20 1   
    11    4    5 1   
    12    4   21 1   
    13    4   22 1   
    14    5    6 ar  
    15    5   12 ar  
    16    6    7 ar  
    17    6   23 1   
    18    7    8 ar  
    19    7   24 1   
    20    8    9 1   
    21    8   11 ar  
    22    9   10 1   
    23   10   25 1   
    24   10   26 1   
    25   10   27 1   
    26   11   12 ar  
    27   11   28 1   
    28   12   29 1   
    29   13   14 1   
    30   13   15 1   
@<TRIPOS>SUBSTRUCTURE
     1 MTJ         1 TEMP              0 ****  ****    0 ROOT
