@<TRIPOS>MOLECULE
MTJ
   30    30     1     0     0
SMALL
bcc


@<TRIPOS>ATOM
      1 N          -0.0300   -0.0180   -0.1570 n4        1 MTJ     -0.754000
      2 CN         -0.4360    0.8410   -1.2800 c3        1 MTJ      0.094100
      3 CA          1.4600   -0.1230   -0.0070 c3        1 MTJ     -0.063500
      4 CB          1.8980   -0.0830    1.4510 c3        1 MTJ     -0.046100
      5 CG          1.4810    1.1680    2.1400 ca        1 MTJ     -0.148300
      6 CD1         0.3630    1.1750    2.9860 ca        1 MTJ     -0.104500
      7 CE1        -0.0350    2.3390    3.6300 ca        1 MTJ     -0.176500
      8 CZ          0.7020    3.5220    3.4300 ca        1 MTJ      0.127100
      9 OM          0.2180    4.6260    4.1010 os        1 MTJ     -0.324900
     10 CM          1.0030    5.8110    4.0110 c3        1 MTJ      0.111700
     11 CE2         1.8270    3.5270    2.5970 ca        1 MTJ     -0.176500
     12 CD2         2.2090    2.3480    1.9600 ca        1 MTJ     -0.104500
     13 C           1.9620   -1.5070   -0.6430 c         1 MTJ      0.933600
     14 O27         1.0470   -2.3280   -0.9130 o         1 MTJ     -0.760800
     15 O28         3.1920   -1.5950   -0.7940 o         1 MTJ     -0.760800
     16 HN1        -0.3520   -0.9990   -0.3420 hn        1 MTJ      0.453300
     17 HN1A       -1.5540    0.8260   -1.3750 hx        1 MTJ      0.087367
     18 HN2        -0.0870    1.8920   -1.1030 hx        1 MTJ      0.087367
     19 HN3         0.0260    0.4480   -2.2260 hx        1 MTJ      0.087367
     20 HA          1.9390    0.7190   -0.5750 hx        1 MTJ      0.088700
     21 HB1         1.5020   -0.9820    1.9960 hc        1 MTJ      0.090700
     22 HB2         3.0200   -0.1760    1.4380 hc        1 MTJ      0.090700
     23 HD1        -0.1930    0.2410    3.1660 ha        1 MTJ      0.138500
     24 HE1        -0.9060    2.3520    4.3010 ha        1 MTJ      0.148000
     25 HM1         2.0350    5.6330    4.3990 h1        1 MTJ      0.047700
     26 HM2         0.4540    6.5350    4.6640 h1        1 MTJ      0.047700
     27 HM3         1.0380    6.1790    2.9570 h1        1 MTJ      0.047700
     28 HE2         2.4160    4.4430    2.4470 ha        1 MTJ      0.148000
     29 HD2         3.1000    2.3430    1.3130 ha        1 MTJ      0.138500
     30 HN31       -0.4460    0.3190    0.7140 hn        1 MTJ      0.453300
@<TRIPOS>BOND
     1    1    2 1   
     2    1    3 1   
     3    1   16 1   
     4    1   30 1   
     5    2   17 1   
     6    2   18 1   
     7    2   19 1   
     8    3    4 1   
     9    3   13 1   
    10    3   20 1   
    11    4    5 1   
    12    4   21 1   
    13    4   22 1   
    14    5    6 ar  
    15    5   12 ar  
    16    6    7 ar  
    17    6   23 1   
    18    7    8 ar  
    19    7   24 1   
    20    8    9 1   
    21    8   11 ar  
    22    9   10 1   
    23   10   25 1   
    24   10   26 1   
    25   10   27 1   
    26   11   12 ar  
    27   11   28 1   
    28   12   29 1   
    29   13   14 1   
    30   13   15 1   
@<TRIPOS>SUBSTRUCTURE
     1 MTJ         1 TEMP              0 ****  ****    0 ROOT
