@<TRIPOS>MOLECULE
MTJ
   30    30     1     0     0
SMALL
bcc


@<TRIPOS>ATOM
      1 N          -0.0260   -0.0170   -0.1610 n4        1 MTJ     -0.754000
      2 CN         -0.4320    0.8450   -1.2810 c3        1 MTJ      0.094100
      3 CA          1.4640   -0.1200   -0.0090 c3        1 MTJ     -0.063500
      4 CB          1.9000   -0.0820    1.4490 c3        1 MTJ     -0.046100
      5 CG          1.4810    1.1670    2.1390 ca        1 MTJ     -0.148300
      6 CD1         0.3620    1.1710    2.9840 ca        1 MTJ     -0.104500
      7 CE1        -0.0380    2.3330    3.6300 ca        1 MTJ     -0.176500
      8 CZ          0.6970    3.5180    3.4330 ca        1 MTJ      0.127100
      9 OM          0.2110    4.6210    4.1050 os        1 MTJ     -0.324900
     10 CM          0.9940    5.8060    4.0170 c3        1 MTJ      0.111700
     11 CE2         1.8230    3.5260    2.6010 ca        1 MTJ     -0.176500
     12 CD2         2.2080    2.3490    1.9630 ca        1 MTJ     -0.104500
     13 C           1.9690   -1.5020   -0.6470 c         1 MTJ      0.933600
     14 O27         1.0550   -2.3240   -0.9210 o         1 MTJ     -0.760800
     15 O28         3.1990   -1.5890   -0.7960 o         1 MTJ     -0.760800
     16 HN1        -0.4440    0.3170    0.7100 hn        1 MTJ      0.453300
     17 HN1A        0.0320    0.4560   -2.2280 hx        1 MTJ      0.087367
     18 HN2        -0.0840    1.8960   -1.1010 hx        1 MTJ      0.087367
     19 HN3        -1.5490    0.8290   -1.3780 hx        1 MTJ      0.087367
     20 HA          1.9430    0.7240   -0.5760 hx        1 MTJ      0.088700
     21 HB1         3.0230   -0.1740    1.4370 hc        1 MTJ      0.090700
     22 HB2         1.5060   -0.9830    1.9920 hc        1 MTJ      0.090700
     23 HD1        -0.1920    0.2360    3.1630 ha        1 MTJ      0.138500
     24 HE1        -0.9100    2.3440    4.3000 ha        1 MTJ      0.148000
     25 HM1         1.0290    6.1760    2.9640 h1        1 MTJ      0.047700
     26 HM2         2.0260    5.6300    4.4070 h1        1 MTJ      0.047700
     27 HM3         0.4420    6.5290    4.6710 h1        1 MTJ      0.047700
     28 HE2         2.4110    4.4430    2.4530 ha        1 MTJ      0.148000
     29 HD2         3.1000    2.3460    1.3160 ha        1 MTJ      0.138500
     30 HN31       -0.3460   -0.9980   -0.3500 hn        1 MTJ      0.453300
@<TRIPOS>BOND
     1    1    2 1   
     2    1    3 1   
     3    1   16 1   
     4    1   30 1   
     5    2   17 1   
     6    2   18 1   
     7    2   19 1   
     8    3    4 1   
     9    3   13 1   
    10    3   20 1   
    11    4    5 1   
    12    4   21 1   
    13    4   22 1   
    14    5    6 ar  
    15    5   12 ar  
    16    6    7 ar  
    17    6   23 1   
    18    7    8 ar  
    19    7   24 1   
    20    8    9 1   
    21    8   11 ar  
    22    9   10 1   
    23   10   25 1   
    24   10   26 1   
    25   10   27 1   
    26   11   12 ar  
    27   11   28 1   
    28   12   29 1   
    29   13   14 1   
    30   13   15 1   
@<TRIPOS>SUBSTRUCTURE
     1 MTJ         1 TEMP              0 ****  ****    0 ROOT
