@<TRIPOS>MOLECULE
MTK
   76    80     1     0     0
SMALL
bcc


@<TRIPOS>ATOM
      1 CAQ        -6.3090   -0.2850   -2.2380 ca        1 MTK     -0.238300
      2 CAS        -7.5790   -0.4540   -1.7570 ca        1 MTK     -0.084000
      3 CBK        -7.8800   -0.0720   -0.4190 ca        1 MTK     -0.158300
      4 CAR        -9.1750   -0.2210    0.1380 ca        1 MTK     -0.101000
      5 CAO        -9.4290    0.1590    1.4310 ca        1 MTK     -0.131000
      6 CBE        -8.3830    0.7060    2.2190 ca        1 MTK      0.021400
      7 CLAF       -8.7330    1.1670    3.8200 cl        1 MTK     -0.096400
      8 CAU        -7.1120    0.8670    1.7200 ca        1 MTK     -0.160300
      9 CBL        -6.8240    0.4770    0.3700 ca        1 MTK      0.414600
     10 NBB        -5.5460    0.6450   -0.1190 nb        1 MTK     -0.665000
     11 CBG        -5.2950    0.2770   -1.3770 ca        1 MTK      0.496100
     12 CAH        -3.9590    0.4310   -1.9580 ce        1 MTK     -0.278800
     13 CAG        -2.8570    0.7700   -1.2670 cf        1 MTK     -0.028200
     14 CBF        -1.5370    0.9140   -1.8600 ca        1 MTK     -0.085800
     15 CAT        -0.4060    0.7850   -1.0370 ca        1 MTK     -0.103000
     16 CAL        -1.3620    1.1880   -3.2230 ca        1 MTK     -0.119000
     17 CAK        -0.0800    1.3250   -3.7510 ca        1 MTK     -0.138000
     18 CAN         1.0380    1.1840   -2.9330 ca        1 MTK     -0.099000
     19 CBI         0.8820    0.9090   -1.5670 ca        1 MTK     -0.051300
     20 CBM         2.0710    0.7660   -0.6820 c3        1 MTK      0.066700
     21 SBC         2.9300    2.3430   -0.7540 ss        1 MTK     -0.350200
     22 CAZ         3.3410    2.7280    0.9380 c3        1 MTK      0.050700
     23 CBO         4.7600    2.4890    1.3530 cx        1 MTK     -0.093000
     24 CAX         5.7790    3.5670    1.0570 cx        1 MTK     -0.121900
     25 CAY         5.2720    3.3950    2.4550 cx        1 MTK     -0.121900
     26 CBA         5.1880    1.0570    1.2850 c3        1 MTK     -0.174400
     27 CBD         6.3020    0.6060    2.2490 c         1 MTK      0.914600
     28 OAC         7.3500    1.2990    2.3710 o         1 MTK     -0.848800
     29 OAD         6.1180   -0.4970    2.8450 o         1 MTK     -0.848800
     30 CAW         2.9910   -0.3610   -1.1080 c3        1 MTK     -0.078400
     31 CAV         2.3330   -1.7270   -0.9810 c3        1 MTK     -0.040100
     32 CBH         3.3550   -2.8120   -1.0620 ca        1 MTK     -0.063300
     33 CAM         3.9010   -3.0480   -2.3350 ca        1 MTK     -0.137000
     34 CAI         4.8710   -4.0220   -2.5380 ca        1 MTK     -0.137000
     35 CAJ         5.3090   -4.7840   -1.4570 ca        1 MTK     -0.139000
     36 CAP         4.7710   -4.5630   -0.1940 ca        1 MTK     -0.114000
     37 CBJ         3.7930   -3.5800    0.0310 ca        1 MTK     -0.075300
     38 CBN         3.2460   -3.4350    1.4390 c3        1 MTK      0.203100
     39 CAA         3.4680   -2.0400    2.0130 c3        1 MTK     -0.119100
     40 CAB         1.7690   -3.8420    1.4810 c3        1 MTK     -0.119100
     41 OAE         3.8930   -4.3750    2.3120 oh        1 MTK     -0.622800
     42 HAQ        -6.0380   -0.5700   -3.2640 ha        1 MTK      0.144000
     43 HAS        -8.3770   -0.8820   -2.3830 ha        1 MTK      0.135000
     44 HAR        -9.9730   -0.6470   -0.4880 ha        1 MTK      0.135000
     45 HAO       -10.4330    0.0450    1.8680 ha        1 MTK      0.145000
     46 HAU        -6.3040    1.2910    2.3380 ha        1 MTK      0.167000
     47 HAH        -3.9120    0.2300   -3.0410 ha        1 MTK      0.129000
     48 HAG        -2.9010    0.9480   -0.1760 ha        1 MTK      0.148000
     49 HAT        -0.5380    0.5780    0.0360 ha        1 MTK      0.137000
     50 HAL        -2.2380    1.3100   -3.8770 ha        1 MTK      0.125000
     51 HAK         0.0500    1.5480   -4.8200 ha        1 MTK      0.128000
     52 HAN         2.0500    1.3020   -3.3510 ha        1 MTK      0.148000
     53 HBM         1.7480    0.5820    0.3780 h1        1 MTK      0.076700
     54 HAZ1        3.0980    3.8180    1.0200 h1        1 MTK      0.058200
     55 HAZ2        2.6590    2.1630    1.6210 h1        1 MTK      0.058200
     56 HAX1        6.8130    3.2320    0.8440 hc        1 MTK      0.072950
     57 HAX2        5.4740    4.4490    0.4710 hc        1 MTK      0.072950
     58 HAY1        4.5900    4.1510    2.8800 hc        1 MTK      0.072950
     59 HAY2        5.9560    2.9530    3.2070 hc        1 MTK      0.072950
     60 HBA1        4.2960    0.4030    1.4800 hc        1 MTK      0.030700
     61 HBA2        5.5610    0.8460    0.2480 hc        1 MTK      0.030700
     62 HAW1        3.3210   -0.2050   -2.1680 hc        1 MTK      0.072200
     63 HAW2        3.9130   -0.3330   -0.4640 hc        1 MTK      0.072200
     64 HAV1        1.7510   -1.7880   -0.0250 hc        1 MTK      0.045700
     65 HAV2        1.5890   -1.8590   -1.8140 hc        1 MTK      0.045700
     66 HAM         3.5550   -2.4380   -3.1830 ha        1 MTK      0.122000
     67 HAI         5.2910   -4.1850   -3.5400 ha        1 MTK      0.119000
     68 HAJ         6.0810   -5.5530   -1.5980 ha        1 MTK      0.121000
     69 HAP         5.1220   -5.1800    0.6500 ha        1 MTK      0.144000
     70 HAA1        2.8750   -1.2710    1.4700 hc        1 MTK      0.054200
     71 HAA2        3.1550   -2.0350    3.0860 hc        1 MTK      0.054200
     72 HAA3        4.5540   -1.7450    1.9750 hc        1 MTK      0.054200
     73 HAB1        1.6790   -4.8880    1.8620 hc        1 MTK      0.054200
     74 HAB2        1.2050   -3.1650    2.1650 hc        1 MTK      0.054200
     75 HAB3        1.3130   -3.7960    0.4650 hc        1 MTK      0.054200
     76 HOAE        4.7340   -3.9820    2.5800 ho        1 MTK      0.419000
@<TRIPOS>BOND
     1    1    2 ar  
     2    1   11 ar  
     3    1   42 1   
     4    2    3 ar  
     5    2   43 1   
     6    3    4 ar  
     7    3    9 ar  
     8    4    5 ar  
     9    4   44 1   
    10    5    6 ar  
    11    5   45 1   
    12    6    7 1   
    13    6    8 ar  
    14    8    9 ar  
    15    8   46 1   
    16    9   10 ar  
    17   10   11 ar  
    18   11   12 1   
    19   12   13 2   
    20   12   47 1   
    21   13   14 1   
    22   13   48 1   
    23   14   15 ar  
    24   14   16 ar  
    25   15   19 ar  
    26   15   49 1   
    27   16   17 ar  
    28   16   50 1   
    29   17   18 ar  
    30   17   51 1   
    31   18   19 ar  
    32   18   52 1   
    33   19   20 1   
    34   20   21 1   
    35   20   30 1   
    36   20   53 1   
    37   21   22 1   
    38   22   23 1   
    39   22   54 1   
    40   22   55 1   
    41   23   24 1   
    42   23   25 1   
    43   23   26 1   
    44   24   25 1   
    45   24   56 1   
    46   24   57 1   
    47   25   58 1   
    48   25   59 1   
    49   26   27 1   
    50   26   60 1   
    51   26   61 1   
    52   27   28 1   
    53   27   29 1   
    54   30   31 1   
    55   30   62 1   
    56   30   63 1   
    57   31   32 1   
    58   31   64 1   
    59   31   65 1   
    60   32   33 ar  
    61   32   37 ar  
    62   33   34 ar  
    63   33   66 1   
    64   34   35 ar  
    65   34   67 1   
    66   35   36 ar  
    67   35   68 1   
    68   36   37 ar  
    69   36   69 1   
    70   37   38 1   
    71   38   39 1   
    72   38   40 1   
    73   38   41 1   
    74   39   70 1   
    75   39   71 1   
    76   39   72 1   
    77   40   73 1   
    78   40   74 1   
    79   40   75 1   
    80   41   76 1   
@<TRIPOS>SUBSTRUCTURE
     1 MTK         1 TEMP              0 ****  ****    0 ROOT
