@<TRIPOS>MOLECULE
MTK
   76    80     1     0     0
SMALL
bcc


@<TRIPOS>ATOM
      1 CAQ         0.2190    0.9610    1.1280 ca        1 MTK     -0.238300
      2 CAS         1.5700    0.9150    1.3390 ca        1 MTK     -0.089000
      3 CBK         2.1010    0.0040    2.2960 ca        1 MTK     -0.161300
      4 CAR         3.4900   -0.0940    2.5590 ca        1 MTK     -0.102000
      5 CAO         3.9660   -0.9830    3.4890 ca        1 MTK     -0.135000
      6 CBE         3.0560   -1.8120    4.1940 ca        1 MTK      0.019400
      7 ClAF        3.6820   -2.9050    5.3420 cl        1 MTK     -0.102400
      8 CAU         1.7000   -1.7490    3.9730 ca        1 MTK     -0.156300
      9 CBL         1.1810   -0.8280    3.0040 ca        1 MTK      0.416600
     10 NBB        -0.1800   -0.7790    2.7870 nb        1 MTK     -0.660000
     11 CBG        -0.6470    0.0860    1.8840 ca        1 MTK      0.504100
     12 CAH        -2.0790    0.1850    1.6030 ce        1 MTK     -0.299800
     13 CAG        -3.0530   -0.2500    2.4210 cf        1 MTK     -0.009200
     14 CBF        -4.4720   -0.1390    2.1220 ca        1 MTK     -0.096800
     15 CAT        -5.3920   -0.1520    3.1810 ca        1 MTK     -0.090000
     16 CAL        -4.9420   -0.0300    0.8040 ca        1 MTK     -0.122000
     17 CAK        -6.3080    0.0650    0.5550 ca        1 MTK     -0.152000
     18 CAN        -7.2200    0.0610    1.6090 ca        1 MTK     -0.107000
     19 CBI        -6.7680   -0.0420    2.9300 ca        1 MTK     -0.055300
     20 CBM        -7.6980   -0.0580    4.0890 c3        1 MTK      0.031700
     21 SBC        -8.5490   -1.6370    4.1770 ss        1 MTK     -0.372200
     22 CAZ        -7.5080   -2.5550    5.2980 c3        1 MTK      0.036700
     23 CBO        -7.8990   -2.4920    6.7380 cx        1 MTK     -0.051000
     24 CAX        -8.9390   -3.4780    7.2330 cx        1 MTK     -0.140400
     25 CAY        -7.4990   -3.6720    7.5970 cx        1 MTK     -0.140400
     26 CBA        -7.8890   -1.1320    7.3630 c3        1 MTK     -0.177400
     27 CBD        -6.5530   -0.3730    7.3740 c         1 MTK      0.910600
     28 OAC        -6.4240    0.5270    8.2560 o         1 MTK     -0.852800
     29 OAD        -5.6690   -0.5990    6.4930 o         1 MTK     -0.852800
     30 CAW        -8.7170    1.0640    4.0950 c3        1 MTK     -0.052400
     31 CAV        -8.1100    2.3110    4.7210 c3        1 MTK     -0.060100
     32 CBH        -9.0890    3.4250    4.8750 ca        1 MTK     -0.056300
     33 CAM        -9.6850    3.9230    3.7060 ca        1 MTK     -0.142000
     34 CAI       -10.5890    4.9790    3.7470 ca        1 MTK     -0.142000
     35 CAJ       -10.9090    5.5600    4.9720 ca        1 MTK     -0.152000
     36 CAP       -10.3210    5.0810    6.1390 ca        1 MTK     -0.111000
     37 CBJ        -9.4090    4.0160    6.1130 ca        1 MTK     -0.056300
     38 CBN        -8.8080    3.5340    7.4170 c3        1 MTK      0.204100
     39 CAA        -9.2640    2.1030    7.7180 c3        1 MTK     -0.144100
     40 CAB        -7.2810    3.6700    7.4150 c3        1 MTK     -0.144100
     41 OAE        -9.3220    4.3870    8.4600 oh        1 MTK     -0.627800
     42 HAQ        -0.2290    1.6530    0.4030 ha        1 MTK      0.143000
     43 HAS         2.2600    1.5690    0.7860 ha        1 MTK      0.131000
     44 HAR         4.1800    0.5590    2.0040 ha        1 MTK      0.131000
     45 HAO         5.0430   -1.0620    3.6970 ha        1 MTK      0.142000
     46 HAU         0.9980   -2.3900    4.5310 ha        1 MTK      0.171000
     47 HAH        -2.3160    0.6780    0.6450 ha        1 MTK      0.125000
     48 HAG        -2.8160   -0.7090    3.4010 ha        1 MTK      0.161000
     49 HAT        -5.0420   -0.2500    4.2300 ha        1 MTK      0.197000
     50 HAL        -4.2330   -0.0340   -0.0350 ha        1 MTK      0.119000
     51 HAK        -6.6710    0.1400   -0.4800 ha        1 MTK      0.118000
     52 HAN        -8.2980    0.1220    1.4010 ha        1 MTK      0.131000
     53 HBM        -7.0800    0.0170    5.0400 h1        1 MTK      0.153700
     54 HAZ1       -6.4520   -2.1790    5.2100 h1        1 MTK      0.087700
     55 HAZ2       -7.5570   -3.6080    4.9240 h1        1 MTK      0.087700
     56 HAX1       -9.4070   -4.1670    6.5090 hc        1 MTK      0.059950
     57 HAX2       -9.6500   -3.1490    8.0100 hc        1 MTK      0.059950
     58 HAY1       -7.1720   -3.4770    8.6340 hc        1 MTK      0.059950
     59 HAY2       -6.9350   -4.5000    7.1350 hc        1 MTK      0.059950
     60 HBA1       -8.2400   -1.2080    8.4260 hc        1 MTK      0.041200
     61 HBA2       -8.6230   -0.4810    6.8130 hc        1 MTK      0.041200
     62 HAW1       -9.0750    1.2870    3.0570 hc        1 MTK      0.047200
     63 HAW2       -9.6090    0.7420    4.6970 hc        1 MTK      0.047200
     64 HAV1       -7.6650    2.0200    5.7130 hc        1 MTK      0.072200
     65 HAV2       -7.2610    2.6700    4.0770 hc        1 MTK      0.072200
     66 HAM        -9.4240    3.4670    2.7390 ha        1 MTK      0.125000
     67 HAI       -11.0460    5.3510    2.8190 ha        1 MTK      0.116000
     68 HAJ       -11.6210    6.3950    5.0190 ha        1 MTK      0.116000
     69 HAP       -10.5790    5.5500    7.1030 ha        1 MTK      0.148000
     70 HAA1      -10.1460    2.1270    8.4040 hc        1 MTK      0.060867
     71 HAA2       -8.4390    1.5110    8.1980 hc        1 MTK      0.060867
     72 HAA3       -9.5680    1.5770    6.7820 hc        1 MTK      0.060867
     73 HAB1       -6.7890    2.6960    7.6830 hc        1 MTK      0.060867
     74 HAB2       -6.9100    3.9940    6.4140 hc        1 MTK      0.060867
     75 HAB3       -6.9700    4.4410    8.1610 hc        1 MTK      0.060867
     76 HOAE       -8.9620    4.0360    9.2830 ho        1 MTK      0.404000
@<TRIPOS>BOND
     1    1    2 ar  
     2    1   11 ar  
     3    1   42 1   
     4    2    3 ar  
     5    2   43 1   
     6    3    4 ar  
     7    3    9 ar  
     8    4    5 ar  
     9    4   44 1   
    10    5    6 ar  
    11    5   45 1   
    12    6    7 1   
    13    6    8 ar  
    14    8    9 ar  
    15    8   46 1   
    16    9   10 ar  
    17   10   11 ar  
    18   11   12 1   
    19   12   13 2   
    20   12   47 1   
    21   13   14 1   
    22   13   48 1   
    23   14   15 ar  
    24   14   16 ar  
    25   15   19 ar  
    26   15   49 1   
    27   16   17 ar  
    28   16   50 1   
    29   17   18 ar  
    30   17   51 1   
    31   18   19 ar  
    32   18   52 1   
    33   19   20 1   
    34   20   21 1   
    35   20   30 1   
    36   20   53 1   
    37   21   22 1   
    38   22   23 1   
    39   22   54 1   
    40   22   55 1   
    41   23   24 1   
    42   23   25 1   
    43   23   26 1   
    44   24   25 1   
    45   24   56 1   
    46   24   57 1   
    47   25   58 1   
    48   25   59 1   
    49   26   27 1   
    50   26   60 1   
    51   26   61 1   
    52   27   28 1   
    53   27   29 1   
    54   30   31 1   
    55   30   62 1   
    56   30   63 1   
    57   31   32 1   
    58   31   64 1   
    59   31   65 1   
    60   32   33 ar  
    61   32   37 ar  
    62   33   34 ar  
    63   33   66 1   
    64   34   35 ar  
    65   34   67 1   
    66   35   36 ar  
    67   35   68 1   
    68   36   37 ar  
    69   36   69 1   
    70   37   38 1   
    71   38   39 1   
    72   38   40 1   
    73   38   41 1   
    74   39   70 1   
    75   39   71 1   
    76   39   72 1   
    77   40   73 1   
    78   40   74 1   
    79   40   75 1   
    80   41   76 1   
@<TRIPOS>SUBSTRUCTURE
     1 MTK         1 TEMP              0 ****  ****    0 ROOT
