@<TRIPOS>MOLECULE
MTK
   76    80     1     0     0
SMALL
bcc


@<TRIPOS>ATOM
      1 CAQ        -1.9760   -1.4930    1.9590 ca        1 MTK     -0.217300
      2 CAS        -1.7560   -1.8530    0.6570 ca        1 MTK     -0.092000
      3 CBK        -0.4700   -1.6450    0.0800 ca        1 MTK     -0.154300
      4 CAR        -0.1770   -1.9940   -1.2620 ca        1 MTK     -0.098000
      5 CAO         1.0720   -1.7770   -1.7870 ca        1 MTK     -0.137000
      6 CBE         2.0790   -1.1970   -0.9760 ca        1 MTK      0.017400
      7 CLAF        3.6200   -0.9390   -1.6580 cl        1 MTK     -0.110400
      8 CAU         1.8400   -0.8430    0.3320 ca        1 MTK     -0.161300
      9 CBL         0.5430   -1.0620    0.9010 ca        1 MTK      0.406600
     10 NBB         0.3160   -0.7060    2.2150 nb        1 MTK     -0.671000
     11 CBG        -0.8990   -0.9130    2.7230 ca        1 MTK      0.498100
     12 CAH        -1.1550   -0.5980    4.1360 ce        1 MTK     -0.273800
     13 CAG        -2.2250    0.0430    4.6250 cf        1 MTK     -0.046200
     14 CBF        -3.3270    0.6390    3.8870 ca        1 MTK     -0.102800
     15 CAT        -4.6250    0.5240    4.4030 ca        1 MTK     -0.098000
     16 CAL        -3.1140    1.3650    2.7060 ca        1 MTK     -0.122000
     17 CAK        -4.1890    1.9580    2.0480 ca        1 MTK     -0.153000
     18 CAN        -5.4810    1.8300    2.5540 ca        1 MTK     -0.108000
     19 CBI        -5.7080    1.1090    3.7320 ca        1 MTK     -0.061300
     20 CBM        -7.0690    0.9520    4.3080 c3        1 MTK      0.037700
     21 SBC        -8.1940    0.1890    3.1420 ss        1 MTK     -0.379200
     22 CAZ        -8.1240   -1.5480    3.5300 c3        1 MTK      0.053700
     23 CBO        -8.5030   -1.9600    4.9200 cx        1 MTK     -0.099000
     24 CAX        -9.7470   -1.3580    5.5340 cx        1 MTK     -0.129900
     25 CAY        -9.7810   -2.7730    5.0580 cx        1 MTK     -0.129900
     26 CBA        -7.3540   -2.3310    5.8180 c3        1 MTK     -0.166400
     27 CBD        -7.1670   -1.3960    7.0220 c         1 MTK      0.907600
     28 OAC        -6.2200   -0.5480    6.9800 o         1 MTK     -0.852800
     29 OAD        -7.9340   -1.5020    8.0210 o         1 MTK     -0.852800
     30 CAW        -7.6710    2.2640    4.7730 c3        1 MTK     -0.046400
     31 CAV        -7.0680    2.6660    6.1110 c3        1 MTK     -0.068100
     32 CBH        -7.8310    3.7640    6.7700 ca        1 MTK     -0.052300
     33 CAM        -7.8190    5.0120    6.1240 ca        1 MTK     -0.144000
     34 CAI        -8.4770    6.1140    6.6570 ca        1 MTK     -0.144000
     35 CAJ        -9.1620    5.9810    7.8640 ca        1 MTK     -0.155000
     36 CAP        -9.1820    4.7530    8.5160 ca        1 MTK     -0.113000
     37 CBJ        -8.5240    3.6300    7.9880 ca        1 MTK     -0.051300
     38 CBN        -8.6020    2.3230    8.7490 c3        1 MTK      0.204100
     39 CAA        -9.4110    1.2910    7.9630 c3        1 MTK     -0.139100
     40 CAB        -7.2180    1.7820    9.1200 c3        1 MTK     -0.139100
     41 OAE        -9.3150    2.5920    9.9750 oh        1 MTK     -0.631800
     42 HAQ        -2.9560   -1.6180    2.4450 ha        1 MTK      0.168000
     43 HAS        -2.5520   -2.2990    0.0430 ha        1 MTK      0.139000
     44 HAR        -0.9740   -2.4420   -1.8760 ha        1 MTK      0.136000
     45 HAO         1.3020   -2.0460   -2.8290 ha        1 MTK      0.142000
     46 HAU         2.6280   -0.3910    0.9550 ha        1 MTK      0.161000
     47 HAH        -0.3720   -0.9540    4.8300 ha        1 MTK      0.140000
     48 HAG        -2.3200    0.1440    5.7250 ha        1 MTK      0.145000
     49 HAT        -4.8140   -0.0260    5.3500 ha        1 MTK      0.204000
     50 HAL        -2.0950    1.4660    2.3060 ha        1 MTK      0.127000
     51 HAK        -4.0160    2.5300    1.1250 ha        1 MTK      0.120000
     52 HAN        -6.3310    2.2880    2.0250 ha        1 MTK      0.134000
     53 HBM        -7.0100    0.2540    5.2020 h1        1 MTK      0.156700
     54 HAZ1       -8.8390   -1.9840    2.7850 h1        1 MTK      0.058700
     55 HAZ2       -7.1000   -1.9250    3.2860 h1        1 MTK      0.058700
     56 HAX1      -10.2890   -0.5820    4.9630 hc        1 MTK      0.073700
     57 HAX2       -9.7280   -1.1540    6.6250 hc        1 MTK      0.073700
     58 HAY1      -10.3550   -3.0240    4.1490 hc        1 MTK      0.073700
     59 HAY2       -9.8030   -3.5880    5.8030 hc        1 MTK      0.073700
     60 HBA1       -6.3950   -2.3400    5.2380 hc        1 MTK      0.035200
     61 HBA2       -7.5200   -3.3650    6.2170 hc        1 MTK      0.035200
     62 HAW1       -8.7810    2.1370    4.8830 hc        1 MTK      0.044700
     63 HAW2       -7.4960    3.0690    4.0130 hc        1 MTK      0.044700
     64 HAV1       -7.0000    1.7500    6.7640 hc        1 MTK      0.081700
     65 HAV2       -6.0120    3.0140    5.9450 hc        1 MTK      0.081700
     66 HAM        -7.2730    5.1100    5.1730 ha        1 MTK      0.123000
     67 HAI        -8.4540    7.0790    6.1340 ha        1 MTK      0.114000
     68 HAJ        -9.6860    6.8430    8.3000 ha        1 MTK      0.115000
     69 HAP        -9.7270    4.6620    9.4690 ha        1 MTK      0.148000
     70 HAA1       -9.0660    1.2380    6.9040 hc        1 MTK      0.060700
     71 HAA2       -9.2720    0.2740    8.4140 hc        1 MTK      0.060700
     72 HAA3      -10.4920    1.5660    7.9810 hc        1 MTK      0.060700
     73 HAB1       -7.0350    0.7830    8.6300 hc        1 MTK      0.060700
     74 HAB2       -7.1480    1.6480   10.2260 hc        1 MTK      0.060700
     75 HAB3       -6.4160    2.4900    8.8070 hc        1 MTK      0.060700
     76 HOAE       -9.4310    1.7340   10.4000 ho        1 MTK      0.403000
@<TRIPOS>BOND
     1    1    2 ar  
     2    1   11 ar  
     3    1   42 1   
     4    2    3 ar  
     5    2   43 1   
     6    3    4 ar  
     7    3    9 ar  
     8    4    5 ar  
     9    4   44 1   
    10    5    6 ar  
    11    5   45 1   
    12    6    7 1   
    13    6    8 ar  
    14    8    9 ar  
    15    8   46 1   
    16    9   10 ar  
    17   10   11 ar  
    18   11   12 1   
    19   12   13 2   
    20   12   47 1   
    21   13   14 1   
    22   13   48 1   
    23   14   15 ar  
    24   14   16 ar  
    25   15   19 ar  
    26   15   49 1   
    27   16   17 ar  
    28   16   50 1   
    29   17   18 ar  
    30   17   51 1   
    31   18   19 ar  
    32   18   52 1   
    33   19   20 1   
    34   20   21 1   
    35   20   30 1   
    36   20   53 1   
    37   21   22 1   
    38   22   23 1   
    39   22   54 1   
    40   22   55 1   
    41   23   24 1   
    42   23   25 1   
    43   23   26 1   
    44   24   25 1   
    45   24   56 1   
    46   24   57 1   
    47   25   58 1   
    48   25   59 1   
    49   26   27 1   
    50   26   60 1   
    51   26   61 1   
    52   27   28 1   
    53   27   29 1   
    54   30   31 1   
    55   30   62 1   
    56   30   63 1   
    57   31   32 1   
    58   31   64 1   
    59   31   65 1   
    60   32   33 ar  
    61   32   37 ar  
    62   33   34 ar  
    63   33   66 1   
    64   34   35 ar  
    65   34   67 1   
    66   35   36 ar  
    67   35   68 1   
    68   36   37 ar  
    69   36   69 1   
    70   37   38 1   
    71   38   39 1   
    72   38   40 1   
    73   38   41 1   
    74   39   70 1   
    75   39   71 1   
    76   39   72 1   
    77   40   73 1   
    78   40   74 1   
    79   40   75 1   
    80   41   76 1   
@<TRIPOS>SUBSTRUCTURE
     1 MTK         1 TEMP              0 ****  ****    0 ROOT
