@<TRIPOS>MOLECULE
MTL
   26    25     1     0     0
SMALL
bcc


@<TRIPOS>ATOM
      1 O1         -0.0390   -0.0640    0.1370 oh        1 MTL     -0.616800
      2 C1          1.3660   -0.2570    0.0730 c3        1 MTL      0.095400
      3 C2          1.9250    0.2320    1.4110 c3        1 MTL      0.138100
      4 O2          1.3870   -0.5110    2.4970 oh        1 MTL     -0.621800
      5 C3          3.4530    0.0460    1.4420 c3        1 MTL      0.128100
      6 O3          3.9730    1.1060    0.6550 oh        1 MTL     -0.603800
      7 C4          3.9960    0.0450    2.8820 c3        1 MTL      0.128100
      8 O4          3.4770    1.1040    3.6710 oh        1 MTL     -0.603800
      9 C5          5.5240    0.2300    2.9140 c3        1 MTL      0.138100
     10 O5          6.0620   -0.5100    1.8270 oh        1 MTL     -0.621800
     11 C6          6.0840   -0.2600    4.2510 c3        1 MTL      0.095400
     12 O6          7.4890   -0.0680    4.1870 oh        1 MTL     -0.616800
     13 HO1        -0.3910   -0.2890   -0.7320 ho        1 MTL      0.411000
     14 H11         1.5910   -1.3460   -0.0760 h1        1 MTL      0.044700
     15 H12         1.8160    0.3440   -0.7600 h1        1 MTL      0.044700
     16 H2          1.6730    1.3220    1.5470 h1        1 MTL      0.071700
     17 HO2         0.4300   -0.5360    2.3650 ho        1 MTL      0.429000
     18 H3          3.7340   -0.9410    0.9770 h1        1 MTL      0.056700
     19 HO3         4.9260    0.9570    0.5860 ho        1 MTL      0.423000
     20 H4          3.7150   -0.9430    3.3460 h1        1 MTL      0.056700
     21 HO4         2.5230    0.9550    3.7390 ho        1 MTL      0.423000
     22 H5          5.7760    1.3210    2.7790 h1        1 MTL      0.071700
     23 HO5         7.0190   -0.5360    1.9590 ho        1 MTL      0.429000
     24 H61         5.6340    0.3390    5.0850 h1        1 MTL      0.044700
     25 H62         5.8580   -1.3500    4.3980 h1        1 MTL      0.044700
     26 HO6         7.8410   -0.2940    5.0550 ho        1 MTL      0.411000
@<TRIPOS>BOND
     1    1    2 1   
     2    1   13 1   
     3    2    3 1   
     4    2   14 1   
     5    2   15 1   
     6    3    4 1   
     7    3    5 1   
     8    3   16 1   
     9    4   17 1   
    10    5    6 1   
    11    5    7 1   
    12    5   18 1   
    13    6   19 1   
    14    7    8 1   
    15    7    9 1   
    16    7   20 1   
    17    8   21 1   
    18    9   10 1   
    19    9   11 1   
    20    9   22 1   
    21   10   23 1   
    22   11   12 1   
    23   11   24 1   
    24   11   25 1   
    25   12   26 1   
@<TRIPOS>SUBSTRUCTURE
     1 MTL         1 TEMP              0 ****  ****    0 ROOT
