@<TRIPOS>MOLECULE
MTL
   26    25     1     0     0
SMALL
bcc


@<TRIPOS>ATOM
      1 O1         -0.1270    0.3300    4.1120 oh        1 MTL     -0.595800
      2 C1          0.7210    0.2700    2.9780 c3        1 MTL      0.099400
      3 C2         -0.1900    0.2520    1.7450 c3        1 MTL      0.112100
      4 O2         -0.4560    1.5570    1.2670 oh        1 MTL     -0.595800
      5 C3          0.4450   -0.6000    0.6300 c3        1 MTL      0.076100
      6 O3          0.6780   -1.9260    1.0610 oh        1 MTL     -0.592800
      7 C4         -0.4450   -0.6000   -0.6300 c3        1 MTL      0.076100
      8 O4         -0.6770   -1.9270   -1.0600 oh        1 MTL     -0.592800
      9 C5          0.1900    0.2510   -1.7450 c3        1 MTL      0.112100
     10 O5          0.4550    1.5560   -1.2680 oh        1 MTL     -0.595800
     11 C6         -0.7210    0.2670   -2.9780 c3        1 MTL      0.099400
     12 O6          0.1270    0.3270   -4.1120 oh        1 MTL     -0.595800
     13 HO1         0.4480    0.3630    4.8850 ho        1 MTL      0.403000
     14 H11         1.3980    1.1640    2.9510 h1        1 MTL      0.039200
     15 H12         1.3390   -0.6690    3.0110 h1        1 MTL      0.039200
     16 H2         -1.2030   -0.1540    2.0300 h1        1 MTL      0.099700
     17 HO2         0.3940    1.9610    1.0400 ho        1 MTL      0.411000
     18 H3          1.4700   -0.1980    0.3860 h1        1 MTL      0.089700
     19 HO3        -0.1850   -2.3390    1.2090 ho        1 MTL      0.416000
     20 H4         -1.4690   -0.1990   -0.3860 h1        1 MTL      0.089700
     21 HO4         0.1860   -2.3400   -1.2070 ho        1 MTL      0.416000
     22 H5          1.2030   -0.1550   -2.0290 h1        1 MTL      0.099700
     23 HO5        -0.3950    1.9600   -1.0410 ho        1 MTL      0.411000
     24 H61        -1.3380   -0.6720   -3.0110 h1        1 MTL      0.039200
     25 H62        -1.3990    1.1610   -2.9520 h1        1 MTL      0.039200
     26 HO6        -0.4490    0.3590   -4.8850 ho        1 MTL      0.403000
@<TRIPOS>BOND
     1    1    2 1   
     2    1   13 1   
     3    2    3 1   
     4    2   14 1   
     5    2   15 1   
     6    3    4 1   
     7    3    5 1   
     8    3   16 1   
     9    4   17 1   
    10    5    6 1   
    11    5    7 1   
    12    5   18 1   
    13    6   19 1   
    14    7    8 1   
    15    7    9 1   
    16    7   20 1   
    17    8   21 1   
    18    9   10 1   
    19    9   11 1   
    20    9   22 1   
    21   10   23 1   
    22   11   12 1   
    23   11   24 1   
    24   11   25 1   
    25   12   26 1   
@<TRIPOS>SUBSTRUCTURE
     1 MTL         1 TEMP              0 ****  ****    0 ROOT
