@<TRIPOS>MOLECULE
MTL
   26    25     1     0     0
SMALL
bcc


@<TRIPOS>ATOM
      1 O1         -0.0390   -0.0530    0.1360 oh        1 MTL     -0.616800
      2 C1          1.3650   -0.2520    0.0730 c3        1 MTL      0.095400
      3 C2          1.9270    0.2370    1.4100 c3        1 MTL      0.138100
      4 O2          1.3850   -0.5010    2.4970 oh        1 MTL     -0.621800
      5 C3          3.4540    0.0450    1.4420 c3        1 MTL      0.128100
      6 O3          3.9780    1.1000    0.6520 oh        1 MTL     -0.603800
      7 C4          3.9960    0.0450    2.8820 c3        1 MTL      0.128100
      8 O4          3.4810    1.1080    3.6680 oh        1 MTL     -0.603800
      9 C5          5.5250    0.2250    2.9130 c3        1 MTL      0.138100
     10 O5          6.0600   -0.5210    1.8290 oh        1 MTL     -0.621800
     11 C6          6.0820   -0.2640    4.2520 c3        1 MTL      0.095400
     12 O6          7.4880   -0.0770    4.1880 oh        1 MTL     -0.616800
     13 HO1        -0.3920   -0.2780   -0.7320 ho        1 MTL      0.411000
     14 H11         1.5850   -1.3430   -0.0730 h1        1 MTL      0.044700
     15 H12         1.8180    0.3450   -0.7620 h1        1 MTL      0.044700
     16 H2          1.6790    1.3280    1.5440 h1        1 MTL      0.071700
     17 HO2         0.4280   -0.5220    2.3650 ho        1 MTL      0.429000
     18 H3          3.7310   -0.9450    0.9790 h1        1 MTL      0.056700
     19 HO3         4.9300    0.9470    0.5840 ho        1 MTL      0.423000
     20 H4          3.7110   -0.9410    3.3480 h1        1 MTL      0.056700
     21 HO4         2.5270    0.9630    3.7370 ho        1 MTL      0.423000
     22 H5          5.7810    1.3130    2.7750 h1        1 MTL      0.071700
     23 HO5         7.0170   -0.5500    1.9610 ho        1 MTL      0.429000
     24 H61         5.6340    0.3390    5.0840 h1        1 MTL      0.044700
     25 H62         5.8530   -1.3530    4.4020 h1        1 MTL      0.044700
     26 HO6         7.8390   -0.3020    5.0570 ho        1 MTL      0.411000
@<TRIPOS>BOND
     1    1    2 1   
     2    1   13 1   
     3    2    3 1   
     4    2   14 1   
     5    2   15 1   
     6    3    4 1   
     7    3    5 1   
     8    3   16 1   
     9    4   17 1   
    10    5    6 1   
    11    5    7 1   
    12    5   18 1   
    13    6   19 1   
    14    7    8 1   
    15    7    9 1   
    16    7   20 1   
    17    8   21 1   
    18    9   10 1   
    19    9   11 1   
    20    9   22 1   
    21   10   23 1   
    22   11   12 1   
    23   11   24 1   
    24   11   25 1   
    25   12   26 1   
@<TRIPOS>SUBSTRUCTURE
     1 MTL         1 TEMP              0 ****  ****    0 ROOT
