@<TRIPOS>MOLECULE
MTL
   26    25     1     0     0
SMALL
bcc


@<TRIPOS>ATOM
      1 O1         -3.6290    0.1790   -2.1750 oh        1 MTL     -0.616800
      2 C1         -2.2180    0.1790   -2.1750 c3        1 MTL      0.095900
      3 C2         -1.7140    0.1790   -0.7490 c3        1 MTL      0.127100
      4 O2         -2.2680   -0.9140   -0.0560 oh        1 MTL     -0.622800
      5 C3         -0.2070    0.0650   -0.7480 c3        1 MTL      0.120100
      6 O3          0.3380    1.0410   -1.6040 oh        1 MTL     -0.601300
      7 C4          0.3130    0.2800    0.6560 c3        1 MTL      0.120100
      8 O4          0.4900    1.6580    0.8850 oh        1 MTL     -0.601300
      9 C5          1.6370   -0.4310    0.8160 c3        1 MTL      0.127100
     10 O5          1.4290   -1.8230    0.7850 oh        1 MTL     -0.622800
     11 C6          2.2590   -0.0450    2.1390 c3        1 MTL      0.095900
     12 O6          3.4420   -0.7870    2.3370 oh        1 MTL     -0.616800
     13 HO1        -3.9250    0.2620   -3.0070 ho        1 MTL      0.410500
     14 H11        -1.8930    0.9760   -2.6350 h1        1 MTL      0.042700
     15 H12        -1.8930   -0.6180   -2.6350 h1        1 MTL      0.042700
     16 H2         -1.9780    1.0100   -0.3110 h1        1 MTL      0.069200
     17 HO2        -3.0170   -0.6600    0.3470 ho        1 MTL      0.429000
     18 H3          0.0530   -0.8230   -1.0590 h1        1 MTL      0.079200
     19 HO3         0.8580    0.6480   -2.2070 ho        1 MTL      0.424000
     20 H4         -0.3290   -0.0780    1.2990 h1        1 MTL      0.079200
     21 HO4        -0.0680    1.9260    1.5220 ho        1 MTL      0.424000
     22 H5          2.2340   -0.1750    0.0880 h1        1 MTL      0.069200
     23 HO5         2.1340   -2.2200    0.4200 ho        1 MTL      0.429000
     24 H61         2.4710    0.9080    2.1330 h1        1 MTL      0.042700
     25 H62         1.6310   -0.2340    2.8620 h1        1 MTL      0.042700
     26 HO6         3.8510   -0.5030    3.0720 ho        1 MTL      0.410500
@<TRIPOS>BOND
     1    1    2 1   
     2    1   13 1   
     3    2    3 1   
     4    2   14 1   
     5    2   15 1   
     6    3    4 1   
     7    3    5 1   
     8    3   16 1   
     9    4   17 1   
    10    5    6 1   
    11    5    7 1   
    12    5   18 1   
    13    6   19 1   
    14    7    8 1   
    15    7    9 1   
    16    7   20 1   
    17    8   21 1   
    18    9   10 1   
    19    9   11 1   
    20    9   22 1   
    21   10   23 1   
    22   11   12 1   
    23   11   24 1   
    24   11   25 1   
    25   12   26 1   
@<TRIPOS>SUBSTRUCTURE
     1 MTL         1 TEMP              0 ****  ****    0 ROOT
