@<TRIPOS>MOLECULE
MTM
   39    37     1     0     0
SMALL
bcc


@<TRIPOS>ATOM
      1 CS         -5.0830   -3.3690   -1.5670 c3        1 MTM     -0.046000
      2 S5'        -3.3380   -3.1620   -1.8060 ss        1 MTM     -0.282200
      3 C5'        -2.7100   -2.0120   -0.6120 c3        1 MTM     -0.009300
      4 C4'        -1.2220   -1.9590   -0.7060 c3        1 MTM      0.149500
      5 N4'        -0.8330   -0.7530   -1.0610 n3        1 MTM     -0.800200
      6 C2'         0.6250   -1.7110    0.7270 c3        1 MTM      0.137100
      7 O2'         1.6190   -2.6990    0.2870 oh        1 MTM     -0.593800
      8 C3'        -0.5560   -2.2450    0.7600 c3        1 MTM      0.084100
      9 O3'        -0.4510   -3.6720    0.9900 oh        1 MTM     -0.599800
     10 C1'         0.5120   -0.5370   -0.3310 c3        1 MTM      0.242700
     11 C9          0.5190    0.6810    0.3050 ce        1 MTM     -0.149000
     12 C8         -0.3740    1.3980    1.0700 c1        1 MTM      0.184500
     13 N7          0.1710    2.6250    1.3180 nf        1 MTM     -0.417400
     14 C5          1.4070    2.6750    0.7060 ch        1 MTM     -0.114000
     15 C6          2.5000    3.7430    0.6960 c2        1 MTM      0.393700
     16 N6          1.9450    4.9350    0.0330 nh        1 MTM     -0.536100
     17 N1          3.7460    3.4460    0.0670 nh        1 MTM     -0.442400
     18 C2          3.9300    2.1950   -0.5940 c2        1 MTM     -0.000100
     19 N3          2.8290    1.2670   -0.7020 n1        1 MTM     -0.156000
     20 C4          1.6200    1.4750    0.0820 cg        1 MTM     -0.090300
     21 HCS1       -5.4500   -3.9130   -2.2950 h1        1 MTM      0.061033
     22 HCS2       -5.5180   -2.4900   -1.5640 h1        1 MTM      0.061033
     23 HCS3       -5.2450   -3.8170   -0.7110 h1        1 MTM      0.061033
     24 H5'1       -2.9700   -2.2990    0.2860 h1        1 MTM      0.061200
     25 H5'2       -3.0800   -1.1240   -0.7890 h1        1 MTM      0.061200
     26 H4'        -0.9030   -2.6190   -1.3540 h1        1 MTM      0.064700
     27 HN4        -0.6970   -0.7310   -1.9640 hn        1 MTM      0.373800
     28 H2'         0.8630   -1.3550    1.6060 h1        1 MTM      0.075700
     29 HO'2        2.1820   -2.8700    0.9530 ho        1 MTM      0.418000
     30 H3'        -1.0950   -1.8280    1.4620 h1        1 MTM      0.051700
     31 H3T        -0.9730   -3.9020    1.6720 ho        1 MTM      0.410000
     32 H1'         1.2520   -0.5870   -0.9690 h1        1 MTM      0.088700
     33 H8         -1.2430    1.0830    1.3840 DU        1 MTM      0.218500
     34 H7         -0.2140    3.2950    1.8020 DU        1 MTM      0.218500
     35 H6          2.6880    3.9790    1.6260 h5        1 MTM     -0.020200
     36 H61         2.5470    5.2520   -0.5790 hn        1 MTM      0.206700
     37 H62         1.7770    5.5820    0.6590 hn        1 MTM      0.206700
     38 HN1         4.4420    4.0320    0.1350 hn        1 MTM      0.260700
     39 H2          4.7830    1.9920   -1.0240 h5        1 MTM      0.167000
@<TRIPOS>BOND
     1    1    2 1   
     2    1   21 1   
     3    1   22 1   
     4    1   23 1   
     5    2    3 1   
     6    3    4 1   
     7    3   24 1   
     8    3   25 1   
     9    4    5 1   
    10    4    8 1   
    11    4   26 1   
    12    5   10 1   
    13    5   27 1   
    14    6    7 1   
    15    6    8 1   
    16    6   10 1   
    17    6   28 1   
    18    7   29 1   
    19    8    9 1   
    20    8   30 1   
    21    9   31 1   
    22   10   11 1   
    23   10   32 1   
    24   11   12 2   
    25   11   20 1   
    26   12   13 2   
    27   13   14 1   
    28   14   20 3   
    29   15   16 2   
    30   15   17 1   
    31   15   35 1   
    32   16   36 1   
    33   16   37 1   
    34   17   18 1   
    35   17   38 1   
    36   18   19 2   
    37   18   39 1   
@<TRIPOS>SUBSTRUCTURE
     1 MTM         1 TEMP              0 ****  ****    0 ROOT
