@<TRIPOS>MOLECULE
MTM
   40    42     1     0     0
SMALL
bcc


@<TRIPOS>ATOM
      1 CS          0.4210   -0.3980    0.4140 c3        1 MTM     -0.049000
      2 S5'         1.2070    1.1440    0.6840 ss        1 MTM     -0.269200
      3 C5'         2.0160    0.9220    2.2350 c3        1 MTM     -0.021300
      4 C4'         3.3960    0.2800    2.1290 c3        1 MTM      0.142500
      5 N4'         4.3460    1.1190    1.3950 n3        1 MTM     -0.816200
      6 C2'         5.4540    0.4580    3.4900 c3        1 MTM      0.149100
      7 O2'         6.3560   -0.6160    3.3310 oh        1 MTM     -0.589800
      8 C3'         3.9740    0.0170    3.5510 c3        1 MTM      0.090100
      9 O3'         3.9460   -1.3540    3.8880 oh        1 MTM     -0.594800
     10 C1'         5.5660    1.3100    2.1850 c3        1 MTM      0.231800
     11 C9          5.7930    2.7440    2.5070 cc        1 MTM     -0.100300
     12 C8          4.9040    3.8200    2.2940 cd        1 MTM     -0.046300
     13 N7          5.5030    5.0200    2.6540 na        1 MTM     -0.158100
     14 C5          6.7760    4.7340    3.1420 cd        1 MTM     -0.321600
     15 C6          7.8330    5.6330    3.6390 c3        1 MTM      0.564000
     16 N6          8.3780    6.4240    2.3410 n4        1 MTM     -0.934600
     17 N1          8.9000    4.9200    4.2530 nh        1 MTM     -0.867200
     18 C2          9.0220    3.5260    4.0900 c2        1 MTM      0.606100
     19 N3          8.1630    2.7250    3.5100 ne        1 MTM     -0.518100
     20 C4          6.9900    3.3130    3.0580 cc        1 MTM      0.150400
     21 HCS1        1.1520   -1.2310    0.3140 h1        1 MTM      0.068367
     22 HCS2       -0.1390   -0.2910   -0.5450 h1        1 MTM      0.068367
     23 HCS3       -0.2970   -0.6500    1.2260 h1        1 MTM      0.068367
     24 H5'1        2.0930    1.9480    2.6750 h1        1 MTM      0.071700
     25 H5'2        1.3900    0.2940    2.9160 h1        1 MTM      0.071700
     26 H4'         3.2720   -0.7200    1.6120 h1        1 MTM      0.062700
     27 HN4         4.5560    0.7200    0.5020 hn        1 MTM      0.388800
     28 H2'         5.7320    1.0500    4.4010 h1        1 MTM      0.055700
     29 HO'2        6.0960   -1.3170    3.9460 ho        1 MTM      0.434000
     30 H3'         3.4180    0.6140    4.3230 h1        1 MTM      0.052700
     31 H3T         3.0190   -1.6230    3.9080 ho        1 MTM      0.420000
     32 H1'         6.4760    0.9450    1.6150 h1        1 MTM      0.095700
     33 H8          3.8870    3.7880    1.8840 h4        1 MTM      0.214000
     34 H7          5.0370    5.8860    2.7410 hn        1 MTM      0.308700
     35 H6          7.4700    6.4920    4.2820 hx        1 MTM      0.105700
     36 H61         9.1700    7.0190    2.5690 hn        1 MTM      0.436800
     37 H62         7.6200    6.9920    1.9710 hn        1 MTM      0.436800
     38 HN1         9.4320    5.3750    4.9600 hn        1 MTM      0.469800
     39 H2          9.9560    3.0890    4.5130 h5        1 MTM      0.086800
     40 H63         8.6610    5.7540    1.6250 hn        1 MTM      0.436800
@<TRIPOS>BOND
     1    1    2 1   
     2    1   21 1   
     3    1   22 1   
     4    1   23 1   
     5    2    3 1   
     6    3    4 1   
     7    3   24 1   
     8    3   25 1   
     9    4    5 1   
    10    4    8 1   
    11    4   26 1   
    12    5   10 1   
    13    5   27 1   
    14    6    7 1   
    15    6    8 1   
    16    6   10 1   
    17    6   28 1   
    18    7   29 1   
    19    8    9 1   
    20    8   30 1   
    21    9   31 1   
    22   10   11 1   
    23   10   32 1   
    24   11   12 2   
    25   11   20 1   
    26   12   13 1   
    27   12   33 1   
    28   13   14 1   
    29   13   34 1   
    30   14   15 1   
    31   14   20 2   
    32   15   16 1   
    33   15   17 1   
    34   15   35 1   
    35   16   36 1   
    36   16   37 1   
    37   16   40 1   
    38   17   18 1   
    39   17   38 1   
    40   18   19 2   
    41   18   39 1   
    42   19   20 1   
@<TRIPOS>SUBSTRUCTURE
     1 MTM         1 TEMP              0 ****  ****    0 ROOT
