@<TRIPOS>MOLECULE
MTM
   40    42     1     0     0
SMALL
bcc


@<TRIPOS>ATOM
      1 CS          1.0810    0.8340    0.1120 c3        1 MTM     -0.028000
      2 S5'         1.6690    1.9390    1.3480 ss        1 MTM     -0.342200
      3 C5'         2.1220    0.8970    2.7000 c3        1 MTM     -0.044300
      4 C4'         3.3450    0.0070    2.4710 c3        1 MTM      0.156500
      5 N4'         4.4000    0.5490    1.6170 n3        1 MTM     -0.801200
      6 C2'         5.4040    0.3010    3.8220 c3        1 MTM      0.115100
      7 O2'         6.3990   -0.6780    3.9880 oh        1 MTM     -0.584800
      8 C3'         3.9900   -0.3360    3.8450 c3        1 MTM      0.104100
      9 O3'         4.0730   -1.7450    3.9190 oh        1 MTM     -0.585800
     10 C1'         5.5210    1.0090    2.4340 c3        1 MTM      0.196800
     11 C9          5.6490    2.4820    2.5940 cc        1 MTM     -0.129300
     12 C8          4.6780    3.4690    2.3140 cd        1 MTM     -0.082300
     13 N7          5.2000    4.7360    2.5330 na        1 MTM     -0.150100
     14 C5          6.5050    4.5880    2.9950 cd        1 MTM     -0.317600
     15 C6          7.5090    5.6030    3.3710 c3        1 MTM      0.562000
     16 N6          7.9540    6.3080    1.9920 n4        1 MTM     -0.932600
     17 N1          8.6430    5.0260    4.0080 nh        1 MTM     -0.867200
     18 C2          8.8630    3.6350    3.9660 c2        1 MTM      0.609100
     19 N3          8.0470    2.7250    3.4920 ne        1 MTM     -0.517100
     20 C4          6.8200    3.1860    3.0370 cc        1 MTM      0.156400
     21 HCS1        0.2020    0.2530    0.4700 h1        1 MTM      0.076033
     22 HCS2        0.7720    1.4730   -0.7480 h1        1 MTM      0.076033
     23 HCS3        1.8730    0.1260   -0.2170 h1        1 MTM      0.076033
     24 H5'1        1.2660    0.2440    2.9980 h1        1 MTM      0.083200
     25 H5'2        2.3080    1.6220    3.5340 h1        1 MTM      0.083200
     26 H4'         3.0060   -0.9520    1.9760 h1        1 MTM      0.105700
     27 HN4         4.0470    1.2650    1.0060 hn        1 MTM      0.380800
     28 H2'         5.5600    1.0190    4.6680 h1        1 MTM      0.086700
     29 HO'2        6.2810   -1.3410    3.2900 ho        1 MTM      0.426000
     30 H3'         3.3840    0.0570    4.7020 h1        1 MTM      0.054700
     31 H3T         4.5440   -1.9570    4.7380 ho        1 MTM      0.422000
     32 H1'         6.4640    0.6410    1.9230 h1        1 MTM      0.103700
     33 H8          3.6460    3.3320    1.9500 h4        1 MTM      0.218000
     34 H7          4.6730    5.5720    2.5570 hn        1 MTM      0.310700
     35 H6          7.1010    6.4870    3.9500 hx        1 MTM      0.106700
     36 H61         8.2680    5.5990    1.3280 hn        1 MTM      0.437467
     37 H62         8.7060    6.9780    2.1400 hn        1 MTM      0.437467
     38 HN1         9.1580    5.5790    4.6550 hn        1 MTM      0.470800
     39 H2          9.8380    3.3050    4.3900 h5        1 MTM      0.088800
     40 H63         7.1460    6.7850    1.5990 hn        1 MTM      0.437467
@<TRIPOS>BOND
     1    1    2 1   
     2    1   21 1   
     3    1   22 1   
     4    1   23 1   
     5    2    3 1   
     6    3    4 1   
     7    3   24 1   
     8    3   25 1   
     9    4    5 1   
    10    4    8 1   
    11    4   26 1   
    12    5   10 1   
    13    5   27 1   
    14    6    7 1   
    15    6    8 1   
    16    6   10 1   
    17    6   28 1   
    18    7   29 1   
    19    8    9 1   
    20    8   30 1   
    21    9   31 1   
    22   10   11 1   
    23   10   32 1   
    24   11   12 2   
    25   11   20 1   
    26   12   13 1   
    27   12   33 1   
    28   13   14 1   
    29   13   34 1   
    30   14   15 1   
    31   14   20 2   
    32   15   16 1   
    33   15   17 1   
    34   15   35 1   
    35   16   36 1   
    36   16   37 1   
    37   16   40 1   
    38   17   18 1   
    39   17   38 1   
    40   18   19 2   
    41   18   39 1   
    42   19   20 1   
@<TRIPOS>SUBSTRUCTURE
     1 MTM         1 TEMP              0 ****  ****    0 ROOT
