@<TRIPOS>MOLECULE
MTM
   40    42     1     0     0
SMALL
bcc


@<TRIPOS>ATOM
      1 CS          0.4030    1.7340    0.7930 c3        1 MTM     -0.055000
      2 S5'         2.1380    1.5000    0.6870 ss        1 MTM     -0.272200
      3 C5'         2.4710    0.6160    2.1860 c3        1 MTM     -0.018300
      4 C4'         3.7200   -0.2520    2.0440 c3        1 MTM      0.180500
      5 N4'         4.8170    0.4370    1.3620 n7        1 MTM     -0.811200
      6 C2'         5.4970    0.1770    3.7140 c3        1 MTM      0.099100
      7 O2'         6.5620   -0.6400    4.1360 oh        1 MTM     -0.581800
      8 C3'         4.2110   -0.6510    3.4680 c3        1 MTM      0.081100
      9 O3'         4.5190   -2.0320    3.4200 oh        1 MTM     -0.595800
     10 C1'         5.8070    0.8800    2.3500 c3        1 MTM      0.203800
     11 C9          5.8040    2.3590    2.4960 cc        1 MTM     -0.108300
     12 C8          4.8040    3.2550    2.0530 cd        1 MTM     -0.048300
     13 N7          5.1860    4.5620    2.3110 na        1 MTM     -0.155100
     14 C5          6.4220    4.5340    2.9520 cd        1 MTM     -0.327600
     15 C6          7.2780    5.6330    3.4300 c3        1 MTM      0.565000
     16 N6          7.8530    6.3470    2.0990 nz        1 MTM     -0.935600
     17 N1          8.3580    5.1670    4.2320 nu        1 MTM     -0.867200
     18 C2          8.6930    3.7990    4.2610 c2        1 MTM      0.606100
     19 N3          8.0270    2.8160    3.7080 ne        1 MTM     -0.521100
     20 C4          6.8400    3.1620    3.0770 cc        1 MTM      0.152400
     21 HCS1       -0.1450    0.7670    0.8610 h1        1 MTM      0.069033
     22 HCS2        0.1150    2.3670    1.6610 h1        1 MTM      0.069033
     23 HCS3        0.1030    2.2500   -0.1500 h1        1 MTM      0.069033
     24 H5'1        2.6030    1.3550    3.0140 h1        1 MTM      0.064700
     25 H5'2        1.6100   -0.0450    2.4500 h1        1 MTM      0.064700
     26 H4'         3.4410   -1.1850    1.4720 h1        1 MTM      0.097700
     27 HN4         5.2430   -0.1660    0.6850 hn        1 MTM      0.385800
     28 H2'         5.3630    0.9220    4.5400 h1        1 MTM      0.092700
     29 HO'2        6.6810   -1.3390    3.4750 ho        1 MTM      0.416000
     30 H3'         3.4370   -0.4490    4.2510 h1        1 MTM      0.062700
     31 H3T         4.7450   -2.3020    4.3210 ho        1 MTM      0.422000
     32 H1'         6.8500    0.5780    2.0280 h1        1 MTM      0.082700
     33 H8          3.8520    3.0100    1.5430 h4        1 MTM      0.235000
     34 H7          4.6040    5.3560    2.2210 hn        1 MTM      0.307700
     35 H6          6.7280    6.4950    3.9180 hx        1 MTM      0.104700
     36 H61         8.3040    5.6500    1.5060 hn        1 MTM      0.436133
     37 H62         8.5240    7.0770    2.3240 hn        1 MTM      0.436133
     38 HN1         8.7310    5.7730    4.9260 hn        1 MTM      0.468800
     39 H2          9.6240    3.5620    4.8240 h5        1 MTM      0.085800
     40 H63         7.0700    6.7500    1.5890 hn        1 MTM      0.436133
@<TRIPOS>BOND
     1    1    2 1   
     2    1   21 1   
     3    1   22 1   
     4    1   23 1   
     5    2    3 1   
     6    3    4 1   
     7    3   24 1   
     8    3   25 1   
     9    4    5 1   
    10    4    8 1   
    11    4   26 1   
    12    5   10 1   
    13    5   27 1   
    14    6    7 1   
    15    6    8 1   
    16    6   10 1   
    17    6   28 1   
    18    7   29 1   
    19    8    9 1   
    20    8   30 1   
    21    9   31 1   
    22   10   11 1   
    23   10   32 1   
    24   11   12 2   
    25   11   20 1   
    26   12   13 1   
    27   12   33 1   
    28   13   14 1   
    29   13   34 1   
    30   14   15 1   
    31   14   20 2   
    32   15   16 1   
    33   15   17 1   
    34   15   35 1   
    35   16   36 1   
    36   16   37 1   
    37   16   40 1   
    38   17   18 1   
    39   17   38 1   
    40   18   19 2   
    41   18   39 1   
    42   19   20 1   
@<TRIPOS>SUBSTRUCTURE
     1 MTM         1 TEMP              0 ****  ****    0 ROOT
