@<TRIPOS>MOLECULE
MTM
   39    41     1     0     0
SMALL
bcc


@<TRIPOS>ATOM
      1 CS          5.7260   -1.1900   -0.6530 c3        1 MTM     -0.047000
      2 S5'         4.3390   -2.0530   -0.0170 ss        1 MTM     -0.286200
      3 C5'         3.5530   -0.8480    1.0060 c3        1 MTM     -0.010300
      4 C4'         2.6690    0.1250    0.2330 c3        1 MTM      0.176500
      5 N4'         1.4440   -0.5040   -0.2630 n3        1 MTM     -0.823200
      6 C2'         0.7330    1.5260    0.8900 c3        1 MTM      0.105100
      7 O2'         0.4900    2.8440    0.4520 oh        1 MTM     -0.588800
      8 C3'         2.2450    1.3110    1.1440 c3        1 MTM      0.094100
      9 O3'         3.0040    2.4370    0.7430 oh        1 MTM     -0.605800
     10 C1'         0.3270    0.4440   -0.1580 c3        1 MTM      0.227800
     11 C9         -0.9380   -0.2270    0.2220 cc        1 MTM     -0.124300
     12 C8         -1.1000   -1.3280    1.0830 cd        1 MTM     -0.119300
     13 N7         -2.4510   -1.6420    1.1900 na        1 MTM     -0.143100
     14 C5         -3.1640   -0.7650    0.3910 cd        1 MTM     -0.199600
     15 C6         -4.6550   -0.7040    0.1870 c3        1 MTM      0.535000
     16 N6         -5.1710   -2.0190   -0.1830 n3        1 MTM     -0.925800
     17 N1         -4.9730    0.3890   -0.7520 nh        1 MTM     -0.910200
     18 C2         -3.9790    1.2130   -1.2780 c2        1 MTM      0.609100
     19 N3         -2.6810    1.1360   -1.1060 ne        1 MTM     -0.588100
     20 C4         -2.2560    0.1350   -0.2360 cc        1 MTM      0.091400
     21 HCS1        5.4260   -0.3140   -1.2710 h1        1 MTM      0.062367
     22 HCS2        6.4020   -0.8350    0.1560 h1        1 MTM      0.062367
     23 HCS3        6.2760   -1.9160   -1.2950 h1        1 MTM      0.062367
     24 H5'1        2.9500   -1.4360    1.7420 h1        1 MTM      0.079700
     25 H5'2        4.3200   -0.2570    1.5640 h1        1 MTM      0.079700
     26 H4'         3.2900    0.5500   -0.6150 h1        1 MTM      0.051700
     27 HN4         1.5560   -0.8380   -1.1980 hn        1 MTM      0.382800
     28 H2'         0.1360    1.4250    1.8340 h1        1 MTM      0.096700
     29 HO'2        0.8660    2.9350   -0.4340 ho        1 MTM      0.410000
     30 H3'         2.4420    1.0890    2.2250 h1        1 MTM      0.052700
     31 H3T         2.5980    3.2110    1.1590 ho        1 MTM      0.419000
     32 H1'         0.1470    0.9710   -1.1460 h1        1 MTM      0.057700
     33 H8         -0.3360   -1.9040    1.6080 h4        1 MTM      0.179000
     34 H7         -2.8380   -2.4100    1.6730 hn        1 MTM      0.305700
     35 H6         -5.1560   -0.4600    1.1840 h2        1 MTM      0.051700
     36 H61        -6.1520   -1.9900   -0.3780 hn        1 MTM      0.358800
     37 H62        -4.6890   -2.4000   -0.9730 hn        1 MTM      0.358800
     38 HN1        -5.8850    0.7690   -0.6760 hn        1 MTM      0.421800
     39 H2         -4.3530    2.0090   -1.9580 h5        1 MTM      0.037800
@<TRIPOS>BOND
     1    1    2 1   
     2    1   21 1   
     3    1   22 1   
     4    1   23 1   
     5    2    3 1   
     6    3    4 1   
     7    3   24 1   
     8    3   25 1   
     9    4    5 1   
    10    4    8 1   
    11    4   26 1   
    12    5   10 1   
    13    5   27 1   
    14    6    7 1   
    15    6    8 1   
    16    6   10 1   
    17    6   28 1   
    18    7   29 1   
    19    8    9 1   
    20    8   30 1   
    21    9   31 1   
    22   10   11 1   
    23   10   32 1   
    24   11   12 2   
    25   11   20 1   
    26   12   13 1   
    27   12   33 1   
    28   13   14 1   
    29   13   34 1   
    30   14   15 1   
    31   14   20 2   
    32   15   16 1   
    33   15   17 1   
    34   15   35 1   
    35   16   36 1   
    36   16   37 1   
    37   17   18 1   
    38   17   38 1   
    39   18   19 2   
    40   18   39 1   
    41   19   20 1   
@<TRIPOS>SUBSTRUCTURE
     1 MTM         1 TEMP              0 ****  ****    0 ROOT
