@<TRIPOS>MOLECULE
MTP
   34    36     1     0     0
SMALL
bcc


@<TRIPOS>ATOM
      1 O5'         0.9180   -1.1130   -0.1540 oh        1 MTP     -0.593800
      2 C5'         0.9420   -1.2650    1.2490 c3        1 MTP      0.109400
      3 C4'         1.7010   -0.1200    1.9240 c3        1 MTP      0.089100
      4 O4'         1.9000   -0.4280    3.3070 os        1 MTP     -0.403600
      5 C1'         3.2680   -0.7800    3.5720 c3        1 MTP      0.215800
      6 N9          3.4250   -2.1990    3.7640 na        1 MTP     -0.284000
      7 C8          3.4920   -3.2170    2.7770 cc        1 MTP      0.408700
      8 N7          3.4830   -4.4610    3.2740 nd        1 MTP     -0.520100
      9 C5          3.3750   -4.3010    4.6650 ca        1 MTP     -0.164200
     10 C6          3.3160   -5.2130    5.7510 ca        1 MTP      0.563600
     11 S6          3.3810   -6.8610    5.3980 ss        1 MTP     -0.156400
     12 CS          3.2910   -7.6890    6.9340 c3        1 MTP     -0.082000
     13 N1          3.2120   -4.7370    7.0140 nb        1 MTP     -0.743000
     14 C2          3.1710   -3.3860    7.1950 ca        1 MTP      0.664900
     15 N3          3.2200   -2.3980    6.2690 nb        1 MTP     -0.699000
     16 C4          3.3200   -2.8730    4.9950 ca        1 MTP      0.452800
     17 C2'         4.1150   -0.2100    2.3890 c3        1 MTP      0.081100
     18 O2'         4.8290    0.9310    2.7980 oh        1 MTP     -0.577800
     19 C3'         3.0820    0.1310    1.2910 c3        1 MTP      0.076100
     20 O3'         3.1470    1.5050    0.9590 oh        1 MTP     -0.591800
     21 H5'         0.4350   -0.3010   -0.3490 ho        1 MTP      0.406000
     22 H5'1        1.4590   -2.2480    1.4250 h1        1 MTP      0.062700
     23 H5'2       -0.0980   -1.3170    1.6660 h1        1 MTP      0.062700
     24 H4'         1.0840    0.8210    1.9130 h1        1 MTP      0.096700
     25 H1'         3.5170   -0.2630    4.5490 h2        1 MTP      0.132700
     26 H8          3.5720   -2.9680    1.7110 h5        1 MTP      0.073800
     27 HS1         3.3340   -8.7750    6.6840 h1        1 MTP      0.077700
     28 HS2         2.3430   -7.4770    7.4790 h1        1 MTP      0.077700
     29 HS3         4.1400   -7.4340    7.6080 h1        1 MTP      0.077700
     30 H2          3.0850   -3.0490    8.2500 h5        1 MTP      0.056100
     31 H2'         4.9020   -0.9250    2.0300 h1        1 MTP      0.105700
     32 H1          4.1840    1.6200    3.0210 ho        1 MTP      0.423000
     33 H3'         3.2280   -0.4990    0.3730 h1        1 MTP      0.081700
     34 H3          4.0340    1.6670    0.6080 ho        1 MTP      0.421000
@<TRIPOS>BOND
     1    1    2 1   
     2    1   21 1   
     3    2    3 1   
     4    2   22 1   
     5    2   23 1   
     6    3    4 1   
     7    3   19 1   
     8    3   24 1   
     9    4    5 1   
    10    5    6 1   
    11    5   17 1   
    12    5   25 1   
    13    6    7 1   
    14    6   16 1   
    15    7    8 2   
    16    7   26 1   
    17    8    9 1   
    18    9   10 ar  
    19    9   16 ar  
    20   10   11 1   
    21   10   13 ar  
    22   11   12 1   
    23   12   27 1   
    24   12   28 1   
    25   12   29 1   
    26   13   14 ar  
    27   14   15 ar  
    28   14   30 1   
    29   15   16 ar  
    30   17   18 1   
    31   17   19 1   
    32   17   31 1   
    33   18   32 1   
    34   19   20 1   
    35   19   33 1   
    36   20   34 1   
@<TRIPOS>SUBSTRUCTURE
     1 MTP         1 TEMP              0 ****  ****    0 ROOT
