@<TRIPOS>MOLECULE
MTP
   34    32     1     0     0
SMALL
bcc


@<TRIPOS>ATOM
      1 O5'        -2.7360    2.5900   -3.1970 oh        1 MTP     -0.314000
      2 C5'        -1.3260    2.5920   -3.2440 c3        1 MTP     -0.037000
      3 C4'        -0.7730    2.5660   -1.8310 c3        1 MTP     -0.024000
      4 O4'        -1.0880    1.4500   -1.2440 os        1 MTP     -0.276000
      5 C1'         0.1320    1.0940   -0.2860 c3        1 MTP      0.139000
      6 N9          0.1570   -0.2800   -0.0310 n3        1 MTP     -0.209000
      7 C8         -0.0470   -1.3000   -0.8940 c1        1 MTP     -0.019000
      8 N7         -0.1570   -2.4400   -0.1760 n2        1 MTP     -0.103000
      9 C5         -0.0200   -2.1240    1.1390 c1        1 MTP     -0.164000
     10 C6         -0.0500   -2.8970    2.2890 c1        1 MTP     -0.092000
     11 S6         -0.6320   -4.5540    2.0480 s         1 MTP      0.365000
     12 CS         -0.4490   -5.4700    3.5540 c3        1 MTP     -0.385000
     13 N1          0.1140   -2.3190    3.4900 n2        1 MTP     -0.217000
     14 C2          0.3090   -0.9710    3.5800 c1        1 MTP      0.004000
     15 N3          0.3390   -0.2090    2.4500 n1        1 MTP     -0.207000
     16 C4          0.1740   -0.7920    1.2290 c1        1 MTP      0.037000
     17 C2'         1.2460    1.4630   -0.9400 c3        1 MTP     -0.027000
     18 O2'         2.2600    1.9510    0.0140 oh        1 MTP     -0.323000
     19 C3'         0.8060    2.5870   -1.8600 c3        1 MTP      0.023000
     20 O3'         1.2660    3.7670   -1.4070 oh        1 MTP     -0.313000
     21 H5'        -3.0590    2.7930   -4.0000 ho        1 MTP      0.206000
     22 H5'1       -1.0140    1.8010   -3.7310 h1        1 MTP      0.095500
     23 H5'2       -1.0160    3.4010   -3.7010 h1        1 MTP      0.095500
     24 H4'        -1.1130    3.3270   -1.3180 h1        1 MTP      0.156000
     25 H1'         0.0550    1.5910    0.5550 h2        1 MTP      0.145000
     26 H8         -0.1090   -1.2250   -1.8660 DU        1 MTP      0.214000
     27 HS1        -0.9650   -5.0360    4.2650 h1        1 MTP      0.118000
     28 HS2        -0.7770   -6.3840    3.4230 h1        1 MTP      0.118000
     29 HS3         0.4980   -5.4960    3.8070 h1        1 MTP      0.118000
     30 H2          0.4280   -0.5530    4.4540 ha        1 MTP      0.191000
     31 H2'         1.5990    0.7150   -1.4610 h1        1 MTP      0.116000
     32 H1          3.0730    1.7720   -0.2990 ho        1 MTP      0.239000
     33 H3'         1.1290    2.4250   -2.7690 h1        1 MTP      0.101000
     34 H3          1.7450    4.1630   -2.0430 ho        1 MTP      0.232000
@<TRIPOS>BOND
     1    1    2 1   
     2    1   21 1   
     3    2    3 1   
     4    2   22 1   
     5    2   23 1   
     6    3    4 1   
     7    3   19 1   
     8    3   24 1   
     9    4    5 1   
    10    5    6 1   
    11    5   17 1   
    12    5   25 1   
    13    6    7 1   
    14    6   16 1   
    15    7    8 1   
    16    8    9 1   
    17    9   10 1   
    18   10   13 1   
    19   11   12 1   
    20   12   27 1   
    21   12   28 1   
    22   12   29 1   
    23   13   14 1   
    24   14   30 1   
    25   15   16 1   
    26   17   18 1   
    27   17   19 1   
    28   17   31 1   
    29   18   32 1   
    30   19   20 1   
    31   19   33 1   
    32   20   34 1   
@<TRIPOS>SUBSTRUCTURE
     1 MTP         1 TEMP              0 ****  ****    0 ROOT
