@<TRIPOS>MOLECULE
MTP
   34    36     1     0     0
SMALL
bcc


@<TRIPOS>ATOM
      1 O5'        -0.1030   -1.2880    1.4090 oh        1 MTP     -0.586800
      2 C5'         1.2260   -1.2270    0.9440 c3        1 MTP      0.120400
      3 C4'         2.0020   -0.1140    1.6470 c3        1 MTP      0.083100
      4 O4'         2.0780   -0.3960    3.0510 os        1 MTP     -0.416600
      5 C1'         3.4040   -0.7880    3.4390 c3        1 MTP      0.217800
      6 N9          3.4890   -2.2040    3.6850 na        1 MTP     -0.285000
      7 C8          3.5970   -3.2570    2.7380 cc        1 MTP      0.408700
      8 N7          3.5060   -4.4820    3.2700 nd        1 MTP     -0.518100
      9 C5          3.2990   -4.2730    4.6440 ca        1 MTP     -0.165200
     10 C6          3.1270   -5.1460    5.7490 ca        1 MTP      0.564600
     11 S6          3.1610   -6.8060    5.4520 ss        1 MTP     -0.153400
     12 CS          2.9240   -7.5790    7.0020 c3        1 MTP     -0.082000
     13 N1          2.9430   -4.6250    6.9850 nb        1 MTP     -0.743000
     14 C2          2.9350   -3.2680    7.1210 ca        1 MTP      0.665900
     15 N3          3.0880   -2.3130    6.1720 nb        1 MTP     -0.700000
     16 C4          3.2690   -2.8340    4.9240 ca        1 MTP      0.451800
     17 C2'         4.3640   -0.2910    2.3110 c3        1 MTP      0.079100
     18 O2'         5.0720    0.8510    2.7290 oh        1 MTP     -0.576800
     19 C3'         3.4380    0.0280    1.1140 c3        1 MTP      0.082100
     20 O3'         3.6020    1.3700    0.6980 oh        1 MTP     -0.585800
     21 H5'        -0.0660   -1.3980    2.3690 ho        1 MTP      0.417000
     22 H5'1        1.1420   -1.0040   -0.1540 h1        1 MTP      0.051700
     23 H5'2        1.7370   -2.2150    1.0990 h1        1 MTP      0.051700
     24 H4'         1.4400    0.8590    1.5720 h1        1 MTP      0.113700
     25 H1'         3.5960   -0.2480    4.4160 h2        1 MTP      0.133700
     26 H8          3.7640   -3.0450    1.6750 h5        1 MTP      0.069800
     27 HS1         3.7280   -7.3310    7.7310 h1        1 MTP      0.078033
     28 HS2         2.9490   -8.6740    6.7880 h1        1 MTP      0.078033
     29 HS3         1.9460   -7.3190    7.4650 h1        1 MTP      0.078033
     30 H2          2.7810   -2.8940    8.1550 h5        1 MTP      0.057100
     31 H2'         5.1600   -1.0390    2.0510 h1        1 MTP      0.105700
     32 H1          4.4280    1.5590    2.8820 ho        1 MTP      0.424000
     33 H3'         3.6330   -0.6680    0.2560 h1        1 MTP      0.061700
     34 H3          4.5360    1.4840    0.4730 ho        1 MTP      0.421000
@<TRIPOS>BOND
     1    1    2 1   
     2    1   21 1   
     3    2    3 1   
     4    2   22 1   
     5    2   23 1   
     6    3    4 1   
     7    3   19 1   
     8    3   24 1   
     9    4    5 1   
    10    5    6 1   
    11    5   17 1   
    12    5   25 1   
    13    6    7 1   
    14    6   16 1   
    15    7    8 2   
    16    7   26 1   
    17    8    9 1   
    18    9   10 ar  
    19    9   16 ar  
    20   10   11 1   
    21   10   13 ar  
    22   11   12 1   
    23   12   27 1   
    24   12   28 1   
    25   12   29 1   
    26   13   14 ar  
    27   14   15 ar  
    28   14   30 1   
    29   15   16 ar  
    30   17   18 1   
    31   17   19 1   
    32   17   31 1   
    33   18   32 1   
    34   19   20 1   
    35   19   33 1   
    36   20   34 1   
@<TRIPOS>SUBSTRUCTURE
     1 MTP         1 TEMP              0 ****  ****    0 ROOT
