@<TRIPOS>MOLECULE
MTP
   34    36     1     0     0
SMALL
bcc


@<TRIPOS>ATOM
      1 O5'        -4.5130   -2.3260   -0.0920 oh        1 MTP     -0.599800
      2 C5'        -3.2880   -1.7830    0.3590 c3        1 MTP      0.108400
      3 C4'        -3.4330   -0.2750    0.5700 c3        1 MTP      0.063100
      4 O4'        -2.2480    0.2280    1.1930 os        1 MTP     -0.400600
      5 C1'        -1.5690    1.1720    0.3470 c3        1 MTP      0.243800
      6 N9         -0.3580    0.6060   -0.1910 na        1 MTP     -0.284000
      7 C8         -0.2320   -0.3760   -1.2090 cc        1 MTP      0.409700
      8 N7          1.0180   -0.8240   -1.3850 nd        1 MTP     -0.522100
      9 C5          1.7900   -0.1450   -0.4290 ca        1 MTP     -0.164200
     10 C6          3.1690   -0.1630   -0.0960 ca        1 MTP      0.563600
     11 S6          4.1780   -1.1850   -0.9830 ss        1 MTP     -0.159400
     12 CS          5.7840   -0.9630   -0.3300 c3        1 MTP     -0.081000
     13 N1          3.6230    0.6270    0.9050 nb        1 MTP     -0.743000
     14 C2          2.7270    1.4210    1.5580 ca        1 MTP      0.663900
     15 N3          1.3940    1.5510    1.3570 nb        1 MTP     -0.697000
     16 C4          0.9320    0.7540    0.3510 ca        1 MTP      0.453800
     17 C2'        -2.5870    1.6080   -0.7580 c3        1 MTP      0.125100
     18 O2'        -3.0630    2.8730   -0.3560 oh        1 MTP     -0.582800
     19 C3'        -3.6510    0.4900   -0.7510 c3        1 MTP      0.084100
     20 O3'        -4.9290    1.0880   -0.8120 oh        1 MTP     -0.596800
     21 H5'        -5.0980   -2.3880    0.6720 ho        1 MTP      0.404000
     22 H5'1       -2.5480   -2.0090   -0.4560 h1        1 MTP      0.064200
     23 H5'2       -2.9470   -2.2680    1.3100 h1        1 MTP      0.064200
     24 H4'        -4.2720   -0.0630    1.2890 h1        1 MTP      0.080700
     25 H1'        -1.2990    2.0390    1.0240 h2        1 MTP      0.146700
     26 H8         -1.1040   -0.6960   -1.7920 h5        1 MTP      0.068800
     27 HS1         5.8510   -1.2410    0.7460 h1        1 MTP      0.077367
     28 HS2         6.4380   -1.6430   -0.9250 h1        1 MTP      0.077367
     29 HS3         6.1490    0.0830   -0.4400 h1        1 MTP      0.077367
     30 H2          3.1510    2.0490    2.3710 h5        1 MTP      0.056100
     31 H2'        -2.1170    1.7020   -1.7730 h1        1 MTP      0.070700
     32 H1         -3.9520    2.9890   -0.7210 ho        1 MTP      0.436000
     33 H3'        -3.5090   -0.1960   -1.6310 h1        1 MTP      0.062700
     34 H3         -5.5710    0.3670   -0.8540 ho        1 MTP      0.427000
@<TRIPOS>BOND
     1    1    2 1   
     2    1   21 1   
     3    2    3 1   
     4    2   22 1   
     5    2   23 1   
     6    3    4 1   
     7    3   19 1   
     8    3   24 1   
     9    4    5 1   
    10    5    6 1   
    11    5   17 1   
    12    5   25 1   
    13    6    7 1   
    14    6   16 1   
    15    7    8 2   
    16    7   26 1   
    17    8    9 1   
    18    9   10 ar  
    19    9   16 ar  
    20   10   11 1   
    21   10   13 ar  
    22   11   12 1   
    23   12   27 1   
    24   12   28 1   
    25   12   29 1   
    26   13   14 ar  
    27   14   15 ar  
    28   14   30 1   
    29   15   16 ar  
    30   17   18 1   
    31   17   19 1   
    32   17   31 1   
    33   18   32 1   
    34   19   20 1   
    35   19   33 1   
    36   20   34 1   
@<TRIPOS>SUBSTRUCTURE
     1 MTP         1 TEMP              0 ****  ****    0 ROOT
