@<TRIPOS>MOLECULE
MTR
   34    32     1     0     0
SMALL
bcc


@<TRIPOS>ATOM
      1 P          -0.7530    2.6290    3.3710 p3        1 MTR      2.517000
      2 OP1         0.7570    2.6290    3.3710 o         1 MTR     -1.254500
      3 OP2        -1.2560    2.6290    4.7950 os        1 MTR     -1.230000
      4 O5'        -1.2790    1.3380    2.6260 os        1 MTR     -0.738000
      5 C1          0.1290   -0.7340   -1.2610 c1        1 MTR     -0.141000
      6 C6          1.0840    0.3070   -1.6720 c1        1 MTR     -0.017000
      7 C2          0.6380   -2.0790   -0.7900 c1        1 MTR     -0.065000
      8 N3          2.0680   -2.3720   -0.8270 n2        1 MTR     -0.294000
      9 C4          3.0230   -1.3150   -1.1450 c2        1 MTR      0.318000
     10 O4          4.2160   -1.5270   -1.0570 o         1 MTR     -0.441000
     11 C5          2.5290    0.0330   -1.6220 c2        1 MTR     -0.183000
     12 C5M         3.5120    1.0590   -2.1430 c3        1 MTR     -0.165000
     13 C2'        -2.1000   -1.4730   -0.3640 c3        1 MTR     -0.188000
     14 C5'        -0.8330    1.0920    1.3140 c3        1 MTR      0.062000
     15 C4'        -1.8940    0.5540    0.5470 c3        1 MTR     -0.043000
     16 O4'        -1.5850    0.7020   -0.9790 os        1 MTR     -0.296000
     17 C1'        -1.2860   -0.5100   -1.4060 c3        1 MTR      0.087000
     18 C3'        -2.0310   -0.9070    0.8120 c3        1 MTR      0.015000
     19 O3'        -3.2980   -1.1770    1.5940 oh        1 MTR     -0.395000
     20 OP3        -1.2560    3.8610    2.6590 o         1 MTR     -1.254500
     21 H6          0.7640    1.2000   -1.9030 ha        1 MTR      0.253000
     22 H2          0.0060   -2.7690   -0.5120 ha        1 MTR      0.124000
     23 H3          2.3640   -3.2170   -0.6520 hn        1 MTR      0.215000
     24 H71         4.0640    1.3830   -1.4070 hc        1 MTR      0.092000
     25 H72         3.0230    1.8070   -2.5370 hc        1 MTR      0.092000
     26 H73         4.0810    0.6490   -2.8210 hc        1 MTR      0.092000
     27 H2'        -3.0320   -1.5510   -0.6420 hc        1 MTR      0.077000
     28 H2''       -1.6860   -2.3560   -0.3340 hc        1 MTR      0.077000
     29 H5'        -0.5310    1.9280    0.9100 h1        1 MTR      0.048000
     30 H5''       -0.0930    0.4550    1.3360 h1        1 MTR      0.048000
     31 H4'        -2.7280    1.0120    0.7640 h1        1 MTR      0.066000
     32 H1'        -1.4040   -0.6870   -2.3590 h1        1 MTR      0.053000
     33 H3'        -1.2530   -1.2370    1.3010 h1        1 MTR      0.188000
     34 HO3'       -3.9600   -1.3580    1.0310 ho        1 MTR      0.280000
@<TRIPOS>BOND
     1    1    2 1   
     2    1    4 1   
     3    1   20 1   
     4    4   14 1   
     5    5    7 1   
     6    5   17 1   
     7    6   11 1   
     8    6   21 1   
     9    7   22 1   
    10    8    9 1   
    11    8   23 1   
    12    9   10 1   
    13    9   11 1   
    14   11   12 1   
    15   12   24 1   
    16   12   25 1   
    17   12   26 1   
    18   13   17 1   
    19   13   18 1   
    20   13   27 1   
    21   13   28 1   
    22   14   15 1   
    23   14   29 1   
    24   14   30 1   
    25   15   16 1   
    26   15   18 1   
    27   15   31 1   
    28   16   17 1   
    29   17   32 1   
    30   18   19 1   
    31   18   33 1   
    32   19   34 1   
@<TRIPOS>SUBSTRUCTURE
     1 MTR         1 TEMP              0 ****  ****    0 ROOT
