@<TRIPOS>MOLECULE
MTR
   34    35     1     0     0
SMALL
bcc


@<TRIPOS>ATOM
      1 P          -1.0400   -4.9590   -3.0240 p5        1 MTR      1.338900
      2 OP1        -1.2600   -5.4220   -4.4280 o         1 MTR     -0.928167
      3 OP2        -1.8100   -3.7280   -2.5920 o         1 MTR     -0.928167
      4 O5'         0.5680   -4.2860   -3.0700 os        1 MTR     -0.565200
      5 C1          0.3780   -1.0100   -0.5590 cc        1 MTR     -0.318200
      6 C6         -0.0040   -0.0010    0.3480 cc        1 MTR     -0.010000
      7 C2         -0.6210   -1.7000   -1.2510 cd        1 MTR      0.111600
      8 N3         -1.9360   -1.4330   -1.0550 n         1 MTR     -0.370100
      9 C4         -2.3700   -0.4420   -0.1600 c         1 MTR      0.674700
     10 O4         -3.6020   -0.2250   -0.0280 o         1 MTR     -0.725500
     11 C5         -1.3300    0.2950    0.5570 cd        1 MTR     -0.310400
     12 C5M        -1.7670    1.3340    1.5090 c3        1 MTR     -0.005900
     13 C2'         2.4250   -2.2060    0.3220 c3        1 MTR     -0.139400
     14 C5'         1.2380   -4.3940   -1.8830 c3        1 MTR      0.226400
     15 C4'         2.4010   -3.3840   -1.8040 c3        1 MTR      0.076100
     16 O4'         2.0050   -2.0200   -2.0320 os        1 MTR     -0.407600
     17 C1'         1.8130   -1.3330   -0.7870 c3        1 MTR      0.221300
     18 C3'         3.0460   -3.4090   -0.4020 c3        1 MTR      0.104100
     19 O3'         4.4620   -3.2970   -0.4520 oh        1 MTR     -0.625800
     20 OP3        -0.8780   -5.9920   -1.9480 o         1 MTR     -0.928167
     21 H6          0.7760    0.5540    0.8930 ha        1 MTR      0.096000
     22 H2         -0.4240   -2.5320   -2.0120 h4        1 MTR      0.297000
     23 H3         -2.5860   -2.0460   -1.5430 hn        1 MTR      0.410500
     24 H71        -0.9870    2.1260    1.6280 hc        1 MTR      0.017700
     25 H72        -1.9640    0.8850    2.5160 hc        1 MTR      0.017700
     26 H73        -2.7160    1.8100    1.1560 hc        1 MTR      0.017700
     27 H2'         3.1980   -1.6430    0.8960 hc        1 MTR      0.048200
     28 H2''        1.6340   -2.5520    1.0290 hc        1 MTR      0.048200
     29 H5'         0.5400   -4.2350   -1.0110 h1        1 MTR      0.001200
     30 H5''        1.7120   -5.4130   -1.7690 h1        1 MTR      0.001200
     31 H4'         3.1440   -3.5930   -2.6190 h1        1 MTR      0.058700
     32 H1'         2.3970   -0.3730   -0.8930 h1        1 MTR      0.017700
     33 H3'         2.8570   -4.3760    0.1310 h1        1 MTR      0.088700
     34 HO3'        4.6600   -2.5890   -1.0750 ho        1 MTR      0.391000
@<TRIPOS>BOND
     1    1    2 1   
     2    1    3 1   
     3    1    4 1   
     4    1   20 1   
     5    4   14 1   
     6    5    6 1   
     7    5    7 2   
     8    5   17 1   
     9    6   11 2   
    10    6   21 1   
    11    7    8 1   
    12    7   22 1   
    13    8    9 1   
    14    8   23 1   
    15    9   10 2   
    16    9   11 1   
    17   11   12 1   
    18   12   24 1   
    19   12   25 1   
    20   12   26 1   
    21   13   17 1   
    22   13   18 1   
    23   13   27 1   
    24   13   28 1   
    25   14   15 1   
    26   14   29 1   
    27   14   30 1   
    28   15   16 1   
    29   15   18 1   
    30   15   31 1   
    31   16   17 1   
    32   17   32 1   
    33   18   19 1   
    34   18   33 1   
    35   19   34 1   
@<TRIPOS>SUBSTRUCTURE
     1 MTR         1 TEMP              0 ****  ****    0 ROOT
