@<TRIPOS>MOLECULE
MTS
   34    35     1     0     0
SMALL
bcc


@<TRIPOS>ATOM
      1 S1          0.2160    0.0570    0.1740 ss        1 MTS      0.815200
      2 C2          1.8190   -0.2170   -0.0100 cc        1 MTS     -0.716600
      3 C3          2.4360   -0.2040    1.2880 cd        1 MTS      0.003000
      4 C4          1.5070    0.0430    2.2910 cd        1 MTS     -0.133300
      5 C5          1.7820    0.0470    3.7570 c3        1 MTS      0.183800
      6 C6          0.7280   -0.8040    4.4880 c3        1 MTS     -0.054400
      7 C7         -0.7200   -0.5750    4.0900 c3        1 MTS     -0.297900
      8 S8         -1.0620    0.5720    2.8590 sy        1 MTS      1.391300
      9 C9          0.1940    0.2020    1.7410 cc        1 MTS     -0.447600
     10 S10         2.7660   -0.3060   -1.3050 sy        1 MTS      1.523200
     11 O11         2.1550    0.1490   -2.4480 o         1 MTS     -0.544300
     12 O12         4.0970   -0.1290   -1.0100 o         1 MTS     -0.544300
     13 N13         2.7420   -2.1720   -1.6340 nz        1 MTS     -0.798500
     14 N14         1.8980    1.4540    4.3050 ny        1 MTS     -0.770000
     15 C15        -1.3900   -1.9090    3.7990 c3        1 MTS     -0.088100
     16 O16        -2.2690    0.3610    2.2260 o         1 MTS     -0.610800
     17 O17        -0.7160    1.8260    3.3840 o         1 MTS     -0.610800
     18 C18         2.7560    1.5260    5.5100 c3        1 MTS      0.076100
     19 H3          3.5160   -0.3500    1.4410 ha        1 MTS      0.205000
     20 H5          2.7950   -0.4390    3.9380 hx        1 MTS      0.127700
     21 H61         1.0070   -1.8760    4.2790 hc        1 MTS      0.102200
     22 H62         0.8370   -0.6660    5.5990 hc        1 MTS      0.102200
     23 H7         -1.2440   -0.1830    5.0240 h1        1 MTS      0.153700
     24 HN31        3.6970   -2.5380   -1.6480 hn        1 MTS      0.467800
     25 HN32        2.2220   -2.7110   -0.9480 hn        1 MTS      0.467800
     26 HN4         2.2850    2.0640    3.5750 hn        1 MTS      0.475800
     27 H151       -0.8860   -2.4290    2.9490 hc        1 MTS      0.075700
     28 H152       -1.3390   -2.5740    4.6960 hc        1 MTS      0.075700
     29 H153       -2.4710   -1.7570    3.5450 hc        1 MTS      0.075700
     30 H181        2.7520    2.5850    5.8940 hx        1 MTS      0.116033
     31 H182        2.3540    0.8420    6.3060 hx        1 MTS      0.116033
     32 H183        3.8080    1.2270    5.2540 hx        1 MTS      0.116033
     33 H133        2.3350   -2.3670   -2.5530 hn        1 MTS      0.467800
     34 H142        0.9530    1.8180    4.5370 hn        1 MTS      0.475800
@<TRIPOS>BOND
     1    1    2 1   
     2    1    9 1   
     3    2    3 2   
     4    2   10 1   
     5    3    4 1   
     6    3   19 1   
     7    4    5 1   
     8    4    9 2   
     9    5    6 1   
    10    5   14 1   
    11    5   20 1   
    12    6    7 1   
    13    6   21 1   
    14    6   22 1   
    15    7    8 1   
    16    7   15 1   
    17    7   23 1   
    18    8    9 1   
    19    8   16 2   
    20    8   17 2   
    21   10   11 2   
    22   10   12 2   
    23   10   13 1   
    24   13   24 1   
    25   13   25 1   
    26   13   33 1   
    27   14   18 1   
    28   14   26 1   
    29   14   34 1   
    30   15   27 1   
    31   15   28 1   
    32   15   29 1   
    33   18   30 1   
    34   18   31 1   
    35   18   32 1   
@<TRIPOS>SUBSTRUCTURE
     1 MTS         1 TEMP              0 ****  ****    0 ROOT
