@<TRIPOS>MOLECULE
MTS
   34    35     1     0     0
SMALL
bcc


@<TRIPOS>ATOM
      1 S1          0.2370   -0.0020    0.1580 ss        1 MTS      0.815200
      2 C2          1.8460   -0.2490   -0.0040 cc        1 MTS     -0.716600
      3 C3          2.4490   -0.2020    1.3010 cd        1 MTS      0.003000
      4 C4          1.5040    0.0440    2.2890 cd        1 MTS     -0.133300
      5 C5          1.7620    0.0780    3.7570 c3        1 MTS      0.183800
      6 C6          0.7160   -0.7790    4.4910 c3        1 MTS     -0.054400
      7 C7         -0.7320   -0.5850    4.0740 c3        1 MTS     -0.297900
      8 S8         -1.0810    0.5350    2.8190 sy        1 MTS      1.391300
      9 C9          0.1950    0.1700    1.7220 cc        1 MTS     -0.447600
     10 S10         2.8100   -0.3420   -1.2870 sy        1 MTS      1.523200
     11 O11         2.2030    0.0820   -2.4440 o         1 MTS     -0.544300
     12 O12         4.1340   -0.1360   -0.9800 o         1 MTS     -0.544300
     13 N13         2.8230   -2.2130   -1.5840 n4        1 MTS     -0.798500
     14 N14         1.8450    1.4960    4.2820 n4        1 MTS     -0.770000
     15 C15        -1.3750   -1.9350    3.7980 c3        1 MTS     -0.088100
     16 O16        -2.2770    0.2910    2.1760 o         1 MTS     -0.610800
     17 O17        -0.7640    1.8040    3.3260 o         1 MTS     -0.610800
     18 C18         2.6880    1.6040    5.4950 c3        1 MTS      0.076100
     19 H3          3.5290   -0.3260    1.4680 ha        1 MTS      0.205000
     20 H5          2.7810   -0.3860    3.9580 hx        1 MTS      0.127700
     21 H61         1.0160   -1.8500    4.3040 hc        1 MTS      0.102200
     22 H62         0.8090   -0.6210    5.6010 hc        1 MTS      0.102200
     23 H7         -1.2730   -0.1860    4.9950 h1        1 MTS      0.153700
     24 HN31        2.3060   -2.7510   -0.8950 hn        1 MTS      0.467800
     25 HN32        3.7860   -2.5620   -1.5810 hn        1 MTS      0.467800
     26 HN4         0.8920    1.8460    4.4970 hn        1 MTS      0.475800
     27 H151       -0.8510   -2.4600    2.9630 hc        1 MTS      0.075700
     28 H152       -2.4550   -1.8070    3.5290 hc        1 MTS      0.075700
     29 H153       -1.3210   -2.5840    4.7070 hc        1 MTS      0.075700
     30 H181        3.7480    1.3210    5.2560 hx        1 MTS      0.116033
     31 H182        2.6610    2.6700    5.8610 hx        1 MTS      0.116033
     32 H183        2.2900    0.9270    6.2990 hx        1 MTS      0.116033
     33 H133        2.4300   -2.4310   -2.5040 hn        1 MTS      0.467800
     34 H142        2.2300    2.1010    3.5460 hn        1 MTS      0.475800
@<TRIPOS>BOND
     1    1    2 1   
     2    1    9 1   
     3    2    3 2   
     4    2   10 1   
     5    3    4 1   
     6    3   19 1   
     7    4    5 1   
     8    4    9 2   
     9    5    6 1   
    10    5   14 1   
    11    5   20 1   
    12    6    7 1   
    13    6   21 1   
    14    6   22 1   
    15    7    8 1   
    16    7   15 1   
    17    7   23 1   
    18    8    9 1   
    19    8   16 2   
    20    8   17 2   
    21   10   11 2   
    22   10   12 2   
    23   10   13 1   
    24   13   24 1   
    25   13   25 1   
    26   13   33 1   
    27   14   18 1   
    28   14   26 1   
    29   14   34 1   
    30   15   27 1   
    31   15   28 1   
    32   15   29 1   
    33   18   30 1   
    34   18   31 1   
    35   18   32 1   
@<TRIPOS>SUBSTRUCTURE
     1 MTS         1 TEMP              0 ****  ****    0 ROOT
