@<TRIPOS>MOLECULE
MTS
   32    33     1     0     0
SMALL
bcc


@<TRIPOS>ATOM
      1 S1         -1.4650   -0.1840    0.7670 ss        1 MTS      0.526200
      2 C2         -0.1850   -0.0340    1.7420 cc        1 MTS     -0.495600
      3 C3          0.9960    0.0540    0.9760 cd        1 MTS     -0.052000
      4 C4          0.7260   -0.0030   -0.4040 cd        1 MTS     -0.023300
      5 C5          1.7950    0.1420   -1.4450 c3        1 MTS      0.227800
      6 C6          1.2740   -0.2670   -2.8340 c3        1 MTS     -0.090400
      7 C7         -0.0620    0.3580   -3.1670 c3        1 MTS     -0.261900
      8 S8         -1.3170   -0.2810   -2.1740 sy        1 MTS      1.402300
      9 C9         -0.6620   -0.1420   -0.6490 cc        1 MTS     -0.482600
     10 S10        -0.0680   -0.0130    3.4240 sy        1 MTS      1.560200
     11 O11        -1.2400   -0.6070    3.9350 o         1 MTS     -0.651800
     12 O12         1.1680   -0.5690    3.7920 o         1 MTS     -0.651800
     13 N13        -0.0780    1.5480    3.7700 n3        1 MTS     -1.025700
     14 N14         3.0190   -0.5360   -1.0340 n3        1 MTS     -0.820200
     15 C15        -0.0110    1.8670   -3.1700 c3        1 MTS     -0.069100
     16 O16        -2.4570    0.5310   -2.2640 o         1 MTS     -0.649800
     17 O17        -1.4970   -1.6280   -2.5070 o         1 MTS     -0.649800
     18 C18         4.1520   -0.3010   -1.8880 c3        1 MTS      0.151100
     19 H3          2.0030    0.1310    1.4050 ha        1 MTS      0.193000
     20 H5          2.0460    1.2500   -1.4940 h1        1 MTS      0.077700
     21 H61         2.0300    0.0460   -3.6030 hc        1 MTS      0.065700
     22 H62         1.1750   -1.3850   -2.8950 hc        1 MTS      0.065700
     23 H7         -0.2990    0.0440   -4.2290 h1        1 MTS      0.120700
     24 HN31       -0.8960    2.0520    4.0030 hn        1 MTS      0.450800
     25 HN32        0.7360    2.1090    3.7980 hn        1 MTS      0.450800
     26 HN4         2.8520   -1.5180   -0.9160 hn        1 MTS      0.371800
     27 H151       -0.9930    2.2820   -3.5100 hc        1 MTS      0.051700
     28 H152        0.2050    2.2620   -2.1470 hc        1 MTS      0.051700
     29 H153        0.7880    2.2280   -3.8610 hc        1 MTS      0.051700
     30 H181        5.0490   -0.7760   -1.4080 h1        1 MTS      0.035367
     31 H182        4.0400   -0.7220   -2.9250 h1        1 MTS      0.035367
     32 H183        4.3330    0.8020   -1.9760 h1        1 MTS      0.035367
@<TRIPOS>BOND
     1    1    2 1   
     2    1    9 1   
     3    2    3 2   
     4    2   10 1   
     5    3    4 1   
     6    3   19 1   
     7    4    5 1   
     8    4    9 2   
     9    5    6 1   
    10    5   14 1   
    11    5   20 1   
    12    6    7 1   
    13    6   21 1   
    14    6   22 1   
    15    7    8 1   
    16    7   15 1   
    17    7   23 1   
    18    8    9 1   
    19    8   16 2   
    20    8   17 2   
    21   10   11 2   
    22   10   12 2   
    23   10   13 1   
    24   13   24 1   
    25   13   25 1   
    26   14   18 1   
    27   14   26 1   
    28   15   27 1   
    29   15   28 1   
    30   15   29 1   
    31   18   30 1   
    32   18   31 1   
    33   18   32 1   
@<TRIPOS>SUBSTRUCTURE
     1 MTS         1 TEMP              0 ****  ****    0 ROOT
