@<TRIPOS>MOLECULE
MTS
   34    35     1     0     0
SMALL
bcc


@<TRIPOS>ATOM
      1 S1          0.2350    0.0480    0.1660 ss        1 MTS      0.815200
      2 C2          1.8340   -0.2520   -0.0060 cc        1 MTS     -0.716600
      3 C3          2.4450   -0.2370    1.2960 cd        1 MTS      0.003000
      4 C4          1.5130    0.0330    2.2910 cd        1 MTS     -0.133300
      5 C5          1.7800    0.0450    3.7590 c3        1 MTS      0.183800
      6 C6          0.7090   -0.7820    4.4900 c3        1 MTS     -0.054400
      7 C7         -0.7340   -0.5350    4.0830 c3        1 MTS     -0.297900
      8 S8         -1.0500    0.6070    2.8390 sy        1 MTS      1.391300
      9 C9          0.2070    0.2070    1.7320 cc        1 MTS     -0.447600
     10 S10         2.7880   -0.3670   -1.2940 sy        1 MTS      1.523200
     11 O11         2.1900    0.0870   -2.4450 o         1 MTS     -0.544300
     12 O12         4.1190   -0.2080   -0.9930 o         1 MTS     -0.544300
     13 N13         2.7370   -2.2350   -1.6070 n4        1 MTS     -0.798500
     14 N14         1.9140    1.4550    4.2950 n4        1 MTS     -0.770000
     15 C15        -1.4230   -1.8600    3.7990 c3        1 MTS     -0.088100
     16 O16        -2.2570    0.4090    2.2010 o         1 MTS     -0.610800
     17 O17        -0.6880    1.8600    3.3550 o         1 MTS     -0.610800
     18 C18         2.7660    1.5240    5.5050 c3        1 MTS      0.076100
     19 H3          3.5210   -0.3980    1.4570 ha        1 MTS      0.205000
     20 H5          2.7840   -0.4540    3.9490 hx        1 MTS      0.127700
     21 H61         0.8130   -0.6370    5.6010 hc        1 MTS      0.102200
     22 H62         0.9720   -1.8610    4.2920 hc        1 MTS      0.102200
     23 H7         -1.2560   -0.1260    5.0100 h1        1 MTS      0.153700
     24 HN31        3.6870   -2.6160   -1.6120 hn        1 MTS      0.467800
     25 HN32        2.3320   -2.4320   -2.5260 hn        1 MTS      0.467800
     26 HN4         2.3150    2.0530    3.5620 hn        1 MTS      0.475800
     27 H151       -2.5000   -1.6930    3.5380 hc        1 MTS      0.075700
     28 H152       -1.3870   -2.5180    4.7020 hc        1 MTS      0.075700
     29 H153       -0.9220   -2.3960    2.9570 hc        1 MTS      0.075700
     30 H181        2.3490    0.8540    6.3040 hx        1 MTS      0.116033
     31 H182        3.8150    1.2070    5.2570 hx        1 MTS      0.116033
     32 H183        2.7770    2.5870    5.8790 hx        1 MTS      0.116033
     33 H133        2.2050   -2.7600   -0.9200 hn        1 MTS      0.467800
     34 H142        0.9740    1.8360    4.5180 hn        1 MTS      0.475800
@<TRIPOS>BOND
     1    1    2 1   
     2    1    9 1   
     3    2    3 2   
     4    2   10 1   
     5    3    4 1   
     6    3   19 1   
     7    4    5 1   
     8    4    9 2   
     9    5    6 1   
    10    5   14 1   
    11    5   20 1   
    12    6    7 1   
    13    6   21 1   
    14    6   22 1   
    15    7    8 1   
    16    7   15 1   
    17    7   23 1   
    18    8    9 1   
    19    8   16 2   
    20    8   17 2   
    21   10   11 2   
    22   10   12 2   
    23   10   13 1   
    24   13   24 1   
    25   13   25 1   
    26   13   33 1   
    27   14   18 1   
    28   14   26 1   
    29   14   34 1   
    30   15   27 1   
    31   15   28 1   
    32   15   29 1   
    33   18   30 1   
    34   18   31 1   
    35   18   32 1   
@<TRIPOS>SUBSTRUCTURE
     1 MTS         1 TEMP              0 ****  ****    0 ROOT
