@<TRIPOS>MOLECULE
MTU
   35    37     1     0     0
SMALL
bcc


@<TRIPOS>ATOM
      1 P           5.3450    4.0750    1.9950 p5        1 MTU      1.440800
      2 OP1         5.5230    5.0110    3.1170 o         1 MTU     -0.846000
      3 OP2         6.3040    4.4970    0.7390 oh        1 MTU     -0.788400
      4 O5'         3.8610    4.3330    1.3210 os        1 MTU     -0.573200
      5 C5'         3.5380    3.6060    0.1770 c3        1 MTU      0.196400
      6 C4'         2.6400    2.3990    0.5020 c3        1 MTU      0.078100
      7 O4'         1.5580    2.3810   -0.4420 os        1 MTU     -0.431600
      8 C1'         1.4240    1.0940   -1.0630 c3        1 MTU      0.233800
      9 N9          1.4530    1.2210   -2.4970 na        1 MTU     -0.286900
     10 C4          0.9240    0.2420   -3.3800 cc        1 MTU      0.022400
     11 N3          0.6380   -1.0400   -3.1390 nd        1 MTU     -0.522300
     12 C2          0.1650   -1.7580   -4.2860 cd        1 MTU      0.846300
     13 N2         -0.1400   -3.0370   -4.1170 n2        1 MTU     -0.920100
     14 N1          0.0140   -1.1330   -5.5830 nd        1 MTU     -0.850000
     15 C6          0.3140    0.1390   -5.7280 cc        1 MTU      0.452200
     16 C5          0.7860    0.9410   -4.6660 cc        1 MTU     -0.003000
     17 N7          1.1630    2.2860   -4.5320 nd        1 MTU     -0.652000
     18 C8          1.5180    2.4280   -3.2530 cd        1 MTU      0.390400
     19 C2'         2.5450    0.1560   -0.5010 c3        1 MTU      0.116100
     20 O2'         1.9580   -0.9160    0.2020 oh        1 MTU     -0.582800
     21 C3'         3.3790    1.0450    0.4420 c3        1 MTU      0.148100
     22 O3'         3.4820    0.4610    1.7190 oh        1 MTU     -0.601800
     23 O1          5.5110    2.6000    2.0180 o         1 MTU     -0.846000
     24 H5'         2.9710    4.2940   -0.5120 h1        1 MTU      0.024700
     25 H5''        4.4800    3.2670   -0.3370 h1        1 MTU      0.024700
     26 H4'         2.1690    2.5370    1.5140 h1        1 MTU      0.078700
     27 H1'         0.4110    0.6970   -0.7460 h2        1 MTU      0.070700
     28 HN21        6.6560    3.7360    0.2900 ho        1 MTU      0.425000
     29 HN22       -0.4660   -3.4660   -4.9580 hn        1 MTU      0.339400
     30 H6          0.1850    0.5730   -6.7360 h4        1 MTU     -0.018200
     31 H8          1.8560    3.3500   -2.7690 h5        1 MTU      0.048100
     32 H2'         3.1980   -0.2440   -1.3230 h1        1 MTU      0.059700
     33 HO2'        1.4960   -1.4450   -0.4670 ho        1 MTU      0.420000
     34 H3'         4.4080    1.1820    0.0050 h1        1 MTU      0.055700
     35 HO3'        4.2130    0.9270    2.1630 ho        1 MTU      0.451000
@<TRIPOS>BOND
     1    1    2 1   
     2    1    3 1   
     3    1    4 1   
     4    1   23 1   
     5    3   28 1   
     6    4    5 1   
     7    5    6 1   
     8    5   24 1   
     9    5   25 1   
    10    6    7 1   
    11    6   21 1   
    12    6   26 1   
    13    7    8 1   
    14    8    9 1   
    15    8   19 1   
    16    8   27 1   
    17    9   10 1   
    18    9   18 2   
    19   10   11 2   
    20   10   16 1   
    21   11   12 1   
    22   12   13 2   
    23   12   14 1   
    24   13   29 1   
    25   14   15 2   
    26   15   16 1   
    27   15   30 1   
    28   16   17 2   
    29   17   18 1   
    30   18   31 1   
    31   19   20 1   
    32   19   21 1   
    33   19   32 1   
    34   20   33 1   
    35   21   22 1   
    36   21   34 1   
    37   22   35 1   
@<TRIPOS>SUBSTRUCTURE
     1 MTU         1 TEMP              0 ****  ****    0 ROOT
