@<TRIPOS>MOLECULE
MTU
   35    31     1     0     0
SMALL
bcc


@<TRIPOS>ATOM
      1 P          -1.6720   -5.1330    1.2170 p3        1 MTU      2.527000
      2 OP1        -0.6320   -5.9330    1.9460 o         1 MTU     -1.235000
      3 OP2        -2.9720   -5.1250    2.0320 os        1 MTU     -1.276000
      4 O5'        -1.1600   -3.6470    1.0210 os        1 MTU     -0.715000
      5 C5'        -1.9800   -2.7390    0.3130 c3        1 MTU      0.078000
      6 C4'        -1.6140   -1.2920    0.7150 c3        1 MTU     -0.061000
      7 O4'        -0.3560   -1.0650    0.4920 os        1 MTU     -0.290000
      8 C1'        -0.2520    0.4770    0.0480 c3        1 MTU      0.125000
      9 N9          0.9000    0.6840   -0.7010 n3        1 MTU     -0.181000
     10 C4          1.8510    1.6300   -0.4650 c1        1 MTU      0.055000
     11 N3          1.7770    2.8990    0.0310 n1        1 MTU     -0.201000
     12 C2          2.9190    3.6560    0.1600 c1        1 MTU      0.094000
     13 N2          3.0050    4.9890    0.6470 n2        1 MTU     -0.297000
     14 N1          4.1270    3.1400   -0.2090 n2        1 MTU     -0.245000
     15 C6          4.2030    1.8850   -0.7000 c1        1 MTU      0.022000
     16 C5          3.0480    1.1170   -0.8310 c1        1 MTU     -0.189000
     17 N7          2.8380   -0.1460   -1.2930 n1        1 MTU     -0.153000
     18 C8          1.5130   -0.4090   -1.2110 c1        1 MTU      0.010000
     19 C2'        -1.3280    0.7280   -0.6940 c3        1 MTU     -0.009000
     20 O2'        -1.7930    2.1410   -0.4740 oh        1 MTU     -0.343000
     21 C3'        -2.3900   -0.2600   -0.1990 c3        1 MTU      0.017000
     22 O3'        -3.3090    0.3720    0.4970 oh        1 MTU     -0.410000
     23 O1         -1.9330   -5.7640   -0.1550 o         1 MTU     -1.235000
     24 H5'        -1.8330   -2.8580   -0.6890 h1        1 MTU      0.036500
     25 H5''       -2.9290   -2.9130    0.5300 h1        1 MTU      0.036500
     26 H4'        -1.8260   -1.1340    1.6730 h1        1 MTU      0.120000
     27 H1'        -0.2460    1.0770    0.8690 h2        1 MTU      0.130000
     28 HN21        3.8180    5.4680    0.5710 hn        1 MTU      0.184000
     29 HN22        2.2620    5.3970    1.0020 hn        1 MTU      0.184000
     30 H6          5.1060    1.4990   -0.9760 ha        1 MTU      0.159000
     31 H8          1.0680   -1.1960   -1.5620 DU        1 MTU      0.255000
     32 H2'        -1.1330    0.5770   -1.6320 h1        1 MTU      0.107000
     33 HO2'       -2.1730    2.4670   -1.2570 ho        1 MTU      0.230000
     34 H3'        -2.7900   -0.7120   -0.9360 h1        1 MTU      0.156000
     35 HO3'       -4.1120    0.1250    0.2170 ho        1 MTU      0.315000
@<TRIPOS>BOND
     1    1    2 1   
     2    1    4 1   
     3    1   23 1   
     4    4    5 1   
     5    5    6 1   
     6    5   24 1   
     7    5   25 1   
     8    6    7 1   
     9    6   21 1   
    10    6   26 1   
    11    7    8 1   
    12    8    9 1   
    13    8   19 1   
    14    8   27 1   
    15    9   10 1   
    16    9   18 1   
    17   10   16 1   
    18   11   12 1   
    19   12   14 1   
    20   13   28 1   
    21   13   29 1   
    22   14   15 1   
    23   15   30 1   
    24   17   18 1   
    25   19   20 1   
    26   19   21 1   
    27   19   32 1   
    28   20   33 1   
    29   21   22 1   
    30   21   34 1   
    31   22   35 1   
@<TRIPOS>SUBSTRUCTURE
     1 MTU         1 TEMP              0 ****  ****    0 ROOT
