@<TRIPOS>MOLECULE
MTW
   43    46     1     0     0
SMALL
bcc


@<TRIPOS>ATOM
      1 C           0.1170   -2.2240   -0.2940 cc        1 MTW      0.405400
      2 N1          1.3650   -2.7350   -0.3200 nd        1 MTW     -0.681000
      3 C1          2.0090   -2.0830    0.7480 cd        1 MTW      0.504900
      4 N2          1.1970   -1.2080    1.4040 nc        1 MTW     -0.524800
      5 N           0.0220   -1.2780    0.7520 na        1 MTW     -0.060400
      6 C2         -1.1820   -0.5690    1.1400 c3        1 MTW      0.104600
      7 C3         -1.9110   -1.1810    2.3010 ca        1 MTW     -0.126300
      8 C4         -1.3370   -1.1560    3.5760 ca        1 MTW     -0.056000
      9 C17        -3.1780   -1.7420    2.1160 ca        1 MTW     -0.096000
     10 C18        -3.8710   -2.2710    3.2040 ca        1 MTW     -0.134000
     11 C6         -3.3020   -2.2560    4.4760 ca        1 MTW     -0.095000
     12 C5         -2.0280   -1.7030    4.6640 ca        1 MTW     -0.155900
     13 C7         -1.4160   -1.6950    6.0090 ce        1 MTW      0.517900
     14 N3         -0.8440   -0.6250    6.4690 nf        1 MTW     -0.699000
     15 C8         -1.4980   -3.0060    6.7520 c3        1 MTW     -0.282000
     16 C9         -0.7230   -2.9380    8.0320 c2        1 MTW      0.440200
     17 N4         -0.1470   -1.9000    8.5290 nf        1 MTW     -0.617000
     18 C10        -0.2470   -0.6510    7.7910 cf        1 MTW      0.799300
     19 N5          0.2220    0.4160    8.3880 ne        1 MTW     -0.517100
     20 C11         0.2260    1.6920    7.7870 ca        1 MTW      0.138400
     21 C14        -0.2760    2.7740    8.5450 ca        1 MTW     -0.057000
     22 C12         0.8100    1.9530    6.5290 ca        1 MTW     -0.086000
     23 C13         0.8980    3.2560    6.0450 ca        1 MTW     -0.136000
     24 C16         0.4010    4.3280    6.7790 ca        1 MTW     -0.076000
     25 C15        -0.1870    4.0730    8.0280 ca        1 MTW     -0.172200
     26 N6         -0.7300    5.2090    8.8210 no        1 MTW      0.313200
     27 O2         -1.2580    4.9860    9.8770 o         1 MTW     -0.209500
     28 O1         -0.6290    6.3240    8.3820 o         1 MTW     -0.209500
     29 H          -0.7080   -2.4640   -0.9700 h5        1 MTW      0.070100
     30 H1          3.0570   -2.2650    1.0100 h5        1 MTW      0.073100
     31 H2C1       -1.8530   -0.5450    0.2340 h1        1 MTW      0.076700
     32 H2C2       -0.9040    0.4930    1.4080 h1        1 MTW      0.076700
     33 H4         -0.3410   -0.7070    3.7200 ha        1 MTW      0.165000
     34 H17        -3.6340   -1.7640    1.1150 ha        1 MTW      0.137000
     35 H18        -4.8730   -2.7020    3.0590 ha        1 MTW      0.143000
     36 H6         -3.8610   -2.6680    5.3290 ha        1 MTW      0.137000
     37 H8C1       -2.5710   -3.2470    6.9800 hc        1 MTW      0.098700
     38 H8C2       -1.0920   -3.8290    6.1050 hc        1 MTW      0.098700
     39 H9         -0.6370   -3.8830    8.6060 h4        1 MTW      0.040800
     40 H14        -0.7340    2.6020    9.5360 ha        1 MTW      0.182000
     41 H12         1.2100    1.1240    5.9230 ha        1 MTW      0.153000
     42 H13         1.3640    3.4410    5.0640 ha        1 MTW      0.148000
     43 H16         0.4670    5.3580    6.3910 ha        1 MTW      0.170000
@<TRIPOS>BOND
     1    1    2 2   
     2    1    5 1   
     3    1   29 1   
     4    2    3 1   
     5    3    4 2   
     6    3   30 1   
     7    4    5 1   
     8    5    6 1   
     9    6    7 1   
    10    6   31 1   
    11    6   32 1   
    12    7    8 ar  
    13    7    9 ar  
    14    8   12 ar  
    15    8   33 1   
    16    9   10 ar  
    17    9   34 1   
    18   10   11 ar  
    19   10   35 1   
    20   11   12 ar  
    21   11   36 1   
    22   12   13 1   
    23   13   14 2   
    24   13   15 1   
    25   14   18 1   
    26   15   16 1   
    27   15   37 1   
    28   15   38 1   
    29   16   17 2   
    30   16   39 1   
    31   17   18 1   
    32   18   19 2   
    33   19   20 1   
    34   20   21 ar  
    35   20   22 ar  
    36   21   25 ar  
    37   21   40 1   
    38   22   23 ar  
    39   22   41 1   
    40   23   24 ar  
    41   23   42 1   
    42   24   25 ar  
    43   24   43 1   
    44   25   26 1   
    45   26   27 1   
    46   26   28 1   
@<TRIPOS>SUBSTRUCTURE
     1 MTW         1 TEMP              0 ****  ****    0 ROOT
