@<TRIPOS>MOLECULE
MTW
   43    46     1     0     0
SMALL
bcc


@<TRIPOS>ATOM
      1 C          -5.4800   -2.4370    0.8580 cc        1 MTW      0.405400
      2 N1         -5.6190   -2.6140    2.1870 nd        1 MTW     -0.681000
      3 C1         -4.2980   -2.5390    2.6690 cd        1 MTW      0.504900
      4 N2         -3.3840   -2.3260    1.6810 nc        1 MTW     -0.524800
      5 N          -4.1100   -2.2760    0.5490 na        1 MTW     -0.060400
      6 C2         -3.5700   -1.9910   -0.7670 c3        1 MTW      0.104600
      7 C3         -3.2800   -0.5390   -1.0140 ca        1 MTW     -0.126300
      8 C4         -2.2470    0.0940   -0.3170 ca        1 MTW     -0.056000
      9 C17        -4.0190    0.1700   -1.9650 ca        1 MTW     -0.096000
     10 C18        -3.7190    1.5080   -2.2240 ca        1 MTW     -0.134000
     11 C6         -2.6950    2.1460   -1.5280 ca        1 MTW     -0.095000
     12 C5         -1.9590    1.4410   -0.5660 ca        1 MTW     -0.155900
     13 C7         -0.8800    2.1180    0.1830 ce        1 MTW      0.517900
     14 N3          0.2740    1.5460    0.3420 nf        1 MTW     -0.699000
     15 C8         -1.2440    3.4730    0.7390 c3        1 MTW     -0.282000
     16 C9         -0.1430    4.0050    1.6010 c2        1 MTW      0.440200
     17 N4          1.0170    3.4770    1.7830 nf        1 MTW     -0.617000
     18 C10         1.3120    2.2340    1.0870 cf        1 MTW      0.799300
     19 N5          2.5430    1.7970    1.1750 ne        1 MTW     -0.517100
     20 C11         2.9730    0.5910    0.5830 ca        1 MTW      0.138400
     21 C14         4.1550    0.6270   -0.1910 ca        1 MTW     -0.057000
     22 C12         2.3520   -0.6540    0.8230 ca        1 MTW     -0.086000
     23 C13         2.8980   -1.8290    0.3130 ca        1 MTW     -0.136000
     24 C16         4.0570   -1.8050   -0.4550 ca        1 MTW     -0.076000
     25 C15         4.6750   -0.5680   -0.7030 ca        1 MTW     -0.172200
     26 N6          5.9110   -0.5270   -1.5300 no        1 MTW      0.313200
     27 O2          6.4230    0.5350   -1.7650 o         1 MTW     -0.209500
     28 O1          6.3660   -1.5590   -1.9470 o         1 MTW     -0.209500
     29 H          -6.2740   -2.4310    0.1060 h5        1 MTW      0.070100
     30 H1         -4.0450   -2.6490    3.7280 h5        1 MTW      0.073100
     31 H2C1       -2.6130   -2.5780   -0.8970 h1        1 MTW      0.076700
     32 H2C2       -4.3240   -2.3670   -1.5160 h1        1 MTW      0.076700
     33 H4         -1.6620   -0.4700    0.4280 ha        1 MTW      0.165000
     34 H17        -4.8330   -0.3240   -2.5170 ha        1 MTW      0.137000
     35 H18        -4.2940    2.0620   -2.9810 ha        1 MTW      0.143000
     36 H6         -2.4610    3.1990   -1.7450 ha        1 MTW      0.137000
     37 H8C1       -1.4370    4.1910   -0.1040 hc        1 MTW      0.098700
     38 H8C2       -2.1900    3.3880    1.3390 hc        1 MTW      0.098700
     39 H9         -0.3520    4.9520    2.1390 h4        1 MTW      0.040800
     40 H14         4.6660    1.5850   -0.3920 ha        1 MTW      0.182000
     41 H12         1.4310   -0.7040    1.4270 ha        1 MTW      0.153000
     42 H13         2.4040   -2.7920    0.5180 ha        1 MTW      0.148000
     43 H16         4.4860   -2.7360   -0.8620 ha        1 MTW      0.170000
@<TRIPOS>BOND
     1    1    2 2   
     2    1    5 1   
     3    1   29 1   
     4    2    3 1   
     5    3    4 2   
     6    3   30 1   
     7    4    5 1   
     8    5    6 1   
     9    6    7 1   
    10    6   31 1   
    11    6   32 1   
    12    7    8 ar  
    13    7    9 ar  
    14    8   12 ar  
    15    8   33 1   
    16    9   10 ar  
    17    9   34 1   
    18   10   11 ar  
    19   10   35 1   
    20   11   12 ar  
    21   11   36 1   
    22   12   13 1   
    23   13   14 2   
    24   13   15 1   
    25   14   18 1   
    26   15   16 1   
    27   15   37 1   
    28   15   38 1   
    29   16   17 2   
    30   16   39 1   
    31   17   18 1   
    32   18   19 2   
    33   19   20 1   
    34   20   21 ar  
    35   20   22 ar  
    36   21   25 ar  
    37   21   40 1   
    38   22   23 ar  
    39   22   41 1   
    40   23   24 ar  
    41   23   42 1   
    42   24   25 ar  
    43   24   43 1   
    44   25   26 1   
    45   26   27 1   
    46   26   28 1   
@<TRIPOS>SUBSTRUCTURE
     1 MTW         1 TEMP              0 ****  ****    0 ROOT
