@<TRIPOS>MOLECULE
MTW
   43    46     1     0     0
SMALL
bcc


@<TRIPOS>ATOM
      1 C           0.2270   -2.2700   -0.2510 cc        1 MTW      0.405400
      2 N1          1.4760   -2.7760   -0.2460 nd        1 MTW     -0.681000
      3 C1          2.0970   -2.1090    0.8270 cd        1 MTW      0.504900
      4 N2          1.2680   -1.2300    1.4570 nc        1 MTW     -0.524800
      5 N           0.1060   -1.3130    0.7820 na        1 MTW     -0.060400
      6 C2         -1.1080   -0.6050    1.1390 c3        1 MTW      0.104600
      7 C3         -1.8580   -1.2080    2.2920 ca        1 MTW     -0.126300
      8 C4         -1.3100   -1.1690    3.5770 ca        1 MTW     -0.056000
      9 C17        -3.1190   -1.7760    2.0870 ca        1 MTW     -0.096000
     10 C18        -3.8320   -2.2960    3.1670 ca        1 MTW     -0.134000
     11 C6         -3.2880   -2.2650    4.4490 ca        1 MTW     -0.095000
     12 C5         -2.0200   -1.7070    4.6570 ca        1 MTW     -0.155900
     13 C7         -1.4340   -1.6830    6.0130 ce        1 MTW      0.517900
     14 N3         -0.8730   -0.6080    6.4730 nf        1 MTW     -0.699000
     15 C8         -1.5280   -2.9860    6.7690 c3        1 MTW     -0.282000
     16 C9         -0.7790   -2.9030    8.0620 c2        1 MTW      0.440200
     17 N4         -0.2140   -1.8590    8.5600 nf        1 MTW     -0.617000
     18 C10        -0.3010   -0.6180    7.8070 cf        1 MTW      0.799300
     19 N5          0.1540    0.4560    8.4010 ne        1 MTW     -0.517100
     20 C11         0.1680    1.7260    7.7870 ca        1 MTW      0.138400
     21 C14        -0.3490    2.8150    8.5230 ca        1 MTW     -0.057000
     22 C12         0.7760    1.9740    6.5370 ca        1 MTW     -0.086000
     23 C13         0.8710    3.2710    6.0400 ca        1 MTW     -0.136000
     24 C16         0.3590    4.3500    6.7530 ca        1 MTW     -0.076000
     25 C15        -0.2530    4.1080    7.9940 ca        1 MTW     -0.172200
     26 N6         -0.8110    5.2520    8.7640 no        1 MTW      0.313200
     27 O2         -1.3590    5.0390    9.8120 o         1 MTW     -0.209500
     28 O1         -0.7040    6.3620    8.3150 o         1 MTW     -0.209500
     29 H          -0.5850   -2.5210   -0.9400 h5        1 MTW      0.070100
     30 H1          3.1400   -2.2830    1.1110 h5        1 MTW      0.073100
     31 H2C1       -1.7600   -0.5940    0.2190 h1        1 MTW      0.076700
     32 H2C2       -0.8400    0.4610    1.4010 h1        1 MTW      0.076700
     33 H4         -0.3180   -0.7150    3.7370 ha        1 MTW      0.165000
     34 H17        -3.5550   -1.8090    1.0770 ha        1 MTW      0.137000
     35 H18        -4.8300   -2.7320    3.0060 ha        1 MTW      0.143000
     36 H6         -3.8620   -2.6710    5.2950 ha        1 MTW      0.137000
     37 H8C1       -2.6060   -3.2270    6.9790 hc        1 MTW      0.098700
     38 H8C2       -1.1090   -3.8160    6.1390 hc        1 MTW      0.098700
     39 H9         -0.7030   -3.8420    8.6480 h4        1 MTW      0.040800
     40 H14        -0.8260    2.6530    9.5070 ha        1 MTW      0.182000
     41 H12         1.1890    1.1390    5.9470 ha        1 MTW      0.153000
     42 H13         1.3550    3.4460    5.0660 ha        1 MTW      0.148000
     43 H16         0.4310    5.3770    6.3550 ha        1 MTW      0.170000
@<TRIPOS>BOND
     1    1    2 2   
     2    1    5 1   
     3    1   29 1   
     4    2    3 1   
     5    3    4 2   
     6    3   30 1   
     7    4    5 1   
     8    5    6 1   
     9    6    7 1   
    10    6   31 1   
    11    6   32 1   
    12    7    8 ar  
    13    7    9 ar  
    14    8   12 ar  
    15    8   33 1   
    16    9   10 ar  
    17    9   34 1   
    18   10   11 ar  
    19   10   35 1   
    20   11   12 ar  
    21   11   36 1   
    22   12   13 1   
    23   13   14 2   
    24   13   15 1   
    25   14   18 1   
    26   15   16 1   
    27   15   37 1   
    28   15   38 1   
    29   16   17 2   
    30   16   39 1   
    31   17   18 1   
    32   18   19 2   
    33   19   20 1   
    34   20   21 ar  
    35   20   22 ar  
    36   21   25 ar  
    37   21   40 1   
    38   22   23 ar  
    39   22   41 1   
    40   23   24 ar  
    41   23   42 1   
    42   24   25 ar  
    43   24   43 1   
    44   25   26 1   
    45   26   27 1   
    46   26   28 1   
@<TRIPOS>SUBSTRUCTURE
     1 MTW         1 TEMP              0 ****  ****    0 ROOT
