@<TRIPOS>MOLECULE
MTW
   43    46     1     0     0
SMALL
bcc


@<TRIPOS>ATOM
      1 C           0.1180   -2.2160   -0.2940 cc        1 MTW      0.405400
      2 N1          1.3640   -2.7300   -0.3190 nd        1 MTW     -0.681000
      3 C1          2.0090   -2.0810    0.7500 cd        1 MTW      0.504900
      4 N2          1.1980   -1.2050    1.4070 nc        1 MTW     -0.524800
      5 N           0.0240   -1.2720    0.7530 na        1 MTW     -0.060400
      6 C2         -1.1790   -0.5600    1.1410 c3        1 MTW      0.104600
      7 C3         -1.9110   -1.1710    2.3000 ca        1 MTW     -0.126300
      8 C4         -1.3390   -1.1500    3.5760 ca        1 MTW     -0.056000
      9 C17        -3.1790   -1.7280    2.1130 ca        1 MTW     -0.096000
     10 C18        -3.8750   -2.2570    3.2000 ca        1 MTW     -0.134000
     11 C6         -3.3070   -2.2440    4.4720 ca        1 MTW     -0.095000
     12 C5         -2.0320   -1.6960    4.6620 ca        1 MTW     -0.155900
     13 C7         -1.4210   -1.6920    6.0080 ce        1 MTW      0.517900
     14 N3         -0.8460   -0.6250    6.4690 nf        1 MTW     -0.699000
     15 C8         -1.5090   -3.0030    6.7500 c3        1 MTW     -0.282000
     16 C9         -0.7350   -2.9400    8.0300 c2        1 MTW      0.440200
     17 N4         -0.1550   -1.9050    8.5290 nf        1 MTW     -0.617000
     18 C10        -0.2500   -0.6540    7.7920 cf        1 MTW      0.799300
     19 N5          0.2230    0.4100    8.3910 ne        1 MTW     -0.517100
     20 C11         0.2320    1.6870    7.7910 ca        1 MTW      0.138400
     21 C14        -0.2650    2.7700    8.5500 ca        1 MTW     -0.057000
     22 C12         0.8190    1.9470    6.5340 ca        1 MTW     -0.086000
     23 C13         0.9130    3.2490    6.0510 ca        1 MTW     -0.136000
     24 C16         0.4200    4.3230    6.7860 ca        1 MTW     -0.076000
     25 C15        -0.1710    4.0690    8.0340 ca        1 MTW     -0.172200
     26 N6         -0.7100    5.2060    8.8280 no        1 MTW      0.313200
     27 O2         -1.2400    4.9840    9.8830 o         1 MTW     -0.209500
     28 O1         -0.6040    6.3210    8.3900 o         1 MTW     -0.209500
     29 H          -0.7080   -2.4530   -0.9710 h5        1 MTW      0.070100
     30 H1          3.0550   -2.2670    1.0130 h5        1 MTW      0.073100
     31 H2C1       -1.8480   -0.5320    0.2340 h1        1 MTW      0.076700
     32 H2C2       -0.8980    0.5010    1.4100 h1        1 MTW      0.076700
     33 H4         -0.3410   -0.7040    3.7220 ha        1 MTW      0.165000
     34 H17        -3.6340   -1.7470    1.1110 ha        1 MTW      0.137000
     35 H18        -4.8780   -2.6850    3.0530 ha        1 MTW      0.143000
     36 H6         -3.8690   -2.6560    5.3240 ha        1 MTW      0.137000
     37 H8C1       -2.5840   -3.2400    6.9770 hc        1 MTW      0.098700
     38 H8C2       -1.1070   -3.8270    6.1020 hc        1 MTW      0.098700
     39 H9         -0.6540   -3.8850    8.6040 h4        1 MTW      0.040800
     40 H14        -0.7260    2.5990    9.5400 ha        1 MTW      0.182000
     41 H12         1.2160    1.1170    5.9280 ha        1 MTW      0.153000
     42 H13         1.3800    3.4340    5.0710 ha        1 MTW      0.148000
     43 H16         0.4900    5.3530    6.3990 ha        1 MTW      0.170000
@<TRIPOS>BOND
     1    1    2 2   
     2    1    5 1   
     3    1   29 1   
     4    2    3 1   
     5    3    4 2   
     6    3   30 1   
     7    4    5 1   
     8    5    6 1   
     9    6    7 1   
    10    6   31 1   
    11    6   32 1   
    12    7    8 ar  
    13    7    9 ar  
    14    8   12 ar  
    15    8   33 1   
    16    9   10 ar  
    17    9   34 1   
    18   10   11 ar  
    19   10   35 1   
    20   11   12 ar  
    21   11   36 1   
    22   12   13 1   
    23   13   14 2   
    24   13   15 1   
    25   14   18 1   
    26   15   16 1   
    27   15   37 1   
    28   15   38 1   
    29   16   17 2   
    30   16   39 1   
    31   17   18 1   
    32   18   19 2   
    33   19   20 1   
    34   20   21 ar  
    35   20   22 ar  
    36   21   25 ar  
    37   21   40 1   
    38   22   23 ar  
    39   22   41 1   
    40   23   24 ar  
    41   23   42 1   
    42   24   25 ar  
    43   24   43 1   
    44   25   26 1   
    45   26   27 1   
    46   26   28 1   
@<TRIPOS>SUBSTRUCTURE
     1 MTW         1 TEMP              0 ****  ****    0 ROOT
