@<TRIPOS>MOLECULE
MTX
   54    54     1     0     0
SMALL
bcc


@<TRIPOS>ATOM
      1 N1          0.0260    1.0140    0.6220 n2        1 MTX     -0.276000
      2 C2         -0.0710   -0.0660   -0.2290 c2        1 MTX      0.171000
      3 NA2         0.9000   -0.1680   -1.2500 nv        1 MTX     -0.311000
      4 N3         -0.9990   -1.0820   -0.1440 n2        1 MTX     -0.302000
      5 C4         -1.8620   -1.0590    0.9180 c2        1 MTX      0.200000
      6 NA4        -2.6940   -2.1370    1.1010 nv        1 MTX     -0.322000
      7 C4A        -1.8490    0.0390    1.8810 c2        1 MTX     -0.191000
      8 N5         -2.6630    0.0780    3.0290 n2        1 MTX     -0.158000
      9 C6         -3.9480    0.0490    2.9300 c2        1 MTX     -0.059000
     10 C7         -0.6860    3.0460    3.2640 c1        1 MTX      0.132000
     11 N8         -0.7700    2.1300    2.5230 n2        1 MTX     -0.268000
     12 C8A        -0.8580    1.0410    1.6640 c2        1 MTX      0.217000
     13 C9         -4.8770    0.0360    4.1240 c3        1 MTX     -0.052000
     14 N10        -4.3350   -0.4430    5.3740 n3        1 MTX     -0.223000
     15 CM         -3.4700    0.4550    6.0990 c3        1 MTX     -0.086000
     16 C11        -4.5360   -4.5190    6.4710 c2        1 MTX     -0.293000
     17 C12        -3.8530   -3.5900    7.2540 c2        1 MTX      0.096000
     18 C13        -3.7720   -2.2440    6.8900 c2        1 MTX     -0.360000
     19 C14        -4.3900   -1.7660    5.7170 c2        1 MTX      0.174000
     20 C15        -5.1550   -2.7490    4.8690 c3        1 MTX     -0.206000
     21 C16        -5.1760   -4.1330    5.2960 c1        1 MTX     -0.171000
     22 O          -4.0990   -6.3200    8.0060 o         1 MTX     -0.454000
     23 N          -5.1560   -6.8440    6.0610 nt        1 MTX     -0.424000
     24 CA         -9.8860   -2.6880    0.0170 c2        1 MTX     -0.303000
     25 CT        -11.3100   -2.3630    0.0710 c2        1 MTX      0.342000
     26 O1        -11.8120   -1.5650    1.0670 oh        1 MTX     -0.309000
     27 O2        -12.1810   -2.7230   -0.7280 o         1 MTX     -0.341000
     28 CB         -9.0610   -2.6620    1.0730 c2        1 MTX     -0.028000
     29 CG         -7.6250   -2.9920    1.0060 c3        1 MTX     -0.214000
     30 CD         -6.7990   -2.1140    1.9480 c2        1 MTX      0.349000
     31 OE1        -5.5690   -1.9430    1.6850 o         1 MTX     -0.602000
     32 OE2        -7.3430   -1.5950    2.9670 o         1 MTX     -0.602000
     33 HN21        1.3270    0.6940   -1.5080 hn        1 MTX      0.204000
     34 HN22        0.6370   -0.7440   -2.0190 hn        1 MTX      0.204000
     35 HN41       -2.7790   -2.7990    0.3640 hn        1 MTX      0.250000
     36 HN42       -3.5000   -2.0390    1.6850 hn        1 MTX      0.250000
     37 H7         -4.5260   -0.0020    1.9760 h4        1 MTX      0.163000
     38 H91        -5.7770   -0.5960    3.8170 h1        1 MTX      0.156000
     39 H92        -5.2370    1.0950    4.2790 h1        1 MTX      0.156000
     40 HM1        -3.4720    1.4660    5.6140 h1        1 MTX      0.086333
     41 HM2        -2.4150    0.0700    6.1140 h1        1 MTX      0.086333
     42 HM3        -3.8380    0.5580    7.1560 h1        1 MTX      0.086333
     43 H12        -3.2030   -1.5690    7.5440 ha        1 MTX      0.126000
     44 H13        -3.3570   -3.9220    8.1840 ha        1 MTX      0.139000
     45 H15        -6.2430   -2.4190    4.7680 hc        1 MTX      0.202000
     46 H16        -4.7820   -2.7110    3.7950 hc        1 MTX      0.202000
     47 HN         -5.5920   -6.5170    5.2330 hn        1 MTX      0.226500
     48 HA        -11.0960   -1.2710    1.6480 ho        1 MTX      0.230000
     49 HB1        -9.5380   -2.9870   -0.9860 ha        1 MTX      0.150000
     50 HB2        -9.4040   -2.3790    2.0880 ha        1 MTX      0.149000
     51 HG1        -7.2230   -2.9000   -0.0350 hc        1 MTX      0.105000
     52 HG2        -7.4780   -4.0560    1.3380 hc        1 MTX      0.105000
     53 H2         -5.2780   -7.7780    6.3530 hn        1 MTX      0.226500
     54 C          -4.5780   -5.9320    6.9100 c2        1 MTX      0.371000
@<TRIPOS>BOND
     1    1    2 1   
     2    1   12 1   
     3    2    3 1   
     4    2    4 1   
     5    3   33 1   
     6    3   34 1   
     7    4    5 1   
     8    5    6 1   
     9    5    7 1   
    10    6   35 1   
    11    6   36 1   
    12    7    8 1   
    13    7   12 1   
    14    8    9 1   
    15    9   13 1   
    16    9   37 1   
    17   10   11 1   
    18   11   12 1   
    19   13   14 1   
    20   13   38 1   
    21   13   39 1   
    22   14   15 1   
    23   14   19 1   
    24   15   40 1   
    25   15   41 1   
    26   15   42 1   
    27   16   17 1   
    28   16   21 1   
    29   16   54 1   
    30   17   18 1   
    31   17   44 1   
    32   18   19 1   
    33   18   43 1   
    34   19   20 1   
    35   20   21 1   
    36   20   45 1   
    37   20   46 1   
    38   22   54 1   
    39   23   47 1   
    40   23   53 1   
    41   23   54 1   
    42   24   25 1   
    43   24   28 1   
    44   24   49 1   
    45   25   26 1   
    46   25   27 1   
    47   26   48 1   
    48   28   29 1   
    49   28   50 1   
    50   29   30 1   
    51   29   51 1   
    52   29   52 1   
    53   30   31 1   
    54   30   32 1   
@<TRIPOS>SUBSTRUCTURE
     1 MTX         1 TEMP              0 ****  ****    0 ROOT
