@<TRIPOS>MOLECULE
MTX
   57    58     1     0     0
SMALL
bcc


@<TRIPOS>ATOM
      1 N1         -0.8270    1.8470    0.7220 n1        1 MTX     -0.411800
      2 C2          0.5230    2.1860    0.6190 cc        1 MTX      0.331900
      3 NA2         0.8320    3.2830   -0.3260 n4        1 MTX     -0.732600
      4 N3          1.5520    1.6210    1.2960 nc        1 MTX     -0.559000
      5 C4          1.2410    0.6140    2.1260 cd        1 MTX      0.210900
      6 NA4         2.3470   -0.0120    2.8670 n4        1 MTX     -0.735600
      7 C4A        -0.1230    0.0600    2.3360 cd        1 MTX      0.397700
      8 N5         -0.2590   -0.9690    3.1080 n2        1 MTX     -0.715900
      9 C6         -1.4150   -1.7680    3.3480 c3        1 MTX      0.128800
     10 C7         -3.6260    0.3110    1.8100 c1        1 MTX      0.532800
     11 N8         -2.4660    0.5320    1.7040 n1        1 MTX     -0.875400
     12 C8A        -1.1330    0.8520    1.5430 cd        1 MTX      0.511000
     13 C9         -2.2930   -1.3060    4.5430 c3        1 MTX     -0.010700
     14 N10        -3.0290   -2.3980    5.1670 nh        1 MTX     -0.178100
     15 CM         -2.3140   -3.1600    6.1740 c3        1 MTX     -0.030400
     16 C11        -7.0270   -3.4190    4.2850 ce        1 MTX     -0.194200
     17 C12        -6.3730   -4.1050    5.2530 c2        1 MTX     -0.013200
     18 C13        -4.9750   -3.8220    5.6250 c3        1 MTX     -0.177500
     19 C14        -4.3000   -2.7170    4.8560 cf        1 MTX      0.424600
     20 C15        -5.0510   -2.0540    3.8290 cf        1 MTX     -0.366600
     21 C16        -6.3510   -2.3820    3.5600 ce        1 MTX      0.086000
     22 O          -8.7280   -5.0270    3.8960 o         1 MTX     -0.590100
     23 N          -9.3390   -2.8100    3.6880 n         1 MTX     -0.526900
     24 CA        -10.5860   -3.0580    3.0080 c3        1 MTX      0.074000
     25 CT        -10.3480   -7.1130    3.9010 c1        1 MTX      0.903000
     26 O1         -9.5580   -7.7940    4.4710 o         1 MTX     -0.451500
     27 O2        -11.1420   -6.4310    3.3320 o         1 MTX     -0.451500
     28 CB        -10.5370   -2.8100    1.4960 c3        1 MTX     -0.117400
     29 CG        -10.0860   -1.4220    1.1680 cx        1 MTX      0.047100
     30 CD         -9.1020   -1.1580    0.1320 c         1 MTX      0.716600
     31 OE1        -8.5230   -0.9900   -0.9100 o         1 MTX     -0.470500
     32 OE2        -8.6490   -1.1250    1.4390 os        1 MTX     -0.512900
     33 HN21        0.5580    2.9940   -1.2740 hn        1 MTX      0.474467
     34 HN22        1.8360    3.4980   -0.3080 hn        1 MTX      0.474467
     35 HN41        3.2450    0.4400    2.6610 hn        1 MTX      0.466800
     36 HN42        2.1480    0.0590    3.8710 hn        1 MTX      0.466800
     37 H7         -2.0780   -1.8990    2.4460 h1        1 MTX      0.070200
     38 H91        -3.0160   -0.5120    4.2030 h1        1 MTX      0.091200
     39 H92        -1.6440   -0.8460    5.3450 h1        1 MTX      0.091200
     40 HM1        -1.2430   -2.8270    6.2190 h1        1 MTX      0.086700
     41 HM2        -2.7890   -3.0020    7.1810 h1        1 MTX      0.086700
     42 HM3        -2.3360   -4.2570    5.9220 h1        1 MTX      0.086700
     43 H12        -4.9450   -3.5790    6.7330 hc        1 MTX      0.141200
     44 H13        -6.8670   -4.9340    5.7990 ha        1 MTX      0.202000
     45 H15        -4.3850   -4.7840    5.4970 hc        1 MTX      0.141200
     46 H16        -4.5790   -1.2630    3.2180 ha        1 MTX      0.184000
     47 HN         -6.8930   -1.8490    2.7480 ha        1 MTX      0.204000
     48 HA        -10.8980   -4.1310    3.1830 h1        1 MTX      0.095200
     49 HB1       -11.3590   -2.3800    3.4710 h1        1 MTX      0.095200
     50 HB2       -11.5720   -2.9560    1.0850 hc        1 MTX      0.089700
     51 HG1        -9.8690   -3.5680    1.0080 hc        1 MTX      0.089700
     52 HG2       -10.7640   -0.6070    1.5020 h1        1 MTX      0.126700
     53 HA23        0.2960    4.1180   -0.0580 hn        1 MTX      0.474467
     54 HA43        2.3930   -1.0040    2.6040 hn        1 MTX      0.466800
     55 H101       -0.9850   -2.7890    3.5870 h1        1 MTX      0.070200
     56 H2         -8.9960   -1.8760    3.6320 hn        1 MTX      0.313500
     57 C          -8.4280   -3.8170    3.9170 c         1 MTX      0.669300
@<TRIPOS>BOND
     1    1    2 2   
     2    1   12 2   
     3    2    3 1   
     4    2    4 1   
     5    3   33 1   
     6    3   34 1   
     7    3   53 1   
     8    4    5 2   
     9    5    6 1   
    10    5    7 1   
    11    6   35 1   
    12    6   36 1   
    13    6   54 1   
    14    7    8 2   
    15    7   12 1   
    16    8    9 1   
    17    9   13 1   
    18    9   37 1   
    19    9   55 1   
    20   10   11 3   
    21   11   12 1   
    22   13   14 1   
    23   13   38 1   
    24   13   39 1   
    25   14   15 1   
    26   14   19 2   
    27   15   40 1   
    28   15   41 1   
    29   15   42 1   
    30   16   17 2   
    31   16   21 1   
    32   16   57 1   
    33   17   18 1   
    34   17   44 1   
    35   18   19 1   
    36   18   43 1   
    37   18   45 1   
    38   19   20 1   
    39   20   21 2   
    40   20   46 1   
    41   21   47 1   
    42   22   57 2   
    43   23   24 1   
    44   23   56 1   
    45   23   57 1   
    46   24   28 1   
    47   24   48 1   
    48   24   49 1   
    49   25   26 2   
    50   25   27 2   
    51   28   29 1   
    52   28   50 1   
    53   28   51 1   
    54   29   30 1   
    55   29   32 1   
    56   29   52 1   
    57   30   31 2   
    58   30   32 1   
@<TRIPOS>SUBSTRUCTURE
     1 MTX         1 TEMP              0 ****  ****    0 ROOT
