@<TRIPOS>MOLECULE
MTX
   53    55     1     0     0
SMALL
bcc


@<TRIPOS>ATOM
      1 N1          2.0540   -0.2640    5.4160 nb        1 MTX     -0.813000
      2 C2          2.7210   -1.1850    4.6350 ca        1 MTX      0.918900
      3 NA2         3.6480   -2.0170    5.2960 nh        1 MTX     -0.921500
      4 N3          2.5550   -1.4160    3.2850 nb        1 MTX     -0.856000
      5 C4          1.5790   -0.7120    2.6270 ca        1 MTX      0.709900
      6 NA4         1.3630   -0.9410    1.3210 nh        1 MTX     -0.857500
      7 C4A         0.7640    0.2800    3.3730 ca        1 MTX      0.035000
      8 N5         -0.2150    0.9930    2.7490 nb        1 MTX     -0.556000
      9 C6         -0.8960    1.8770    3.4820 ca        1 MTX      0.183300
     10 C7         -0.5910    2.0610    4.8790 ca        1 MTX      0.334900
     11 N8          0.3480    1.3940    5.5250 nb        1 MTX     -0.661000
     12 C8A         1.0750    0.4530    4.7840 ca        1 MTX      0.622000
     13 C9         -1.9800    2.7230    2.8510 c3        1 MTX      0.152500
     14 N10        -3.1360    2.0300    2.3080 nh        1 MTX     -0.627000
     15 CM         -3.9490    1.3820    3.3100 c3        1 MTX      0.167100
     16 C11        -2.1840   -0.2200   -1.1650 ca        1 MTX     -0.136600
     17 C12        -2.7050   -0.8680   -0.0410 ca        1 MTX     -0.085500
     18 C13        -3.0340   -0.1490    1.1030 ca        1 MTX     -0.163500
     19 C14        -2.8580    1.2500    1.1420 ca        1 MTX      0.111600
     20 C15        -2.4160    1.9040   -0.0290 ca        1 MTX     -0.163500
     21 C16        -2.0780    1.1720   -1.1630 ca        1 MTX     -0.085500
     22 O          -2.3420   -2.0590   -2.6710 o         1 MTX     -0.635100
     23 N          -0.4830   -0.6720   -2.8630 n         1 MTX     -0.472900
     24 CA          0.4690   -1.6410   -3.3980 c3        1 MTX     -0.040300
     25 CT          1.4740   -2.0900   -2.2890 c         1 MTX      0.902600
     26 O1          1.9820   -3.2390   -2.3630 o         1 MTX     -0.866300
     27 O2          1.7240   -1.2860   -1.3310 o         1 MTX     -0.866300
     28 CB          1.2610   -1.0720   -4.5850 c3        1 MTX     -0.050400
     29 CG          0.4190   -0.8780   -5.8230 c3        1 MTX     -0.183400
     30 CD          1.1760   -0.1490   -6.9420 c         1 MTX      0.904600
     31 OE1         1.2350   -0.6980   -8.0840 o         1 MTX     -0.871800
     32 OE2         1.6810    0.9900   -6.7090 o         1 MTX     -0.871800
     33 HN21        4.3090   -2.4680    4.7040 hn        1 MTX      0.410300
     34 HN22        4.0240   -1.6460    6.1390 hn        1 MTX      0.410300
     35 HN41        1.9370   -1.5530    0.7560 hn        1 MTX      0.494300
     36 HN42        0.7150   -0.3910    0.8000 hn        1 MTX      0.494300
     37 H7         -1.1590    2.8000    5.4720 h4        1 MTX      0.012100
     38 H91        -1.5200    3.3240    2.0140 h1        1 MTX      0.057200
     39 H92        -2.3600    3.4410    3.6330 h1        1 MTX      0.057200
     40 HM1        -4.2900    2.1610    4.0430 h1        1 MTX      0.029700
     41 HM2        -4.8510    0.9330    2.8160 h1        1 MTX      0.029700
     42 HM3        -3.4090    0.5760    3.8780 h1        1 MTX      0.029700
     43 H12        -2.8270   -1.9630   -0.0660 ha        1 MTX      0.151000
     44 H13        -3.4030   -0.6950    1.9830 ha        1 MTX      0.123500
     45 H15        -2.3110    2.9990   -0.0470 ha        1 MTX      0.123500
     46 H16        -1.7110    1.6990   -2.0590 ha        1 MTX      0.151000
     47 HN         -0.0060    0.0670   -2.3820 hn        1 MTX      0.296500
     48 HA         -0.1050   -2.5480   -3.7420 h1        1 MTX      0.073700
     49 HB1         1.7390   -0.0970   -4.3060 hc        1 MTX      0.052200
     50 HB2         2.0850   -1.8030   -4.7980 hc        1 MTX      0.052200
     51 HG1         0.0680   -1.8700   -6.2050 hc        1 MTX      0.021200
     52 HG2        -0.4860   -0.2650   -5.5810 hc        1 MTX      0.021200
     53 C          -1.6710   -1.0730   -2.2920 c         1 MTX      0.649700
@<TRIPOS>BOND
     1    1    2 ar  
     2    1   12 ar  
     3    2    3 1   
     4    2    4 ar  
     5    3   33 1   
     6    3   34 1   
     7    4    5 ar  
     8    5    6 1   
     9    5    7 ar  
    10    6   35 1   
    11    6   36 1   
    12    7    8 ar  
    13    7   12 ar  
    14    8    9 ar  
    15    9   10 ar  
    16    9   13 1   
    17   10   11 ar  
    18   10   37 1   
    19   11   12 ar  
    20   13   14 1   
    21   13   38 1   
    22   13   39 1   
    23   14   15 1   
    24   14   19 1   
    25   15   40 1   
    26   15   41 1   
    27   15   42 1   
    28   16   17 ar  
    29   16   21 ar  
    30   16   53 1   
    31   17   18 ar  
    32   17   43 1   
    33   18   19 ar  
    34   18   44 1   
    35   19   20 ar  
    36   20   21 ar  
    37   20   45 1   
    38   21   46 1   
    39   22   53 2   
    40   23   24 1   
    41   23   47 1   
    42   23   53 1   
    43   24   25 1   
    44   24   28 1   
    45   24   48 1   
    46   25   26 1   
    47   25   27 1   
    48   28   29 1   
    49   28   49 1   
    50   28   50 1   
    51   29   30 1   
    52   29   51 1   
    53   29   52 1   
    54   30   31 1   
    55   30   32 1   
@<TRIPOS>SUBSTRUCTURE
     1 MTX         1 TEMP              0 ****  ****    0 ROOT
