@<TRIPOS>MOLECULE
MTX
   54    52     1     0     0
SMALL
bcc


@<TRIPOS>ATOM
      1 N1         -1.1530    1.0220    0.2750 nb        1 MTX     -0.826000
      2 C2         -2.1440    0.5060   -0.5460 ca        1 MTX      0.905900
      3 NA2        -2.0200    0.7680   -1.9280 nh        1 MTX     -0.916500
      4 N3         -3.2500   -0.1890   -0.1400 nb        1 MTX     -0.829000
      5 C4         -3.4520   -0.3490    1.2160 ca        1 MTX      0.773200
      6 NA4        -4.5240   -1.0600    1.6220 nh        1 MTX     -0.875500
      7 C4A        -2.4950    0.2260    2.1790 ca        1 MTX     -0.237200
      8 N5         -2.6960   -0.0070    3.5450 ne        1 MTX     -0.534100
      9 C6         -2.5150    0.8840    4.4540 c2        1 MTX      0.370200
     10 C7          0.5260    1.8020    3.0970 c1        1 MTX      0.442800
     11 N8         -0.3600    1.3760    2.4440 n1        1 MTX     -0.813800
     12 C8A        -1.3630    0.8790    1.6130 ca        1 MTX      0.744300
     13 C9         -2.7550    0.5940    5.9230 c3        1 MTX      0.150500
     14 N10        -2.5050   -0.7440    6.4160 nh        1 MTX     -0.642400
     15 CM         -1.1230   -1.0750    6.6630 c3        1 MTX      0.175100
     16 C11        -5.1020   -3.9450    4.6880 ce        1 MTX     -0.046900
     17 C12        -3.9290   -4.0880    5.3500 cf        1 MTX     -0.024000
     18 C13        -3.0670   -3.0810    5.8990 cf        1 MTX     -0.254000
     19 C14        -3.3290   -1.7480    5.9020 c2        1 MTX      0.102000
     20 C15        -6.4310   -1.7530    4.2400 c1        1 MTX     -0.104500
     21 C16        -5.8000   -2.7480    4.4710 cg        1 MTX     -0.211300
     22 O          -5.5480   -6.3070    4.5870 o         1 MTX     -0.719100
     23 N          -6.4280   -5.0270    2.9200 n         1 MTX     -0.639000
     24 CA        -11.3850   -1.7440    1.7360 c2        1 MTX     -0.289000
     25 CT         -6.2900   -8.5310    3.9440 c1        1 MTX      0.922000
     26 O1         -6.8580   -8.0810    2.9980 o         1 MTX     -0.467000
     27 O2         -5.7540   -9.0730    4.8570 o         1 MTX     -0.467000
     28 CB        -10.1360   -1.3260    1.5430 c2        1 MTX     -0.110200
     29 CG         -9.1340   -2.0440    0.7260 c3        1 MTX     -0.162200
     30 CD         -7.7020   -1.8010    1.1950 c         1 MTX      0.910600
     31 OE1        -6.8370   -2.7110    0.9930 o         1 MTX     -0.866300
     32 OE2        -7.3810   -0.7050    1.7450 o         1 MTX     -0.866300
     33 HN21       -1.0900    0.9340   -2.2410 hn        1 MTX      0.409800
     34 HN22       -2.5540    0.1670   -2.5160 hn        1 MTX      0.409800
     35 HN41       -5.2420   -1.3770    0.9860 hn        1 MTX      0.484800
     36 HN42       -4.7530   -1.1340    2.5880 hn        1 MTX      0.484800
     37 H7         -2.2130    1.9370    4.2750 h4        1 MTX     -0.024200
     38 H91        -3.8370    0.8430    6.1360 h1        1 MTX      0.062200
     39 H92        -2.1110    1.3050    6.5150 h1        1 MTX      0.062200
     40 HM1        -0.5810   -0.1760    7.0560 h1        1 MTX      0.037033
     41 HM2        -1.0850   -1.8840    7.4410 h1        1 MTX      0.037033
     42 HM3        -0.5960   -1.4420    5.7410 h1        1 MTX      0.037033
     43 H12        -2.1150   -3.4680    6.3000 ha        1 MTX      0.117000
     44 H13        -3.5410   -5.1220    5.4540 ha        1 MTX      0.139000
     45 H15        -4.2940   -1.3640    5.5080 h4        1 MTX      0.163000
     46 H16        -6.9930   -0.9020    3.9250 ha        1 MTX      0.203500
     47 HN         -6.5280   -4.1420    2.4630 hn        1 MTX      0.342500
     48 HA         -6.8060   -5.8330    2.4840 hn        1 MTX      0.342500
     49 HB1       -12.1030   -1.1840    2.3460 ha        1 MTX      0.092000
     50 HB2        -9.7600   -0.3900    1.9960 ha        1 MTX      0.140000
     51 HG1        -9.1960   -1.6760   -0.3350 hc        1 MTX      0.047700
     52 HG2        -9.3320   -3.1460    0.7120 hc        1 MTX      0.047700
     53 H2        -11.7730   -2.6760    1.3080 ha        1 MTX      0.092000
     54 C          -5.7130   -5.1680    4.0670 c         1 MTX      0.675300
@<TRIPOS>BOND
     1    1    2 ar  
     2    1   12 ar  
     3    2    3 1   
     4    2    4 ar  
     5    3   33 1   
     6    3   34 1   
     7    4    5 ar  
     8    5    6 1   
     9    5    7 ar  
    10    6   35 1   
    11    6   36 1   
    12    7    8 1   
    13    7   12 ar  
    14    8    9 2   
    15    9   13 1   
    16    9   37 1   
    17   10   11 3   
    18   11   12 1   
    19   13   14 1   
    20   13   38 1   
    21   13   39 1   
    22   14   15 1   
    23   14   19 1   
    24   15   40 1   
    25   15   41 1   
    26   15   42 1   
    27   16   17 2   
    28   16   21 1   
    29   16   54 1   
    30   17   18 1   
    31   17   44 1   
    32   18   19 2   
    33   18   43 1   
    34   19   45 1   
    35   20   21 3   
    36   20   46 1   
    37   22   54 2   
    38   23   47 1   
    39   23   48 1   
    40   23   54 1   
    41   24   28 2   
    42   24   49 1   
    43   24   53 1   
    44   25   26 2   
    45   25   27 2   
    46   28   29 1   
    47   28   50 1   
    48   29   30 1   
    49   29   51 1   
    50   29   52 1   
    51   30   31 1   
    52   30   32 1   
@<TRIPOS>SUBSTRUCTURE
     1 MTX         1 TEMP              0 ****  ****    0 ROOT
