@<TRIPOS>MOLECULE
MTY
   23    23     1     0     0
SMALL
bcc


@<TRIPOS>ATOM
      1 N           1.1790    1.2470    1.6530 n3        1 MTY     -0.885800
      2 CA          0.0240    0.3670    1.5350 c3        1 MTY      0.023500
      3 CB          0.2940   -0.8720    0.6730 c3        1 MTY     -0.040100
      4 CG          0.3830   -0.5640   -0.7790 ca        1 MTY      0.009700
      5 CD1         1.5940   -0.6900   -1.4740 ca        1 MTY     -0.166000
      6 CE1         1.6600   -0.4200   -2.8400 ca        1 MTY     -0.108000
      7 CD2        -0.7630   -0.1620   -1.4750 ca        1 MTY     -0.209000
      8 CE2        -0.6830    0.1080   -2.8460 ca        1 MTY      0.112100
      9 CZ          0.5270   -0.0210   -3.5440 ca        1 MTY     -0.185000
     10 OH         -1.7830    0.5040   -3.5830 oh        1 MTY     -0.519100
     11 C          -0.5700   -0.1140    2.9030 c         1 MTY      0.886600
     12 O          -0.0500    0.3310    3.9640 o         1 MTY     -0.840300
     13 OXT        -1.5540   -0.9030    2.8610 o         1 MTY     -0.840300
     14 H           1.9570    0.7070    1.9920 hn        1 MTY      0.330800
     15 H2          0.9680    1.9160    2.3750 hn        1 MTY      0.330800
     16 HA         -0.7890    0.9710    1.0350 h1        1 MTY      0.042700
     17 HB2         1.2300   -1.3850    1.0180 hc        1 MTY      0.062700
     18 HB3        -0.5650   -1.5800    0.8490 hc        1 MTY      0.062700
     19 HD1         2.5000   -0.9940   -0.9300 ha        1 MTY      0.129000
     20 HE1         2.6180   -0.5200   -3.3710 ha        1 MTY      0.114000
     21 HD2        -1.7150   -0.0540   -0.9350 ha        1 MTY      0.146000
     22 HZ          0.5650    0.1950   -4.6190 ha        1 MTY      0.130000
     23 HH         -2.5240    0.5970   -2.9680 ho        1 MTY      0.414000
@<TRIPOS>BOND
     1    1    2 1   
     2    1   14 1   
     3    1   15 1   
     4    2    3 1   
     5    2   11 1   
     6    2   16 1   
     7    3    4 1   
     8    3   17 1   
     9    3   18 1   
    10    4    5 ar  
    11    4    7 ar  
    12    5    6 ar  
    13    5   19 1   
    14    6    9 ar  
    15    6   20 1   
    16    7    8 ar  
    17    7   21 1   
    18    8    9 ar  
    19    8   10 1   
    20    9   22 1   
    21   10   23 1   
    22   11   12 1   
    23   11   13 1   
@<TRIPOS>SUBSTRUCTURE
     1 MTY         1 TEMP              0 ****  ****    0 ROOT
