@<TRIPOS>MOLECULE
MTZ
   46    49     1     0     0
SMALL
bcc


@<TRIPOS>ATOM
      1 C14        -6.4700    1.1980   -0.0850 c3        1 MTZ      0.148800
      2 C15        -7.9530    0.9510    0.2210 c3        1 MTZ      0.123900
      3 O          -8.4440   -0.2070   -0.4440 os        1 MTZ     -0.414600
      4 C16        -7.6850   -1.3680   -0.1270 c3        1 MTZ      0.123900
      5 C17        -6.1960   -1.1780   -0.4480 c3        1 MTZ      0.148800
      6 N5         -5.6550    0.0180    0.1780 nh        1 MTZ     -0.630000
      7 C11        -4.2550    0.2120    0.0550 ca        1 MTZ      0.132600
      8 C12        -3.6240    1.2290    0.8110 ca        1 MTZ     -0.168000
      9 C13        -2.2490    1.3980    0.7790 ca        1 MTZ     -0.090500
     10 C10        -3.4340   -0.6210   -0.7330 ca        1 MTZ     -0.168000
     11 C9         -2.0540   -0.4630   -0.7510 ca        1 MTZ     -0.090500
     12 C8         -1.4270    0.5500    0.0000 ca        1 MTZ      0.110400
     13 N4         -0.0520    0.8460   -0.0590 ne        1 MTZ     -0.515100
     14 C5          0.8890   -0.0620    0.0270 cf        1 MTZ      0.785300
     15 N2          2.2460    0.4270   -0.0930 nf        1 MTZ     -0.646000
     16 N3          0.6320   -1.4780    0.2360 nf        1 MTZ     -0.682000
     17 C6          1.6310   -2.2600    0.4440 c2        1 MTZ      0.451200
     18 C7          3.0720   -1.8570    0.4810 c3        1 MTZ     -0.289000
     19 C4          3.2340   -0.3970    0.1160 ce        1 MTZ      0.539900
     20 C3          4.6140    0.0280    0.0090 cc        1 MTZ     -0.301300
     21 S           5.8810   -1.0660    0.2990 ss        1 MTZ     -0.165300
     22 C1          5.1200    1.2920   -0.3180 cd        1 MTZ      0.472600
     23 C2          4.2960    2.4800   -0.6420 c3        1 MTZ     -0.137400
     24 N1          6.5060    1.3850   -0.3110 nd        1 MTZ     -0.713000
     25 C           7.0530    0.1890   -0.0020 cc        1 MTZ      0.656300
     26 N           8.4080   -0.1040   -0.0210 nh        1 MTZ     -0.899500
     27 H141       -6.1100    2.0410    0.5650 h1        1 MTZ      0.047700
     28 H142       -6.3770    1.5220   -1.1630 h1        1 MTZ      0.047700
     29 H151       -8.5730    1.7920   -0.1870 h1        1 MTZ      0.055200
     30 H152       -8.1190    0.8480    1.3260 h1        1 MTZ      0.055200
     31 H161       -8.1170   -2.1720   -0.7780 h1        1 MTZ      0.055200
     32 H162       -7.8290   -1.6270    0.9550 h1        1 MTZ      0.055200
     33 H171       -6.0790   -1.1490   -1.5710 h1        1 MTZ      0.047700
     34 H172       -5.6310   -2.0680   -0.0540 h1        1 MTZ      0.047700
     35 H12        -4.2210    1.8960    1.4520 ha        1 MTZ      0.134500
     36 H13        -1.7950    2.2040    1.3780 ha        1 MTZ      0.143000
     37 H10        -3.8710   -1.4200   -1.3520 ha        1 MTZ      0.134500
     38 H9         -1.4550   -1.1360   -1.3850 ha        1 MTZ      0.143000
     39 H6          1.4170   -3.3340    0.6130 h4        1 MTZ      0.029800
     40 H7C1        3.6570   -2.4940   -0.2370 hc        1 MTZ      0.093700
     41 H7C2        3.4810   -2.0310    1.5130 hc        1 MTZ      0.093700
     42 H2C1        3.6450    2.2550   -1.5250 hc        1 MTZ      0.069367
     43 H2C2        3.6350    2.7270    0.2280 hc        1 MTZ      0.069367
     44 H2C3        4.9250    3.3740   -0.8790 hc        1 MTZ      0.069367
     45 HN1         9.0160    0.6760   -0.1640 hn        1 MTZ      0.412300
     46 HN2         8.7030   -0.7130    0.7110 hn        1 MTZ      0.412300
@<TRIPOS>BOND
     1    1    2 1   
     2    1    6 1   
     3    1   27 1   
     4    1   28 1   
     5    2    3 1   
     6    2   29 1   
     7    2   30 1   
     8    3    4 1   
     9    4    5 1   
    10    4   31 1   
    11    4   32 1   
    12    5    6 1   
    13    5   33 1   
    14    5   34 1   
    15    6    7 1   
    16    7    8 ar  
    17    7   10 ar  
    18    8    9 ar  
    19    8   35 1   
    20    9   12 ar  
    21    9   36 1   
    22   10   11 ar  
    23   10   37 1   
    24   11   12 ar  
    25   11   38 1   
    26   12   13 1   
    27   13   14 2   
    28   14   15 1   
    29   14   16 1   
    30   15   19 2   
    31   16   17 2   
    32   17   18 1   
    33   17   39 1   
    34   18   19 1   
    35   18   40 1   
    36   18   41 1   
    37   19   20 1   
    38   20   21 1   
    39   20   22 2   
    40   21   25 1   
    41   22   23 1   
    42   22   24 1   
    43   23   42 1   
    44   23   43 1   
    45   23   44 1   
    46   24   25 2   
    47   25   26 1   
    48   26   45 1   
    49   26   46 1   
@<TRIPOS>SUBSTRUCTURE
     1 MTZ         1 TEMP              0 ****  ****    0 ROOT
