@<TRIPOS>MOLECULE
MTZ
   46    43     1     0     0
SMALL
bcc


@<TRIPOS>ATOM
      1 C14         1.7220    2.9380    2.6830 c3        1 MTZ     -0.093500
      2 C15         0.2300    2.7260    2.5180 c3        1 MTZ     -0.057500
      3 O          -0.3630    3.6970    1.6690 os        1 MTZ     -0.269000
      4 C16         0.3020    3.8170    0.4380 c3        1 MTZ     -0.057500
      5 C17         1.7780    4.0320    0.6030 c3        1 MTZ     -0.093500
      6 N5          2.3790    3.0540    1.4650 n3        1 MTZ     -0.221000
      7 C11         2.4140    1.7760    0.8070 c2        1 MTZ      0.037000
      8 C12         2.4390    1.7100   -0.5610 c2        1 MTZ     -0.177000
      9 C13         2.5310    0.4840   -1.1920 c1        1 MTZ     -0.097000
     10 C10         2.4800    0.6130    1.5560 c1        1 MTZ     -0.150000
     11 C9          2.5720   -0.6120    0.9240 c1        1 MTZ     -0.088000
     12 C8          2.5970   -0.6760   -0.4440 c1        1 MTZ     -0.026000
     13 N4          2.7000   -1.9350   -1.0910 n2        1 MTZ     -0.080000
     14 C5          1.6270   -2.7260   -1.1860 c1        1 MTZ      0.053000
     15 N2          0.3900   -2.3080   -0.6420 n1        1 MTZ     -0.185000
     16 N3          1.7290   -3.9840   -1.8310 n2        1 MTZ     -0.111000
     17 C6          0.5370   -4.6810   -2.2490 c1        1 MTZ     -0.062000
     18 C7         -0.8540   -4.1190   -1.8870 c2        1 MTZ     -0.203000
     19 C4         -0.8090   -2.7670   -1.2010 c2        1 MTZ      0.099000
     20 C3         -2.0880   -1.9190   -1.0830 c2        1 MTZ     -0.425000
     21 S          -2.5520   -0.8690   -2.0630 ss        1 MTZ      0.523000
     22 C1         -3.0790   -2.0200   -0.0430 c1        1 MTZ     -0.009000
     23 C2         -3.0330   -2.9420    1.1050 c2        1 MTZ     -0.159000
     24 N1         -4.2150   -1.0130   -0.3520 n2        1 MTZ     -0.170000
     25 C          -3.8940   -0.3290   -1.5590 c1        1 MTZ     -0.161000
     26 N          -4.6840    0.6390   -2.1890 n2        1 MTZ     -0.288000
     27 H141        1.8650    3.7350    3.1880 h1        1 MTZ      0.105500
     28 H142        2.1020    2.1680    3.1800 h1        1 MTZ      0.105500
     29 H151        0.0780    1.8510    2.1450 h1        1 MTZ      0.093000
     30 H152       -0.1870    2.7720    3.3830 h1        1 MTZ      0.093000
     31 H161       -0.0860    4.5940   -0.0690 h1        1 MTZ      0.093000
     32 H162        0.1570    2.9860   -0.0880 h1        1 MTZ      0.093000
     33 H171        2.1990    3.9840   -0.2690 h1        1 MTZ      0.105500
     34 H172        1.9340    4.9450    0.9900 h1        1 MTZ      0.105500
     35 H12         2.3930    2.5330   -1.0930 ha        1 MTZ      0.130000
     36 H13         2.5490    0.4390   -2.1420 ha        1 MTZ      0.141000
     37 H10         2.4640    0.6580    2.5110 ha        1 MTZ      0.139000
     38 H9          2.6190   -1.4220    1.4450 ha        1 MTZ      0.146000
     39 H6          0.6080   -5.5200   -2.6790 ha        1 MTZ      0.164000
     40 H7C1       -1.3180   -4.0900   -2.7830 ha        1 MTZ      0.135000
     41 H7C2       -1.2890   -4.6960   -1.2390 ha        1 MTZ      0.135000
     42 H2C1       -3.1820   -3.8640    0.7900 ha        1 MTZ      0.096667
     43 H2C2       -2.1470   -2.8800    1.5450 ha        1 MTZ      0.096667
     44 H2C3       -3.7390   -2.6980    1.7520 ha        1 MTZ      0.096667
     45 HN1        -4.3030    1.2420   -2.7460 hn        1 MTZ      0.198500
     46 HN2        -5.5720    0.6800   -2.0180 hn        1 MTZ      0.198500
@<TRIPOS>BOND
     1    1    2 1   
     2    1    6 1   
     3    1   27 1   
     4    1   28 1   
     5    2    3 1   
     6    2   29 1   
     7    2   30 1   
     8    3    4 1   
     9    4    5 1   
    10    4   31 1   
    11    4   32 1   
    12    5    6 1   
    13    5   33 1   
    14    5   34 1   
    15    6    7 1   
    16    7    8 1   
    17    7   10 1   
    18    8    9 1   
    19    8   35 1   
    20    9   36 1   
    21   10   37 1   
    22   11   12 1   
    23   11   38 1   
    24   12   13 1   
    25   13   14 1   
    26   14   16 1   
    27   15   19 1   
    28   16   17 1   
    29   17   39 1   
    30   18   19 1   
    31   18   40 1   
    32   18   41 1   
    33   19   20 1   
    34   20   21 1   
    35   20   22 1   
    36   21   25 1   
    37   22   24 1   
    38   23   42 1   
    39   23   43 1   
    40   23   44 1   
    41   24   25 1   
    42   26   45 1   
    43   26   46 1   
@<TRIPOS>SUBSTRUCTURE
     1 MTZ         1 TEMP              0 ****  ****    0 ROOT
