@<TRIPOS>MOLECULE
MTZ
   47    50     1     0     0
SMALL
bcc


@<TRIPOS>ATOM
      1 C14         0.1390    0.0490   -0.2730 c3        1 MTZ      0.161800
      2 C15         1.6410   -0.0870   -0.5490 c3        1 MTZ      0.118400
      3 O           2.4060   -0.0740    0.6480 os        1 MTZ     -0.399600
      4 C16         2.0250   -1.1330    1.5130 c3        1 MTZ      0.118400
      5 C17         0.5440   -1.0520    1.9020 c3        1 MTZ      0.161800
      6 N5         -0.3550   -0.8110    0.7880 nh        1 MTZ     -0.637000
      7 C11        -1.7240   -0.7820    1.0580 ca        1 MTZ      0.223600
      8 C12        -2.6580   -0.2680    0.1160 ca        1 MTZ     -0.218000
      9 C13        -4.0180   -0.3400    0.3370 ca        1 MTZ     -0.034500
     10 C10        -2.2590   -1.3260    2.2570 ca        1 MTZ     -0.218000
     11 C9         -3.6230   -1.4060    2.4720 ca        1 MTZ     -0.034500
     12 C8         -4.5540   -0.9310    1.5180 ca        1 MTZ      0.037400
     13 N4         -5.9360   -0.9240    1.6090 ne        1 MTZ     -0.452100
     14 C5         -6.6920   -1.5960    2.4480 cf        1 MTZ      0.708300
     15 N2         -8.1070   -1.3480    2.2900 nf        1 MTZ     -0.558000
     16 N3         -6.2270   -2.5150    3.4620 nf        1 MTZ     -0.648000
     17 C6         -7.0880   -3.1830    4.1430 c2        1 MTZ      0.437200
     18 C7         -8.5800   -3.1100    3.9940 c3        1 MTZ     -0.269000
     19 C4         -8.9520   -2.0340    3.0010 ce        1 MTZ      0.432900
     20 C3        -10.3820   -1.7890    2.8900 cc        1 MTZ     -0.193300
     21 S         -11.4460   -2.4000    4.0210 ss        1 MTZ      0.112700
     22 C1        -11.0670   -1.0430    1.8950 cd        1 MTZ      0.422600
     23 C2        -10.4240   -0.3640    0.7440 c3        1 MTZ     -0.141400
     24 N1        -12.4260   -0.9920    2.0830 nd        1 MTZ     -0.586000
     25 C         -12.7570   -1.6890    3.2040 cc        1 MTZ      0.284300
     26 N         -14.1430   -1.7810    3.6250 n4        1 MTZ     -0.766300
     27 H141       -0.0880    1.1290   -0.0330 h1        1 MTZ      0.054200
     28 H142       -0.3970   -0.2240   -1.2270 h1        1 MTZ      0.054200
     29 H151        1.8520   -1.0280   -1.1230 h1        1 MTZ      0.063950
     30 H152        2.0010    0.8060   -1.1250 h1        1 MTZ      0.063950
     31 H161        2.6630   -0.9970    2.4250 h1        1 MTZ      0.063950
     32 H162        2.2510   -2.1190    1.0270 h1        1 MTZ      0.063950
     33 H171        0.4190   -0.2460    2.6820 h1        1 MTZ      0.054200
     34 H172        0.2710   -2.0420    2.3680 h1        1 MTZ      0.054200
     35 H12        -2.3140    0.2030   -0.8180 ha        1 MTZ      0.143000
     36 H13        -4.7020    0.0690   -0.4270 ha        1 MTZ      0.153000
     37 H10        -1.5950   -1.6980    3.0510 ha        1 MTZ      0.143000
     38 H9         -3.9610   -1.8310    3.4310 ha        1 MTZ      0.153000
     39 H6         -6.7070   -3.8860    4.9110 h4        1 MTZ      0.043800
     40 H7C1       -9.0450   -2.8950    4.9940 hc        1 MTZ      0.079700
     41 H7C2       -8.9570   -4.1060    3.6350 hc        1 MTZ      0.079700
     42 H2C1       -9.7870   -1.0950    0.1830 hc        1 MTZ      0.086033
     43 H2C2      -11.1780    0.0690    0.0410 hc        1 MTZ      0.086033
     44 H2C3       -9.7650    0.4630    1.1180 hc        1 MTZ      0.086033
     45 HN1       -14.7200   -2.1460    2.8530 hn        1 MTZ      0.470133
     46 HN2       -14.4910   -0.8450    3.8780 hn        1 MTZ      0.470133
     47 HN3       -14.2160   -2.4050    4.4330 hn        1 MTZ      0.470133
@<TRIPOS>BOND
     1    1    2 1   
     2    1    6 1   
     3    1   27 1   
     4    1   28 1   
     5    2    3 1   
     6    2   29 1   
     7    2   30 1   
     8    3    4 1   
     9    4    5 1   
    10    4   31 1   
    11    4   32 1   
    12    5    6 1   
    13    5   33 1   
    14    5   34 1   
    15    6    7 1   
    16    7    8 ar  
    17    7   10 ar  
    18    8    9 ar  
    19    8   35 1   
    20    9   12 ar  
    21    9   36 1   
    22   10   11 ar  
    23   10   37 1   
    24   11   12 ar  
    25   11   38 1   
    26   12   13 1   
    27   13   14 2   
    28   14   15 1   
    29   14   16 1   
    30   15   19 2   
    31   16   17 2   
    32   17   18 1   
    33   17   39 1   
    34   18   19 1   
    35   18   40 1   
    36   18   41 1   
    37   19   20 1   
    38   20   21 1   
    39   20   22 2   
    40   21   25 1   
    41   22   23 1   
    42   22   24 1   
    43   23   42 1   
    44   23   43 1   
    45   23   44 1   
    46   24   25 2   
    47   25   26 1   
    48   26   45 1   
    49   26   46 1   
    50   26   47 1   
@<TRIPOS>SUBSTRUCTURE
     1 MTZ         1 TEMP              0 ****  ****    0 ROOT
