@<TRIPOS>MOLECULE
MTZ
   46    49     1     0     0
SMALL
bcc


@<TRIPOS>ATOM
      1 C14         0.2100    0.0480   -0.1560 c3        1 MTZ      0.148800
      2 C15         1.7000   -0.2000   -0.4250 c3        1 MTZ      0.123900
      3 O           2.4490   -0.2740    0.7830 os        1 MTZ     -0.414600
      4 C16         1.9440   -1.2690    1.6650 c3        1 MTZ      0.123900
      5 C17         0.4610   -1.0430    1.9880 c3        1 MTZ      0.148800
      6 N5         -0.3440   -0.9200    0.7820 nh        1 MTZ     -0.630000
      7 C11        -1.7480   -0.8440    0.9700 ca        1 MTZ      0.132600
      8 C12        -2.6070   -0.9390   -0.1510 ca        1 MTZ     -0.168000
      9 C13        -3.9840   -0.9480   -0.0010 ca        1 MTZ     -0.090500
     10 C10        -2.3450   -0.7570    2.2450 ca        1 MTZ     -0.168000
     11 C9         -3.7260   -0.7850    2.3970 ca        1 MTZ     -0.090500
     12 C8         -4.5800   -0.8780    1.2800 ca        1 MTZ      0.110400
     13 N4         -5.9830   -0.7930    1.3460 ne        1 MTZ     -0.515100
     14 C5         -6.7120   -1.4730    2.1970 cf        1 MTZ      0.785300
     15 N2         -8.1370   -1.2260    2.1410 nf        1 MTZ     -0.646000
     16 N3         -6.1660   -2.4280    3.1470 nf        1 MTZ     -0.682000
     17 C6         -6.9820   -3.1410    3.8390 c2        1 MTZ      0.451200
     18 C7         -8.4760   -3.0790    3.7770 c3        1 MTZ     -0.289000
     19 C4         -8.9330   -1.9620    2.8640 ce        1 MTZ      0.539900
     20 C3        -10.3680   -1.7650    2.8550 cc        1 MTZ     -0.301300
     21 S         -11.3820   -2.7480    3.8000 ss        1 MTZ     -0.165300
     22 C1        -11.1200   -0.8250    2.1400 cd        1 MTZ      0.472600
     23 C2        -10.5570    0.1970    1.2260 c3        1 MTZ     -0.137400
     24 N1        -12.4930   -0.9100    2.3310 nd        1 MTZ     -0.713000
     25 C         -12.7830   -1.8980    3.2060 cc        1 MTZ      0.656300
     26 N         -14.0430   -2.1790    3.7110 nv        1 MTZ     -0.899500
     27 H141       -0.3440   -0.0340   -1.1310 h1        1 MTZ      0.047700
     28 H142        0.0870    1.1020    0.2290 h1        1 MTZ      0.047700
     29 H151        1.8460   -1.1420   -1.0150 h1        1 MTZ      0.055200
     30 H152        2.1400    0.6740   -0.9740 h1        1 MTZ      0.055200
     31 H161        2.1020   -2.2850    1.2160 h1        1 MTZ      0.055200
     32 H162        2.5590   -1.1570    2.5950 h1        1 MTZ      0.055200
     33 H171        0.0850   -1.9270    2.5740 h1        1 MTZ      0.047700
     34 H172        0.3780   -0.1230    2.6380 h1        1 MTZ      0.047700
     35 H12        -2.1880   -1.0210   -1.1660 ha        1 MTZ      0.134500
     36 H13        -4.6200   -1.0180   -0.8990 ha        1 MTZ      0.143000
     37 H10        -1.7270   -0.6690    3.1520 ha        1 MTZ      0.134500
     38 H9         -4.1460   -0.7120    3.4130 ha        1 MTZ      0.143000
     39 H6         -6.5500   -3.8730    4.5510 h4        1 MTZ      0.029800
     40 H7C1       -8.8880   -2.9150    4.8100 hc        1 MTZ      0.093700
     41 H7C2       -8.8740   -4.0590    3.3970 hc        1 MTZ      0.093700
     42 H2C1       -9.8430    0.8510    1.7890 hc        1 MTZ      0.069367
     43 H2C2       -9.9930   -0.3080    0.4000 hc        1 MTZ      0.069367
     44 H2C3      -11.3530    0.8400    0.7760 hc        1 MTZ      0.069367
     45 HN1       -14.2260   -3.1520    3.8280 hn        1 MTZ      0.412300
     46 HN2       -14.7980   -1.6750    3.2930 hn        1 MTZ      0.412300
@<TRIPOS>BOND
     1    1    2 1   
     2    1    6 1   
     3    1   27 1   
     4    1   28 1   
     5    2    3 1   
     6    2   29 1   
     7    2   30 1   
     8    3    4 1   
     9    4    5 1   
    10    4   31 1   
    11    4   32 1   
    12    5    6 1   
    13    5   33 1   
    14    5   34 1   
    15    6    7 1   
    16    7    8 ar  
    17    7   10 ar  
    18    8    9 ar  
    19    8   35 1   
    20    9   12 ar  
    21    9   36 1   
    22   10   11 ar  
    23   10   37 1   
    24   11   12 ar  
    25   11   38 1   
    26   12   13 1   
    27   13   14 2   
    28   14   15 1   
    29   14   16 1   
    30   15   19 2   
    31   16   17 2   
    32   17   18 1   
    33   17   39 1   
    34   18   19 1   
    35   18   40 1   
    36   18   41 1   
    37   19   20 1   
    38   20   21 1   
    39   20   22 2   
    40   21   25 1   
    41   22   23 1   
    42   22   24 1   
    43   23   42 1   
    44   23   43 1   
    45   23   44 1   
    46   24   25 2   
    47   25   26 1   
    48   26   45 1   
    49   26   46 1   
@<TRIPOS>SUBSTRUCTURE
     1 MTZ         1 TEMP              0 ****  ****    0 ROOT
