@<TRIPOS>MOLECULE
MTZ
   46    49     1     0     0
SMALL
bcc


@<TRIPOS>ATOM
      1 C14         0.2120    0.0430   -0.1540 c3        1 MTZ      0.148800
      2 C15         1.7010   -0.2070   -0.4260 c3        1 MTZ      0.123900
      3 O           2.4510   -0.2910    0.7800 os        1 MTZ     -0.414600
      4 C16         1.9440   -1.2910    1.6560 c3        1 MTZ      0.123900
      5 C17         0.4620   -1.0620    1.9830 c3        1 MTZ      0.148800
      6 N5         -0.3440   -0.9290    0.7790 nh        1 MTZ     -0.630000
      7 C11        -1.7480   -0.8490    0.9690 ca        1 MTZ      0.132600
      8 C12        -2.6080   -0.9340   -0.1520 ca        1 MTZ     -0.168000
      9 C13        -3.9850   -0.9390   -0.0000 ca        1 MTZ     -0.090500
     10 C10        -2.3430   -0.7690    2.2450 ca        1 MTZ     -0.168000
     11 C9         -3.7240   -0.7930    2.3990 ca        1 MTZ     -0.090500
     12 C8         -4.5790   -0.8760    1.2820 ca        1 MTZ      0.110400
     13 N4         -5.9820   -0.7860    1.3510 ne        1 MTZ     -0.515100
     14 C5         -6.7120   -1.4700    2.1970 cf        1 MTZ      0.785300
     15 N2         -8.1370   -1.2180    2.1450 nf        1 MTZ     -0.646000
     16 N3         -6.1690   -2.4340    3.1410 nf        1 MTZ     -0.682000
     17 C6         -6.9860   -3.1500    3.8270 c2        1 MTZ      0.451200
     18 C7         -8.4800   -3.0830    3.7670 c3        1 MTZ     -0.289000
     19 C4         -8.9340   -1.9570    2.8630 ce        1 MTZ      0.539900
     20 C3        -10.3680   -1.7550    2.8580 cc        1 MTZ     -0.301300
     21 S         -11.3850   -2.7440    3.7930 ss        1 MTZ     -0.165300
     22 C1        -11.1180   -0.8050    2.1520 cd        1 MTZ      0.472600
     23 C2        -10.5520    0.2240    1.2480 c3        1 MTZ     -0.137400
     24 N1        -12.4910   -0.8880    2.3430 nd        1 MTZ     -0.713000
     25 C         -12.7840   -1.8840    3.2080 cc        1 MTZ      0.656300
     26 N         -14.0450   -2.1660    3.7120 nh        1 MTZ     -0.899500
     27 H141        0.0930    1.0950    0.2380 h1        1 MTZ      0.047700
     28 H142       -0.3440   -0.0310   -1.1290 h1        1 MTZ      0.047700
     29 H151        1.8430   -1.1470   -1.0230 h1        1 MTZ      0.055200
     30 H152        2.1430    0.6680   -0.9710 h1        1 MTZ      0.055200
     31 H161        2.0980   -2.3040    1.2000 h1        1 MTZ      0.055200
     32 H162        2.5610   -1.1870    2.5870 h1        1 MTZ      0.055200
     33 H171        0.0840   -1.9490    2.5630 h1        1 MTZ      0.047700
     34 H172        0.3830   -0.1460    2.6380 h1        1 MTZ      0.047700
     35 H12        -2.1910   -1.0110   -1.1680 ha        1 MTZ      0.134500
     36 H13        -4.6220   -1.0020   -0.8980 ha        1 MTZ      0.143000
     37 H10        -1.7240   -0.6890    3.1520 ha        1 MTZ      0.134500
     38 H9         -4.1420   -0.7260    3.4150 ha        1 MTZ      0.143000
     39 H6         -6.5560   -3.8880    4.5330 h4        1 MTZ      0.029800
     40 H7C1       -8.8810   -4.0590    3.3780 hc        1 MTZ      0.093700
     41 H7C2       -8.8910   -2.9260    4.8020 hc        1 MTZ      0.093700
     42 H2C1       -9.8350    0.8690    1.8170 hc        1 MTZ      0.069367
     43 H2C2       -9.9920   -0.2750    0.4160 hc        1 MTZ      0.069367
     44 H2C3      -11.3470    0.8740    0.8060 hc        1 MTZ      0.069367
     45 HN1       -14.7980   -1.6560    3.2990 hn        1 MTZ      0.412300
     46 HN2       -14.2310   -3.1390    3.8190 hn        1 MTZ      0.412300
@<TRIPOS>BOND
     1    1    2 1   
     2    1    6 1   
     3    1   27 1   
     4    1   28 1   
     5    2    3 1   
     6    2   29 1   
     7    2   30 1   
     8    3    4 1   
     9    4    5 1   
    10    4   31 1   
    11    4   32 1   
    12    5    6 1   
    13    5   33 1   
    14    5   34 1   
    15    6    7 1   
    16    7    8 ar  
    17    7   10 ar  
    18    8    9 ar  
    19    8   35 1   
    20    9   12 ar  
    21    9   36 1   
    22   10   11 ar  
    23   10   37 1   
    24   11   12 ar  
    25   11   38 1   
    26   12   13 1   
    27   13   14 2   
    28   14   15 1   
    29   14   16 1   
    30   15   19 2   
    31   16   17 2   
    32   17   18 1   
    33   17   39 1   
    34   18   19 1   
    35   18   40 1   
    36   18   41 1   
    37   19   20 1   
    38   20   21 1   
    39   20   22 2   
    40   21   25 1   
    41   22   23 1   
    42   22   24 1   
    43   23   42 1   
    44   23   43 1   
    45   23   44 1   
    46   24   25 2   
    47   25   26 1   
    48   26   45 1   
    49   26   46 1   
@<TRIPOS>SUBSTRUCTURE
     1 MTZ         1 TEMP              0 ****  ****    0 ROOT
