@<TRIPOS>MOLECULE
MU2
   69    69     1     0     0
SMALL
bcc


@<TRIPOS>ATOM
      1 C1          0.2260    0.2440    0.2230 c3        1 MU2      0.331900
      2 O1         -0.4940   -0.9560    0.3380 oh        1 MU2     -0.657800
      3 C2          1.4960   -0.0770   -0.6240 c3        1 MU2      0.083500
      4 N2          1.1170   -0.6030   -1.9720 n4        1 MU2     -0.688800
      5 C7          0.7750    0.5040   -2.9840 c         1 MU2      0.562100
      6 O7          1.5350    1.4540   -2.9880 o         1 MU2     -0.386100
      7 C8         -0.4260    0.2390   -3.8200 c3        1 MU2     -0.191100
      8 C3          2.3880   -1.0710    0.1680 c3        1 MU2      0.113100
      9 O3          3.5860   -1.2170   -0.5980 os        1 MU2     -0.455600
     10 C4          2.7030   -0.4180    1.5340 c3        1 MU2      0.113100
     11 O4          3.5730   -1.2980    2.2210 oh        1 MU2     -0.671800
     12 C5          1.3850   -0.1640    2.2840 c3        1 MU2      0.072100
     13 O5          0.5480    0.6960    1.5100 os        1 MU2     -0.393600
     14 C6          1.6140    0.5870    3.6110 c3        1 MU2      0.131400
     15 O6          2.1820   -0.3180    4.5310 oh        1 MU2     -0.619800
     16 C18         4.2230   -2.4880   -0.6760 c3        1 MU2      0.110100
     17 C20         3.6740   -3.6180    0.1630 c3        1 MU2     -0.163100
     18 C19         5.7090   -2.2840   -0.3380 c         1 MU2      0.555100
     19 O18         6.6460   -2.6390   -1.0340 o         1 MU2     -0.425100
     20 N4          6.0130   -1.6220    0.9740 n4        1 MU2     -0.665800
     21 C21         7.4510   -1.2060    1.1560 c3        1 MU2      0.060500
     22 C23         7.5760    0.0470    2.0100 c3        1 MU2     -0.131100
     23 C22         8.1980   -2.3720    1.8520 c         1 MU2      0.621100
     24 O19         8.1170   -2.5000    3.0800 o         1 MU2     -0.501100
     25 N5          8.9410   -3.2500    1.0510 n         1 MU2     -0.509900
     26 C24         8.9400   -4.6430    1.4740 c3        1 MU2     -0.011300
     27 C25         9.9400   -5.5000    0.6880 c3        1 MU2     -0.086400
     28 C26        11.3680   -5.2200    1.1320 c3        1 MU2     -0.150400
     29 C27        12.3240   -6.0570    0.3300 c         1 MU2      0.537100
     30 N20        13.7620   -6.0790    0.8030 n4        1 MU2     -0.761400
     31 O21        12.0990   -6.7200   -0.6670 o         1 MU2     -0.367100
     32 C28         7.5230   -5.2340    1.3720 c         1 MU2      0.632100
     33 O22         6.5290   -4.5710    1.0370 o         1 MU2     -0.582000
     34 O23         7.2490   -6.5130    1.6940 oh        1 MU2     -0.514100
     35 H1         -0.3800    1.0830   -0.2310 h2        1 MU2      0.122700
     36 HA         -1.2760   -0.7970    0.8930 ho        1 MU2      0.477000
     37 H2          2.0740    0.8870   -0.7770 hx        1 MU2      0.150700
     38 HB          0.3120   -1.2360   -1.8690 hn        1 MU2      0.467300
     39 H8C1       -1.3480    0.1550   -3.1880 hc        1 MU2      0.128367
     40 H8C2       -0.5590    1.1000   -4.5320 hc        1 MU2      0.128367
     41 H8C3       -0.3030   -0.7010   -4.4180 hc        1 MU2      0.128367
     42 H3          1.8530   -2.0470    0.3190 h1        1 MU2      0.109700
     43 H4          3.2530    0.5520    1.3720 h1        1 MU2      0.077700
     44 HC          3.3220   -1.3310    3.1610 ho        1 MU2      0.484000
     45 H5          0.8600   -1.1420    2.4700 h1        1 MU2      0.084700
     46 H6C1        2.3650    1.4100    3.4670 h1        1 MU2      0.088700
     47 H6C2        0.6450    1.0240    3.9680 h1        1 MU2      0.088700
     48 H6          1.4970   -0.5930    5.1560 ho        1 MU2      0.445000
     49 H18         4.2040   -2.7590   -1.7790 h1        1 MU2      0.119700
     50 H201        2.7030   -3.9780   -0.2600 hc        1 MU2      0.096367
     51 H202        4.3910   -4.4820    0.1520 hc        1 MU2      0.096367
     52 H203        3.5180   -3.3040    1.2250 hc        1 MU2      0.096367
     53 HD          5.7370   -2.2840    1.7220 hn        1 MU2      0.489300
     54 H21         7.8780   -0.9980    0.1280 hx        1 MU2      0.127700
     55 H231        7.0240    0.9050    1.5550 hc        1 MU2      0.094700
     56 H232        8.6610    0.3220    2.0700 hc        1 MU2      0.094700
     57 H233        7.2100   -0.1300    3.0530 hc        1 MU2      0.094700
     58 HE          8.8330   -3.1260    0.0620 hn        1 MU2      0.316500
     59 H24         9.2110   -4.6630    2.5780 h1        1 MU2      0.129700
     60 H251        9.8430   -5.3170   -0.4170 hc        1 MU2      0.092700
     61 H252        9.7030   -6.5850    0.8580 hc        1 MU2      0.092700
     62 H261       11.4840   -5.4400    2.2290 hc        1 MU2      0.116700
     63 H262       11.6180   -4.1330    0.9710 hc        1 MU2      0.116700
     64 HA1        14.1400   -5.1260    0.8480 hn        1 MU2      0.482133
     65 HB2        14.3380   -6.6350    0.1510 hn        1 MU2      0.482133
     66 H22         1.9150   -1.1340   -2.3410 hn        1 MU2      0.467300
     67 H42         5.3990   -0.7950    1.0700 hn        1 MU2      0.489300
     68 H52         8.0310   -6.9660    2.0470 ho        1 MU2      0.453000
     69 H204       13.8240   -6.5030    1.7360 hn        1 MU2      0.482133
@<TRIPOS>BOND
     1    1    2 1   
     2    1    3 1   
     3    1   13 1   
     4    1   35 1   
     5    2   36 1   
     6    3    4 1   
     7    3    8 1   
     8    3   37 1   
     9    4    5 1   
    10    4   38 1   
    11    4   66 1   
    12    5    6 2   
    13    5    7 1   
    14    7   39 1   
    15    7   40 1   
    16    7   41 1   
    17    8    9 1   
    18    8   10 1   
    19    8   42 1   
    20    9   16 1   
    21   10   11 1   
    22   10   12 1   
    23   10   43 1   
    24   11   44 1   
    25   12   13 1   
    26   12   14 1   
    27   12   45 1   
    28   14   15 1   
    29   14   46 1   
    30   14   47 1   
    31   15   48 1   
    32   16   17 1   
    33   16   18 1   
    34   16   49 1   
    35   17   50 1   
    36   17   51 1   
    37   17   52 1   
    38   18   19 2   
    39   18   20 1   
    40   20   21 1   
    41   20   53 1   
    42   20   67 1   
    43   21   22 1   
    44   21   23 1   
    45   21   54 1   
    46   22   55 1   
    47   22   56 1   
    48   22   57 1   
    49   23   24 2   
    50   23   25 1   
    51   25   26 1   
    52   25   58 1   
    53   26   27 1   
    54   26   32 1   
    55   26   59 1   
    56   27   28 1   
    57   27   60 1   
    58   27   61 1   
    59   28   29 1   
    60   28   62 1   
    61   28   63 1   
    62   29   30 1   
    63   29   31 2   
    64   30   64 1   
    65   30   65 1   
    66   30   69 1   
    67   32   33 2   
    68   32   34 1   
    69   34   68 1   
@<TRIPOS>SUBSTRUCTURE
     1 MU2         1 TEMP              0 ****  ****    0 ROOT
