@<TRIPOS>MOLECULE
MU2
   65    65     1     0     0
SMALL
bcc


@<TRIPOS>ATOM
      1 C1         -3.5070   -1.9260    1.0100 c3        1 MU2      0.301900
      2 O1         -3.6090   -1.4000    2.3100 oh        1 MU2     -0.613800
      3 C2         -2.4540   -1.1150    0.1950 c3        1 MU2      0.103700
      4 N2         -1.1210   -1.2600    0.7080 n         1 MU2     -0.558900
      5 C7         -0.5130   -2.4960    0.7760 c         1 MU2      0.668100
      6 O7         -1.1220   -3.5340    0.4230 o         1 MU2     -0.678100
      7 C8          0.8970   -2.5520    1.2980 c3        1 MU2     -0.177100
      8 C3         -2.9550    0.3460    0.1280 c3        1 MU2      0.096100
      9 O3         -2.1280    1.1300   -0.7290 os        1 MU2     -0.403600
     10 C4         -4.3520    0.3380   -0.5300 c3        1 MU2      0.113100
     11 O4         -4.8810    1.6520   -0.5950 oh        1 MU2     -0.609800
     12 C5         -5.3140   -0.5040    0.3160 c3        1 MU2      0.107100
     13 O5         -4.8120   -1.8330    0.4610 os        1 MU2     -0.466600
     14 C6         -6.6720   -0.6420   -0.3740 c3        1 MU2      0.139400
     15 O6         -7.5870   -1.3690    0.4210 oh        1 MU2     -0.607800
     16 C18        -1.4030    2.1590   -0.0450 c3        1 MU2      0.061100
     17 C20        -2.3070    3.3180    0.3310 c3        1 MU2     -0.130100
     18 C19        -0.3550    2.6580   -1.0540 c         1 MU2      0.662100
     19 O18        -0.5830    2.7140   -2.2770 o         1 MU2     -0.606100
     20 N4          0.8140    3.1430   -0.4880 n         1 MU2     -0.543900
     21 C21         1.9830    3.4110   -1.3040 c3        1 MU2      0.007700
     22 C23         2.3370    4.8950   -1.3570 c3        1 MU2     -0.084100
     23 C22         3.2000    2.6210   -0.7500 c         1 MU2      0.620100
     24 O19         4.2410    3.2120   -0.4120 o         1 MU2     -0.594100
     25 N5          3.0730    1.2330   -0.6950 n         1 MU2     -0.502900
     26 C24         3.4810    0.5570    0.5300 c3        1 MU2     -0.053300
     27 C25         4.1470   -0.7970    0.2550 c3        1 MU2     -0.075400
     28 C26         5.5160   -0.6360   -0.3610 c3        1 MU2     -0.147400
     29 C27         6.2370   -1.9250   -0.6930 c         1 MU2      0.658100
     30 N20         5.7980   -3.1200   -0.1770 n         1 MU2     -0.679000
     31 O21         7.2540   -1.9240   -1.4230 o         1 MU2     -0.650100
     32 C28         2.2790    0.3170    1.5060 c         1 MU2      0.898600
     33 O22         2.5070   -0.3220    2.5640 o         1 MU2     -0.847300
     34 O23         1.1320    0.7680    1.1920 o         1 MU2     -0.847300
     35 H1         -3.2680   -3.0280    0.9920 h2        1 MU2      0.112700
     36 HA         -4.1350   -2.0190    2.8290 ho        1 MU2      0.407000
     37 H2         -2.4850   -1.5540   -0.8500 h1        1 MU2      0.073700
     38 HB         -0.6080   -0.4440    0.9830 hn        1 MU2      0.370500
     39 H8C1        0.9920   -2.0140    2.2790 hc        1 MU2      0.077367
     40 H8C2        1.1980   -3.6190    1.4190 hc        1 MU2      0.077367
     41 H8C3        1.5910   -2.0420    0.5830 hc        1 MU2      0.077367
     42 H3         -3.0190    0.7750    1.1650 h1        1 MU2      0.083700
     43 H4         -4.2700   -0.0850   -1.5710 h1        1 MU2      0.058700
     44 HC         -4.2090    2.1880   -1.0420 ho        1 MU2      0.425000
     45 H5         -5.4340   -0.0430    1.3350 h1        1 MU2      0.072700
     46 H6C1       -7.1260    0.3760   -0.5040 h1        1 MU2      0.056200
     47 H6C2       -6.5480   -1.1430   -1.3700 h1        1 MU2      0.056200
     48 H6         -7.1630   -2.2100    0.6360 ho        1 MU2      0.410000
     49 H18        -0.9040    1.7200    0.8680 h1        1 MU2      0.111700
     50 H201       -3.1690    2.9560    0.9430 hc        1 MU2      0.049700
     51 H202       -1.7290    4.0670    0.9220 hc        1 MU2      0.049700
     52 H203       -2.7090    3.8130   -0.5870 hc        1 MU2      0.049700
     53 HD          1.0100    2.8210    0.4440 hn        1 MU2      0.342500
     54 H21         1.7830    3.0620   -2.3640 h1        1 MU2      0.086700
     55 H231        3.2470    5.0220   -1.9910 hc        1 MU2      0.043367
     56 H232        1.4950    5.4810   -1.7950 hc        1 MU2      0.043367
     57 H233        2.5650    5.2870   -0.3370 hc        1 MU2      0.043367
     58 HE          2.1780    0.8960   -1.0000 hn        1 MU2      0.290500
     59 H24         4.2230    1.2120    1.0740 h1        1 MU2      0.078700
     60 H251        4.2160   -1.3140    1.2510 hc        1 MU2      0.054700
     61 H252        3.4940   -1.4170   -0.4140 hc        1 MU2      0.054700
     62 H261        5.4440   -0.0470   -1.3150 hc        1 MU2      0.081700
     63 H262        6.1820   -0.0590    0.3360 hc        1 MU2      0.081700
     64 HA1         4.9860   -3.1710    0.3820 hn        1 MU2      0.308000
     65 HB2         6.2700   -3.9550   -0.4120 hn        1 MU2      0.308000
@<TRIPOS>BOND
     1    1    2 1   
     2    1    3 1   
     3    1   13 1   
     4    1   35 1   
     5    2   36 1   
     6    3    4 1   
     7    3    8 1   
     8    3   37 1   
     9    4    5 1   
    10    4   38 1   
    11    5    6 2   
    12    5    7 1   
    13    7   39 1   
    14    7   40 1   
    15    7   41 1   
    16    8    9 1   
    17    8   10 1   
    18    8   42 1   
    19    9   16 1   
    20   10   11 1   
    21   10   12 1   
    22   10   43 1   
    23   11   44 1   
    24   12   13 1   
    25   12   14 1   
    26   12   45 1   
    27   14   15 1   
    28   14   46 1   
    29   14   47 1   
    30   15   48 1   
    31   16   17 1   
    32   16   18 1   
    33   16   49 1   
    34   17   50 1   
    35   17   51 1   
    36   17   52 1   
    37   18   19 2   
    38   18   20 1   
    39   20   21 1   
    40   20   53 1   
    41   21   22 1   
    42   21   23 1   
    43   21   54 1   
    44   22   55 1   
    45   22   56 1   
    46   22   57 1   
    47   23   24 2   
    48   23   25 1   
    49   25   26 1   
    50   25   58 1   
    51   26   27 1   
    52   26   32 1   
    53   26   59 1   
    54   27   28 1   
    55   27   60 1   
    56   27   61 1   
    57   28   29 1   
    58   28   62 1   
    59   28   63 1   
    60   29   30 1   
    61   29   31 2   
    62   30   64 1   
    63   30   65 1   
    64   32   33 1   
    65   32   34 1   
@<TRIPOS>SUBSTRUCTURE
     1 MU2         1 TEMP              0 ****  ****    0 ROOT
