@<TRIPOS>MOLECULE
MU2
   69    69     1     0     0
SMALL
bcc


@<TRIPOS>ATOM
      1 C1          0.2120    0.2160    0.2170 c3        1 MU2      0.331900
      2 O1         -0.5010   -0.9880    0.3300 oh        1 MU2     -0.657800
      3 C2          1.4850   -0.0970   -0.6280 c3        1 MU2      0.083500
      4 N2          1.1120   -0.6240   -1.9770 ny        1 MU2     -0.688800
      5 C7          0.7650    0.4820   -2.9890 c         1 MU2      0.562100
      6 O7          1.5190    1.4360   -2.9910 o         1 MU2     -0.386100
      7 C8         -0.4320    0.2090   -3.8270 c3        1 MU2     -0.191100
      8 C3          2.3820   -1.0870    0.1650 c3        1 MU2      0.113100
      9 O3          3.5820   -1.2250   -0.5990 os        1 MU2     -0.455600
     10 C4          2.6900   -0.4330    1.5320 c3        1 MU2      0.113100
     11 O4          3.5640   -1.3090    2.2200 oh        1 MU2     -0.671800
     12 C5          1.3700   -0.1870    2.2800 c3        1 MU2      0.072100
     13 O5          0.5300    0.6690    1.5050 os        1 MU2     -0.393600
     14 C6          1.5920    0.5650    3.6070 c3        1 MU2      0.131400
     15 O6          2.1630   -0.3380    4.5290 oh        1 MU2     -0.619800
     16 C18         4.2270   -2.4930   -0.6770 c3        1 MU2      0.110100
     17 C20         3.6830   -3.6260    0.1600 c3        1 MU2     -0.163100
     18 C19         5.7100   -2.2790   -0.3360 c         1 MU2      0.555100
     19 O18         6.6520   -2.6280   -1.0320 o         1 MU2     -0.425100
     20 N4          6.0080   -1.6190    0.9770 ny        1 MU2     -0.665800
     21 C21         7.4440   -1.1940    1.1630 c3        1 MU2      0.060500
     22 C23         7.5600    0.0580    2.0190 c3        1 MU2     -0.131100
     23 C22         8.1960   -2.3570    1.8580 c         1 MU2      0.621100
     24 O19         8.1130   -2.4880    3.0850 o         1 MU2     -0.501100
     25 N5          8.9460   -3.2280    1.0570 ns        1 MU2     -0.509900
     26 C24         8.9530   -4.6220    1.4770 c3        1 MU2     -0.011300
     27 C25         9.9600   -5.4710    0.6910 c3        1 MU2     -0.086400
     28 C26        11.3850   -5.1840    1.1390 c3        1 MU2     -0.150400
     29 C27        12.3480   -6.0130    0.3360 c         1 MU2      0.537100
     30 N20        13.7850   -6.0280    0.8120 nz        1 MU2     -0.761400
     31 O21        12.1290   -6.6760   -0.6630 o         1 MU2     -0.367100
     32 C28         7.5390   -5.2220    1.3710 c         1 MU2      0.632100
     33 O22         6.5430   -4.5640    1.0360 o         1 MU2     -0.582000
     34 O23         7.2720   -6.5030    1.6900 oh        1 MU2     -0.514100
     35 H1         -0.3980    1.0520   -0.2370 h2        1 MU2      0.122700
     36 HA         -1.2840   -0.8340    0.8830 ho        1 MU2      0.477000
     37 H2          2.0580    0.8700   -0.7790 hx        1 MU2      0.150700
     38 HB          0.3110   -1.2620   -1.8760 hn        1 MU2      0.467300
     39 H8C1       -0.3030   -0.7290   -4.4260 hc        1 MU2      0.128367
     40 H8C2       -1.3550    0.1200   -3.1970 hc        1 MU2      0.128367
     41 H8C3       -0.5690    1.0710   -4.5400 hc        1 MU2      0.128367
     42 H3          1.8520   -2.0660    0.3150 h1        1 MU2      0.109700
     43 H4          3.2360    0.5410    1.3720 h1        1 MU2      0.077700
     44 HC          3.3120   -1.3440    3.1590 ho        1 MU2      0.484000
     45 H5          0.8500   -1.1680    2.4640 h1        1 MU2      0.084700
     46 H6C1        2.3390    1.3920    3.4660 h1        1 MU2      0.088700
     47 H6C2        0.6210    0.9960    3.9630 h1        1 MU2      0.088700
     48 H6          1.4800   -0.6170    5.1520 ho        1 MU2      0.445000
     49 H18         4.2120   -2.7620   -1.7800 h1        1 MU2      0.119700
     50 H201        2.7150   -3.9910   -0.2650 hc        1 MU2      0.096367
     51 H202        4.4050   -4.4860    0.1490 hc        1 MU2      0.096367
     52 H203        3.5230   -3.3140    1.2220 hc        1 MU2      0.096367
     53 HD          5.3890   -0.7950    1.0740 hn        1 MU2      0.489300
     54 H21         7.8710   -0.9820    0.1360 hx        1 MU2      0.127700
     55 H231        8.6430    0.3390    2.0810 hc        1 MU2      0.094700
     56 H232        7.0040    0.9140    1.5650 hc        1 MU2      0.094700
     57 H233        7.1930   -0.1220    3.0610 hc        1 MU2      0.094700
     58 HE          8.0570   -6.9520    2.0440 ho        1 MU2      0.453000
     59 H24         9.2220   -4.6430    2.5820 h1        1 MU2      0.129700
     60 H251        9.8640   -5.2870   -0.4140 hc        1 MU2      0.092700
     61 H252        9.7290   -6.5580    0.8590 hc        1 MU2      0.092700
     62 H261       11.5000   -5.4060    2.2350 hc        1 MU2      0.116700
     63 H262       11.6290   -4.0950    0.9800 hc        1 MU2      0.116700
     64 HA1        14.3660   -6.5790    0.1600 hn        1 MU2      0.482133
     65 HB2        14.1570   -5.0730    0.8600 hn        1 MU2      0.482133
     66 H22         1.9140   -1.1510   -2.3450 hn        1 MU2      0.467300
     67 H42         5.7350   -2.2830    1.7240 hn        1 MU2      0.489300
     68 H52         8.8390   -3.1030    0.0680 hn        1 MU2      0.316500
     69 H204       13.8480   -6.4540    1.7440 hn        1 MU2      0.482133
@<TRIPOS>BOND
     1    1    2 1   
     2    1    3 1   
     3    1   13 1   
     4    1   35 1   
     5    2   36 1   
     6    3    4 1   
     7    3    8 1   
     8    3   37 1   
     9    4    5 1   
    10    4   38 1   
    11    4   66 1   
    12    5    6 2   
    13    5    7 1   
    14    7   39 1   
    15    7   40 1   
    16    7   41 1   
    17    8    9 1   
    18    8   10 1   
    19    8   42 1   
    20    9   16 1   
    21   10   11 1   
    22   10   12 1   
    23   10   43 1   
    24   11   44 1   
    25   12   13 1   
    26   12   14 1   
    27   12   45 1   
    28   14   15 1   
    29   14   46 1   
    30   14   47 1   
    31   15   48 1   
    32   16   17 1   
    33   16   18 1   
    34   16   49 1   
    35   17   50 1   
    36   17   51 1   
    37   17   52 1   
    38   18   19 2   
    39   18   20 1   
    40   20   21 1   
    41   20   53 1   
    42   20   67 1   
    43   21   22 1   
    44   21   23 1   
    45   21   54 1   
    46   22   55 1   
    47   22   56 1   
    48   22   57 1   
    49   23   24 2   
    50   23   25 1   
    51   25   26 1   
    52   25   68 1   
    53   26   27 1   
    54   26   32 1   
    55   26   59 1   
    56   27   28 1   
    57   27   60 1   
    58   27   61 1   
    59   28   29 1   
    60   28   62 1   
    61   28   63 1   
    62   29   30 1   
    63   29   31 2   
    64   30   64 1   
    65   30   65 1   
    66   30   69 1   
    67   32   33 2   
    68   32   34 1   
    69   34   58 1   
@<TRIPOS>SUBSTRUCTURE
     1 MU2         1 TEMP              0 ****  ****    0 ROOT
