@<TRIPOS>MOLECULE
MU2
   69    69     1     0     0
SMALL
bcc


@<TRIPOS>ATOM
      1 C1          0.2500    0.2940    0.2080 c3        1 MU2      0.331900
      2 O1         -0.4830   -0.8940    0.3590 oh        1 MU2     -0.657800
      3 C2          1.5080   -0.0620   -0.6420 c3        1 MU2      0.083500
      4 N2          1.1110   -0.6160   -1.9740 n4        1 MU2     -0.688800
      5 C7          0.7720    0.4710   -3.0090 c         1 MU2      0.562100
      6 O7          1.5440    1.4110   -3.0430 o         1 MU2     -0.386100
      7 C8         -0.4400    0.2000   -3.8270 c3        1 MU2     -0.191100
      8 C3          2.3950   -1.0480    0.1660 c3        1 MU2      0.113100
      9 O3          3.5840   -1.2260   -0.6070 os        1 MU2     -0.455600
     10 C4          2.7310   -0.3660    1.5120 c3        1 MU2      0.113100
     11 O4          3.5970   -1.2400    2.2130 oh        1 MU2     -0.671800
     12 C5          1.4230   -0.0780    2.2680 c3        1 MU2      0.072100
     13 O5          0.5900    0.7730    1.4810 os        1 MU2     -0.393600
     14 C6          1.6730    0.7010    3.5740 c3        1 MU2      0.131400
     15 O6          2.2380   -0.1890    4.5110 oh        1 MU2     -0.619800
     16 C18         4.2060   -2.5070   -0.6610 c3        1 MU2      0.110100
     17 C20         3.6510   -3.6090    0.2100 c3        1 MU2     -0.163100
     18 C19         5.6970   -2.3120   -0.3410 c         1 MU2      0.554100
     19 O18         6.6240   -2.6980   -1.0350 o         1 MU2     -0.425100
     20 N4          6.0210   -1.6210    0.9500 n4        1 MU2     -0.665800
     21 C21         7.4650   -1.2170    1.1090 c3        1 MU2      0.060500
     22 C23         7.6130    0.0570    1.9270 c3        1 MU2     -0.131100
     23 C22         8.2050   -2.3730    1.8290 c         1 MU2      0.621100
     24 O19         8.1350   -2.4660    3.0610 o         1 MU2     -0.501100
     25 N5          8.9290   -3.2810    1.0460 n         1 MU2     -0.509900
     26 C24         8.9140   -4.6620    1.5070 c3        1 MU2     -0.011300
     27 C25         9.8970   -5.5530    0.7360 c3        1 MU2     -0.086400
     28 C26        11.3320   -5.2790    1.1600 c3        1 MU2     -0.150400
     29 C27        12.2700   -6.1510    0.3730 c         1 MU2      0.537100
     30 N20        13.7120   -6.1770    0.8340 n4        1 MU2     -0.761400
     31 O21        12.0270   -6.8400   -0.6010 o         1 MU2     -0.367100
     32 C28         7.4890   -5.2390    1.4340 c         1 MU2      0.632100
     33 O22         6.5010   -4.5720    1.0900 o         1 MU2     -0.582000
     34 O23         7.2020   -6.5040    1.7940 oh        1 MU2     -0.514100
     35 H1         -0.3510    1.1290   -0.2600 h2        1 MU2      0.122700
     36 HA         -1.2580   -0.7120    0.9160 ho        1 MU2      0.477000
     37 H2          2.0960    0.8900   -0.8240 hx        1 MU2      0.150700
     38 HB          0.2990   -1.2360   -1.8480 hn        1 MU2      0.467300
     39 H8C1       -1.3560    0.1430   -3.1840 hc        1 MU2      0.128367
     40 H8C2       -0.3340   -0.7540   -4.4040 hc        1 MU2      0.128367
     41 H8C3       -0.5690    1.0470   -4.5580 hc        1 MU2      0.128367
     42 H3          1.8500   -2.0140    0.3450 h1        1 MU2      0.109700
     43 H4          3.2910    0.5940    1.3220 h1        1 MU2      0.077700
     44 HC          3.3540   -1.2480    3.1550 ho        1 MU2      0.484000
     45 H5          0.8880   -1.0450    2.4820 h1        1 MU2      0.084700
     46 H6C1        2.4330    1.5110    3.4050 h1        1 MU2      0.088700
     47 H6C2        0.7130    1.1580    3.9290 h1        1 MU2      0.088700
     48 H6          1.5560   -0.4410    5.1490 ho        1 MU2      0.445000
     49 H18         4.1740   -2.8030   -1.7560 h1        1 MU2      0.119700
     50 H201        2.6720   -3.9670   -0.1950 hc        1 MU2      0.096367
     51 H202        4.3580   -4.4820    0.2140 hc        1 MU2      0.096367
     52 H203        3.5100   -3.2680    1.2660 hc        1 MU2      0.096367
     53 HD          5.7440   -2.2590    1.7180 hn        1 MU2      0.489300
     54 H21         7.8860   -1.0420    0.0720 hx        1 MU2      0.127700
     55 H231        7.0670    0.9090    1.4540 hc        1 MU2      0.094700
     56 H232        7.2540   -0.0860    2.9770 hc        1 MU2      0.094700
     57 H233        8.7020    0.3210    1.9700 hc        1 MU2      0.094700
     58 HE          8.8120   -3.1840    0.0550 hn        1 MU2      0.316500
     59 H24         9.1960   -4.6550    2.6090 h1        1 MU2      0.129700
     60 H251        9.6480   -6.6300    0.9390 hc        1 MU2      0.092700
     61 H252        9.7910   -5.4000   -0.3730 hc        1 MU2      0.092700
     62 H261       11.4550   -5.4690    2.2620 hc        1 MU2      0.116700
     63 H262       11.5940   -4.2000    0.9650 hc        1 MU2      0.116700
     64 HA1        13.7780   -6.5740    1.7780 hn        1 MU2      0.482133
     65 HB2        14.2750   -6.7600    0.1930 hn        1 MU2      0.482133
     66 H22         1.8990   -1.1650   -2.3370 hn        1 MU2      0.467300
     67 H42         5.4180   -0.7840    1.0310 hn        1 MU2      0.489300
     68 H52         7.9820   -6.9570    2.1530 ho        1 MU2      0.453000
     69 H204       14.1030   -5.2280    0.8460 hn        1 MU2      0.482133
@<TRIPOS>BOND
     1    1    2 1   
     2    1    3 1   
     3    1   13 1   
     4    1   35 1   
     5    2   36 1   
     6    3    4 1   
     7    3    8 1   
     8    3   37 1   
     9    4    5 1   
    10    4   38 1   
    11    4   66 1   
    12    5    6 2   
    13    5    7 1   
    14    7   39 1   
    15    7   40 1   
    16    7   41 1   
    17    8    9 1   
    18    8   10 1   
    19    8   42 1   
    20    9   16 1   
    21   10   11 1   
    22   10   12 1   
    23   10   43 1   
    24   11   44 1   
    25   12   13 1   
    26   12   14 1   
    27   12   45 1   
    28   14   15 1   
    29   14   46 1   
    30   14   47 1   
    31   15   48 1   
    32   16   17 1   
    33   16   18 1   
    34   16   49 1   
    35   17   50 1   
    36   17   51 1   
    37   17   52 1   
    38   18   19 2   
    39   18   20 1   
    40   20   21 1   
    41   20   53 1   
    42   20   67 1   
    43   21   22 1   
    44   21   23 1   
    45   21   54 1   
    46   22   55 1   
    47   22   56 1   
    48   22   57 1   
    49   23   24 2   
    50   23   25 1   
    51   25   26 1   
    52   25   58 1   
    53   26   27 1   
    54   26   32 1   
    55   26   59 1   
    56   27   28 1   
    57   27   60 1   
    58   27   61 1   
    59   28   29 1   
    60   28   62 1   
    61   28   63 1   
    62   29   30 1   
    63   29   31 2   
    64   30   64 1   
    65   30   65 1   
    66   30   69 1   
    67   32   33 2   
    68   32   34 1   
    69   34   68 1   
@<TRIPOS>SUBSTRUCTURE
     1 MU2         1 TEMP              0 ****  ****    0 ROOT
