@<TRIPOS>MOLECULE
MU2
   65    65     1     0     0
SMALL
bcc


@<TRIPOS>ATOM
      1 C1         -5.1750   -3.3150   -1.3890 c3        1 MU2      0.307900
      2 O1         -5.7870   -3.0080   -0.1880 oh        1 MU2     -0.611800
      3 C2         -3.6840   -3.1210   -1.2410 c3        1 MU2      0.115700
      4 N2         -3.2260   -3.8530   -0.0600 n         1 MU2     -0.553900
      5 C7         -2.9900   -5.2780   -0.1400 c         1 MU2      0.661100
      6 O7         -3.1730   -5.8650   -1.1890 o         1 MU2     -0.646100
      7 C8         -2.5870   -6.0590    1.1130 c3        1 MU2     -0.170100
      8 C3         -3.3130   -1.6890   -1.0940 c3        1 MU2      0.104100
      9 O3         -1.8620   -1.5720   -1.1410 os        1 MU2     -0.398600
     10 C4         -3.9000   -0.8400   -2.1700 c3        1 MU2      0.093100
     11 O4         -3.6490    0.5420   -1.8610 oh        1 MU2     -0.593800
     12 C5         -5.3970   -1.0460   -2.3170 c3        1 MU2      0.072100
     13 O5         -5.7580   -2.4600   -2.4570 os        1 MU2     -0.457600
     14 C6         -5.8720   -0.3040   -3.5240 c3        1 MU2      0.138400
     15 O6         -7.2070   -0.6610   -3.7970 oh        1 MU2     -0.599800
     16 C18        -1.3850   -0.2660   -0.8790 c3        1 MU2      0.072100
     17 C20        -1.1500    0.4530   -2.1800 c3        1 MU2     -0.090100
     18 C19        -0.0770   -0.3480   -0.1010 c         1 MU2      0.632100
     19 O18         0.3480   -1.4270    0.2590 o         1 MU2     -0.644100
     20 N4          0.6960    0.8620    0.1570 n         1 MU2     -0.538900
     21 C21         2.1260    0.7790    0.3320 c3        1 MU2      0.018700
     22 C23         2.7910    0.7600   -1.0010 c3        1 MU2     -0.103100
     23 C22         2.6170    1.9890    1.1300 c         1 MU2      0.631100
     24 O19         1.9620    3.0120    1.1460 o         1 MU2     -0.664100
     25 N5          3.8140    1.8840    1.9360 n         1 MU2     -0.514900
     26 C24         4.7620    2.9500    1.9470 c3        1 MU2     -0.034300
     27 C25         5.7410    2.7430    3.0850 c3        1 MU2     -0.074400
     28 C26         7.1290    3.2150    2.6550 c3        1 MU2     -0.147400
     29 C27         7.8350    3.8880    3.8450 c         1 MU2      0.658100
     30 N20         9.0400    4.6480    3.6310 n         1 MU2     -0.666000
     31 O21         7.4080    3.7320    4.9750 o         1 MU2     -0.686100
     32 C28         4.0440    4.2570    2.1360 c         1 MU2      0.910600
     33 O22         3.3860    4.4670    3.1930 o         1 MU2     -0.828300
     34 O23         4.1870    5.1800    1.2920 o         1 MU2     -0.828300
     35 H1         -5.3510   -4.2480   -1.6020 h2        1 MU2      0.101700
     36 HA         -6.6070   -3.3470   -0.1780 ho        1 MU2      0.413000
     37 H2         -3.2380   -3.4830   -2.0310 h1        1 MU2      0.083700
     38 HB         -3.1190   -3.4160    0.7350 hn        1 MU2      0.357500
     39 H8C1       -3.3990   -6.3930    1.5690 hc        1 MU2      0.065700
     40 H8C2       -2.0920   -5.4720    1.7170 hc        1 MU2      0.065700
     41 H8C3       -2.0160   -6.8230    0.8550 hc        1 MU2      0.065700
     42 H3         -3.6300   -1.3670   -0.2270 h1        1 MU2      0.086700
     43 H4         -3.4640   -1.0590   -3.0210 h1        1 MU2      0.097700
     44 HC         -4.4230    0.9540   -1.6930 ho        1 MU2      0.406000
     45 H5         -5.8430   -0.6850   -1.5270 h1        1 MU2      0.066700
     46 H6C1       -5.8190    0.6610   -3.3570 h1        1 MU2      0.059200
     47 H6C2       -5.3090   -0.5340   -4.2920 h1        1 MU2      0.059200
     48 H6         -7.5100   -0.1750   -4.4740 ho        1 MU2      0.410000
     49 H18        -2.0440    0.2210   -0.3540 h1        1 MU2      0.078700
     50 H201       -0.1980    0.6560   -2.2740 hc        1 MU2      0.053033
     51 H202       -1.4380   -0.1170   -2.9270 hc        1 MU2      0.053033
     52 H203       -1.6670    1.2930   -2.1900 hc        1 MU2      0.053033
     53 HD          0.2820    1.6760    0.1600 hn        1 MU2      0.331500
     54 H21         2.3480   -0.0420    0.8180 h1        1 MU2      0.092700
     55 H231        2.4770    1.5110   -1.5310 hc        1 MU2      0.047033
     56 H232        3.7580    0.8260   -0.8840 hc        1 MU2      0.047033
     57 H233        2.5750   -0.0730   -1.4590 hc        1 MU2      0.047033
     58 HE          3.9980    1.1140    2.3710 hn        1 MU2      0.338500
     59 H24         5.2480    2.9640    1.0960 h1        1 MU2      0.061700
     60 H251        5.4500    3.2570    3.8610 hc        1 MU2      0.044200
     61 H252        5.7770    1.7910    3.3180 hc        1 MU2      0.044200
     62 H261        7.6560    2.4460    2.3540 hc        1 MU2      0.075700
     63 H262        7.0420    3.8600    1.9190 hc        1 MU2      0.075700
     64 HA1         9.3960    5.1480    4.3160 hn        1 MU2      0.326500
     65 HB2         9.4680    4.6060    2.8290 hn        1 MU2      0.326500
@<TRIPOS>BOND
     1    1    2 1   
     2    1    3 1   
     3    1   13 1   
     4    1   35 1   
     5    2   36 1   
     6    3    4 1   
     7    3    8 1   
     8    3   37 1   
     9    4    5 1   
    10    4   38 1   
    11    5    6 2   
    12    5    7 1   
    13    7   39 1   
    14    7   40 1   
    15    7   41 1   
    16    8    9 1   
    17    8   10 1   
    18    8   42 1   
    19    9   16 1   
    20   10   11 1   
    21   10   12 1   
    22   10   43 1   
    23   11   44 1   
    24   12   13 1   
    25   12   14 1   
    26   12   45 1   
    27   14   15 1   
    28   14   46 1   
    29   14   47 1   
    30   15   48 1   
    31   16   17 1   
    32   16   18 1   
    33   16   49 1   
    34   17   50 1   
    35   17   51 1   
    36   17   52 1   
    37   18   19 2   
    38   18   20 1   
    39   20   21 1   
    40   20   53 1   
    41   21   22 1   
    42   21   23 1   
    43   21   54 1   
    44   22   55 1   
    45   22   56 1   
    46   22   57 1   
    47   23   24 2   
    48   23   25 1   
    49   25   26 1   
    50   25   58 1   
    51   26   27 1   
    52   26   32 1   
    53   26   59 1   
    54   27   28 1   
    55   27   60 1   
    56   27   61 1   
    57   28   29 1   
    58   28   62 1   
    59   28   63 1   
    60   29   30 1   
    61   29   31 2   
    62   30   64 1   
    63   30   65 1   
    64   32   33 1   
    65   32   34 1   
@<TRIPOS>SUBSTRUCTURE
     1 MU2         1 TEMP              0 ****  ****    0 ROOT
