@<TRIPOS>MOLECULE
MUA
   19    20     1     0     0
SMALL
bcc


@<TRIPOS>ATOM
      1 N1         -0.0310    0.0430   -0.0090 ns        1 MUA     -0.582500
      2 C2          1.3690   -0.0250   -0.0480 c         1 MUA      0.817500
      3 O2          1.9940   -0.0360   -1.1280 o         1 MUA     -0.625500
      4 N3          2.1040   -0.0620    1.1650 ns        1 MUA     -0.453100
      5 C4          1.4040   -0.1110    2.3550 cc        1 MUA      0.158200
      6 C5         -0.0060   -0.0590    2.3920 cd        1 MUA     -0.247600
      7 C6         -0.7970    0.0350    1.1770 c         1 MUA      0.756700
      8 O6         -2.0330    0.1190    1.1110 o         1 MUA     -0.599500
      9 N7         -0.4440   -0.1770    3.7330 ns        1 MUA     -0.364100
     10 C8          0.7330   -0.1300    4.5450 c         1 MUA      0.765500
     11 N9          1.8920   -0.2240    3.6730 n         1 MUA     -0.358000
     12 C10         3.2230    0.0740    4.0880 c3        1 MUA      0.074300
     13 O8          0.7910   -0.1420    5.7820 o         1 MUA     -0.598500
     14 HN1        -0.5020    0.0870   -0.8890 hn        1 MUA      0.361500
     15 HN3         3.0910   -0.1780    1.1200 hn        1 MUA      0.361500
     16 HN7        -1.2720    0.2890    4.0280 hn        1 MUA      0.345500
     17 H101        3.2850   -0.0670    5.2020 h1        1 MUA      0.062367
     18 H102        3.9340   -0.6330    3.5830 h1        1 MUA      0.062367
     19 H103        3.5120    1.1300    3.8340 h1        1 MUA      0.062367
@<TRIPOS>BOND
     1    1    2 1   
     2    1    7 1   
     3    1   14 1   
     4    2    3 2   
     5    2    4 1   
     6    4    5 1   
     7    4   15 1   
     8    5    6 2   
     9    5   11 1   
    10    6    7 1   
    11    6    9 1   
    12    7    8 2   
    13    9   10 1   
    14    9   16 1   
    15   10   11 1   
    16   10   13 2   
    17   11   12 1   
    18   12   17 1   
    19   12   18 1   
    20   12   19 1   
@<TRIPOS>SUBSTRUCTURE
     1 MUA         1 TEMP              0 ****  ****    0 ROOT
