@<TRIPOS>MOLECULE
MUA
   19    20     1     0     0
SMALL
bcc


@<TRIPOS>ATOM
      1 N1         -0.4990   -0.0350   -2.3190 n         1 MUA     -0.582500
      2 C2          0.8920    0.0390   -2.1520 c         1 MUA      0.817500
      3 O2          1.6690    0.0600   -3.1280 o         1 MUA     -0.625500
      4 N3          1.4410    0.0710   -0.8440 n         1 MUA     -0.453100
      5 C4          0.5740    0.1080    0.2310 cc        1 MUA      0.158200
      6 C5         -0.8260    0.0500    0.0600 cd        1 MUA     -0.247600
      7 C6         -1.4300   -0.0380   -1.2590 c         1 MUA      0.756700
      8 O6         -2.6430   -0.1270   -1.5050 o         1 MUA     -0.599500
      9 N7         -1.4560    0.1570    1.3240 n         1 MUA     -0.364100
     10 C8         -0.4110    0.1090    2.2980 c         1 MUA      0.765500
     11 N9          0.8630    0.2130    1.6070 n         1 MUA     -0.358000
     12 C10         2.1200   -0.0830    2.2110 c3        1 MUA      0.074300
     13 O8         -0.5350    0.1120    3.5310 o         1 MUA     -0.598500
     14 HN1        -0.8350   -0.0740   -3.2590 hn        1 MUA      0.361500
     15 HN3         2.4230    0.1910   -0.7440 hn        1 MUA      0.361500
     16 HN7        -2.3160   -0.3140    1.4910 hn        1 MUA      0.345500
     17 H101        2.0180    0.0510    3.3220 h1        1 MUA      0.062367
     18 H102        2.4490   -1.1360    1.9940 h1        1 MUA      0.062367
     19 H103        2.8950    0.6300    1.8190 h1        1 MUA      0.062367
@<TRIPOS>BOND
     1    1    2 1   
     2    1    7 1   
     3    1   14 1   
     4    2    3 2   
     5    2    4 1   
     6    4    5 1   
     7    4   15 1   
     8    5    6 2   
     9    5   11 1   
    10    6    7 1   
    11    6    9 1   
    12    7    8 2   
    13    9   10 1   
    14    9   16 1   
    15   10   11 1   
    16   10   13 2   
    17   11   12 1   
    18   12   17 1   
    19   12   18 1   
    20   12   19 1   
@<TRIPOS>SUBSTRUCTURE
     1 MUA         1 TEMP              0 ****  ****    0 ROOT
