@<TRIPOS>MOLECULE
MUA
   19    20     1     0     0
SMALL
bcc


@<TRIPOS>ATOM
      1 N1         -0.0280    0.0360   -0.0110 n         1 MUA     -0.582500
      2 C2          1.3720   -0.0380   -0.0480 c         1 MUA      0.817500
      3 O2          1.9990   -0.0580   -1.1270 o         1 MUA     -0.625500
      4 N3          2.1050   -0.0730    1.1670 n         1 MUA     -0.453100
      5 C4          1.4040   -0.1120    2.3560 cc        1 MUA      0.158200
      6 C5         -0.0070   -0.0540    2.3910 cd        1 MUA     -0.247600
      7 C6         -0.7960    0.0380    1.1740 c         1 MUA      0.756700
      8 O6         -2.0310    0.1270    1.1070 o         1 MUA     -0.599500
      9 N7         -0.4460   -0.1630    3.7320 n         1 MUA     -0.364100
     10 C8          0.7300   -0.1170    4.5450 c         1 MUA      0.765500
     11 N9          1.8890   -0.2200    3.6750 n         1 MUA     -0.358000
     12 C10         3.2210    0.0740    4.0910 c3        1 MUA      0.074300
     13 O8          0.7860   -0.1220    5.7820 o         1 MUA     -0.598500
     14 HN1        -0.4970    0.0770   -0.8910 hn        1 MUA      0.361500
     15 HN3         3.0910   -0.1940    1.1230 hn        1 MUA      0.361500
     16 HN7        -1.2720    0.3080    4.0240 hn        1 MUA      0.345500
     17 H101        3.2820   -0.0620    5.2050 h1        1 MUA      0.062367
     18 H102        3.9300   -0.6390    3.5890 h1        1 MUA      0.062367
     19 H103        3.5150    1.1270    3.8310 h1        1 MUA      0.062367
@<TRIPOS>BOND
     1    1    2 1   
     2    1    7 1   
     3    1   14 1   
     4    2    3 2   
     5    2    4 1   
     6    4    5 1   
     7    4   15 1   
     8    5    6 2   
     9    5   11 1   
    10    6    7 1   
    11    6    9 1   
    12    7    8 2   
    13    9   10 1   
    14    9   16 1   
    15   10   11 1   
    16   10   13 2   
    17   11   12 1   
    18   12   17 1   
    19   12   18 1   
    20   12   19 1   
@<TRIPOS>SUBSTRUCTURE
     1 MUA         1 TEMP              0 ****  ****    0 ROOT
