@<TRIPOS>MOLECULE
MUB
   39    39     1     0     0
SMALL
bcc


@<TRIPOS>ATOM
      1 C1          0.2760   -0.0540    0.1600 c3        1 MUB      0.337900
      2 C2          1.7510   -0.2530    0.5810 c3        1 MUB      0.038500
      3 C3          1.9140   -0.6850    2.0670 c3        1 MUB      0.124100
      4 C4          0.7530   -1.5340    2.6050 c3        1 MUB      0.107100
      5 C5         -0.6290   -1.1870    2.0450 c3        1 MUB      0.121100
      6 C6         -1.1920    0.0760    2.7060 c3        1 MUB      0.094400
      7 C7          2.6030   -0.7350   -1.7150 c         1 MUB      0.586100
      8 C8          3.2700    0.5720   -1.9700 c3        1 MUB     -0.201100
      9 C9          3.4410    0.9080    2.9820 c3        1 MUB      0.031100
     10 C10         4.1850    0.7430    1.6420 c         1 MUB      0.878600
     11 C11         3.3910    2.3430    3.4500 c3        1 MUB     -0.086100
     12 O1          0.1250   -0.1130   -1.2350 oh        1 MUB     -0.611800
     13 O3          2.0540    0.4870    2.8480 os        1 MUB     -0.420600
     14 O4          1.0990   -2.8660    2.2290 oh        1 MUB     -0.612800
     15 O5         -0.5950   -1.0620    0.6260 os        1 MUB     -0.439600
     16 O6         -1.7920   -0.3510    3.9180 oh        1 MUB     -0.601800
     17 O7          2.1230   -1.5130   -2.5340 o         1 MUB     -0.486100
     18 O11         4.6620   -0.4110    1.3670 o         1 MUB     -0.833300
     19 O10         4.2150    1.6830    0.8040 o         1 MUB     -0.833300
     20 N2          2.5360   -1.1830   -0.2840 ny        1 MUB     -0.684800
     21 H1         -0.0510    0.9690    0.5050 h2        1 MUB      0.096700
     22 H2          2.2310    0.7770    0.4600 hx        1 MUB      0.160700
     23 HN2         2.1370   -2.1240   -0.2150 hn        1 MUB      0.485300
     24 H81         3.7920    0.5220   -2.9580 hc        1 MUB      0.119700
     25 H82         4.0080    0.8570   -1.1640 hc        1 MUB      0.119700
     26 H83         2.4770    1.3640   -2.0130 hc        1 MUB      0.119700
     27 H3          2.8460   -1.3280    2.1860 h1        1 MUB      0.121700
     28 H9          3.9110    0.2380    3.7530 h1        1 MUB      0.056700
     29 H111        2.6670    2.4580    4.2900 hc        1 MUB      0.048367
     30 H112        4.4090    2.6450    3.7920 hc        1 MUB      0.048367
     31 H113        3.0850    3.0090    2.6070 hc        1 MUB      0.048367
     32 H4A         0.7170   -1.4350    3.7270 h1        1 MUB      0.089700
     33 H5         -1.3400   -2.0490    2.2090 h1        1 MUB      0.104700
     34 H61        -1.9670    0.5410    2.0400 h1        1 MUB      0.051700
     35 H62        -0.3690    0.8150    2.9080 h1        1 MUB      0.051700
     36 HO6        -1.9940    0.4470    4.4210 ho        1 MUB      0.415000
     37 H4          0.5110   -3.4570    2.7130 ho        1 MUB      0.419000
     38 HO1        -0.3140   -0.9440   -1.4760 ho        1 MUB      0.448000
     39 H22         3.5250   -1.1810    0.1070 hn        1 MUB      0.485300
@<TRIPOS>BOND
     1    1    2 1   
     2    1   12 1   
     3    1   15 1   
     4    1   21 1   
     5    2    3 1   
     6    2   20 1   
     7    2   22 1   
     8    3    4 1   
     9    3   13 1   
    10    3   27 1   
    11    4    5 1   
    12    4   14 1   
    13    4   32 1   
    14    5    6 1   
    15    5   15 1   
    16    5   33 1   
    17    6   16 1   
    18    6   34 1   
    19    6   35 1   
    20    7    8 1   
    21    7   17 2   
    22    7   20 1   
    23    8   24 1   
    24    8   25 1   
    25    8   26 1   
    26    9   10 1   
    27    9   11 1   
    28    9   13 1   
    29    9   28 1   
    30   10   18 1   
    31   10   19 1   
    32   11   29 1   
    33   11   30 1   
    34   11   31 1   
    35   12   38 1   
    36   14   37 1   
    37   16   36 1   
    38   20   23 1   
    39   20   39 1   
@<TRIPOS>SUBSTRUCTURE
     1 MUB         1 TEMP              0 ****  ****    0 ROOT
