@<TRIPOS>MOLECULE
MUB
   39    39     1     0     0
SMALL
bcc


@<TRIPOS>ATOM
      1 C1          0.3270   -0.0730    0.0990 c3        1 MUB      0.337900
      2 C2          1.7830   -0.2580    0.5870 c3        1 MUB      0.038500
      3 C3          1.8820   -0.6810    2.0810 c3        1 MUB      0.124100
      4 C4          0.7050   -1.5360    2.5710 c3        1 MUB      0.107100
      5 C5         -0.6540   -1.2020    1.9480 c3        1 MUB      0.121100
      6 C6         -1.2550    0.0600    2.5760 c3        1 MUB      0.094400
      7 C7          2.7410   -0.7450   -1.6660 c         1 MUB      0.586100
      8 C8          3.4080    0.5660   -1.8980 c3        1 MUB     -0.201100
      9 C9          3.3550    0.9280    3.0550 c3        1 MUB      0.031100
     10 C10         4.1600    0.7620    1.7500 c         1 MUB      0.878600
     11 C11         3.2730    2.3660    3.5120 c3        1 MUB     -0.086100
     12 O1          0.2390   -0.1400   -1.3010 oh        1 MUB     -0.611800
     13 O3          1.9790    0.4970    2.8610 os        1 MUB     -0.420600
     14 O4          1.0770   -2.8670    2.2190 oh        1 MUB     -0.612800
     15 O5         -0.5560   -1.0850    0.5310 os        1 MUB     -0.439600
     16 O6         -1.9050   -0.3650    3.7620 oh        1 MUB     -0.601800
     17 O7          2.3040   -1.5310   -2.5010 o         1 MUB     -0.486100
     18 O11         4.6570   -0.3900    1.5040 o         1 MUB     -0.833300
     19 O10         4.2200    1.6980    0.9100 o         1 MUB     -0.833300
     20 N2          2.6130   -1.1860   -0.2370 n4        1 MUB     -0.684800
     21 H1         -0.0220    0.9500    0.4230 h2        1 MUB      0.096700
     22 H2          2.2600    0.7750    0.4820 hx        1 MUB      0.160700
     23 HN2         3.5830   -1.1740    0.1980 hn        1 MUB      0.485300
     24 H81         3.9750    0.5140   -2.8610 hc        1 MUB      0.119700
     25 H82         4.1070    0.8610   -1.0610 hc        1 MUB      0.119700
     26 H83         2.6120    1.3510   -1.9810 hc        1 MUB      0.119700
     27 H3          2.8130   -1.3160    2.2460 h1        1 MUB      0.121700
     28 H9          3.7950    0.2660    3.8490 h1        1 MUB      0.056700
     29 H111        2.5100    2.4790    4.3180 hc        1 MUB      0.048700
     30 H112        4.2730    2.6760    3.8990 hc        1 MUB      0.048700
     31 H113        3.0020    3.0250    2.6520 hc        1 MUB      0.048700
     32 H4A         0.6180   -1.4310    3.6900 h1        1 MUB      0.089700
     33 H5         -1.3650   -2.0690    2.0840 h1        1 MUB      0.104700
     34 H61        -2.0030    0.5160    1.8730 h1        1 MUB      0.051700
     35 H62        -0.4480    0.8060    2.8100 h1        1 MUB      0.051700
     36 HO6        -2.1370    0.4330    4.2500 ho        1 MUB      0.415000
     37 H4          0.4720   -3.4600    2.6800 ho        1 MUB      0.419000
     38 HO1        -0.1820   -0.9760   -1.5560 ho        1 MUB      0.448000
     39 H22         2.2180   -2.1300   -0.1800 hn        1 MUB      0.485300
@<TRIPOS>BOND
     1    1    2 1   
     2    1   12 1   
     3    1   15 1   
     4    1   21 1   
     5    2    3 1   
     6    2   20 1   
     7    2   22 1   
     8    3    4 1   
     9    3   13 1   
    10    3   27 1   
    11    4    5 1   
    12    4   14 1   
    13    4   32 1   
    14    5    6 1   
    15    5   15 1   
    16    5   33 1   
    17    6   16 1   
    18    6   34 1   
    19    6   35 1   
    20    7    8 1   
    21    7   17 2   
    22    7   20 1   
    23    8   24 1   
    24    8   25 1   
    25    8   26 1   
    26    9   10 1   
    27    9   11 1   
    28    9   13 1   
    29    9   28 1   
    30   10   18 1   
    31   10   19 1   
    32   11   29 1   
    33   11   30 1   
    34   11   31 1   
    35   12   38 1   
    36   14   37 1   
    37   16   36 1   
    38   20   23 1   
    39   20   39 1   
@<TRIPOS>SUBSTRUCTURE
     1 MUB         1 TEMP              0 ****  ****    0 ROOT
