@<TRIPOS>MOLECULE
MUB
   38    37     1     0     0
SMALL
bcc


@<TRIPOS>ATOM
      1 C1         -1.5920   -0.1050   -1.0470 c3        1 MUB      0.147000
      2 C2         -0.0660   -0.1190   -1.0710 c3        1 MUB     -0.052000
      3 C3          0.5200   -0.0940    0.2950 c3        1 MUB      0.012000
      4 C4         -0.0540   -1.1550    1.1730 c3        1 MUB     -0.010000
      5 C5         -1.5800   -1.1360    1.1850 c3        1 MUB     -0.025000
      6 C6         -2.0480    0.1030    1.8940 c3        1 MUB     -0.050000
      7 C7          1.0590   -1.2130   -3.0370 c1        1 MUB      0.292000
      8 C8          1.4630   -2.4750   -3.7930 c2        1 MUB     -0.251000
      9 C9          1.4310    1.9030    1.3460 c3        1 MUB     -0.044000
     10 C10         1.9230    2.8240    0.2480 c2        1 MUB      0.322000
     11 C11         1.0970    2.7200    2.5730 c3        1 MUB     -0.194000
     12 O1         -2.0630   -0.3040   -2.3310 oh        1 MUB     -0.314000
     13 O3          0.2540    1.2110    0.8990 os        1 MUB     -0.296000
     14 O4          0.3900   -2.4390    0.6970 oh        1 MUB     -0.336000
     15 O5         -2.1540   -1.1540   -0.1650 os        1 MUB     -0.320000
     16 O6         -3.4020   -0.0520    2.2690 oh        1 MUB     -0.343000
     17 O7          1.2440   -0.1160   -3.5400 o         1 MUB     -0.378000
     18 O11         3.1500    2.8040   -0.0930 o         1 MUB     -0.575000
     19 O10         1.1490    3.7340   -0.2130 o         1 MUB     -0.575000
     20 N2          0.3870   -1.3210   -1.7580 n3        1 MUB     -0.323000
     21 H1         -1.8870    0.7440   -0.7410 h2        1 MUB      0.122000
     22 H2          0.2420    0.6470   -1.5540 h1        1 MUB      0.159000
     23 HN2         0.1840   -2.1280   -1.4270 hn        1 MUB      0.213000
     24 H81         2.1050   -3.0020   -3.2420 ha        1 MUB      0.102000
     25 H82         0.6640   -3.0170   -3.9740 ha        1 MUB      0.102000
     26 H83         1.8990   -2.2190   -4.6630 ha        1 MUB      0.102000
     27 H3          1.4820   -0.2240    0.2290 h1        1 MUB      0.143000
     28 H9          2.1380    1.2450    1.5690 h1        1 MUB      0.059000
     29 H111        0.8940    2.1180    3.3220 hc        1 MUB      0.074333
     30 H112        0.2970    3.3010    2.3840 hc        1 MUB      0.074333
     31 H113        1.8650    3.2880    2.8070 hc        1 MUB      0.074333
     32 H4A         0.2740   -1.0250    2.0870 h1        1 MUB      0.120000
     33 H5         -1.9010   -1.9180    1.6740 h1        1 MUB      0.115000
     34 H61        -1.9600    0.8820    1.2900 h1        1 MUB      0.097500
     35 H62        -1.4960    0.2480    2.7030 h1        1 MUB      0.097500
     36 HO6        -3.5700    0.4450    2.9950 ho        1 MUB      0.217000
     37 H4          0.5430   -2.9850    1.3990 ho        1 MUB      0.209000
     38 HO1        -2.8830   -0.0140   -2.3880 ho        1 MUB      0.231000
@<TRIPOS>BOND
     1    1    2 1   
     2    1   12 1   
     3    1   15 1   
     4    1   21 1   
     5    2    3 1   
     6    2   20 1   
     7    2   22 1   
     8    3    4 1   
     9    3   13 1   
    10    3   27 1   
    11    4    5 1   
    12    4   14 1   
    13    4   32 1   
    14    5    6 1   
    15    5   15 1   
    16    5   33 1   
    17    6   16 1   
    18    6   34 1   
    19    6   35 1   
    20    7   17 1   
    21    7   20 1   
    22    8   24 1   
    23    8   25 1   
    24    8   26 1   
    25    9   10 1   
    26    9   11 1   
    27    9   13 1   
    28    9   28 1   
    29   10   18 1   
    30   10   19 1   
    31   11   29 1   
    32   11   30 1   
    33   11   31 1   
    34   12   38 1   
    35   14   37 1   
    36   16   36 1   
    37   20   23 1   
@<TRIPOS>SUBSTRUCTURE
     1 MUB         1 TEMP              0 ****  ****    0 ROOT
