@<TRIPOS>MOLECULE
MUB
   39    39     1     0     0
SMALL
bcc


@<TRIPOS>ATOM
      1 C1          0.2990    0.0150    0.0990 c3        1 MUB      0.333900
      2 C2          1.7470   -0.2150    0.5890 c3        1 MUB      0.045500
      3 C3          1.8130   -0.6720    2.0750 c3        1 MUB      0.095100
      4 C4          0.5730   -1.4100    2.6120 c3        1 MUB      0.107100
      5 C5         -0.7530   -1.1170    1.9020 c3        1 MUB      0.114100
      6 C6         -1.4220    0.1410    2.4740 c3        1 MUB      0.094400
      7 C7          2.6650   -0.6800   -1.6890 c         1 MUB      0.588100
      8 C8          3.3380    0.6290   -1.9120 c3        1 MUB     -0.199100
      9 C9          3.4290    0.7990    3.0640 c3        1 MUB      0.032100
     10 C10         4.2200    0.5450    1.7670 c         1 MUB      0.878600
     11 C11         3.4720    2.2430    3.5030 c3        1 MUB     -0.086100
     12 O1          0.2180    0.0000   -1.3030 oh        1 MUB     -0.613800
     13 O3          2.0250    0.4840    2.8700 os        1 MUB     -0.423600
     14 O4          0.7880   -2.8090    2.4650 oh        1 MUB     -0.599800
     15 O5         -0.5830   -1.0140    0.4920 os        1 MUB     -0.434600
     16 O6         -2.1970   -0.1800    3.6090 oh        1 MUB     -0.579800
     17 O7          2.2150   -1.4520   -2.5300 o         1 MUB     -0.485100
     18 O11         4.6180   -0.6500    1.5430 o         1 MUB     -0.831300
     19 O10         4.3550    1.4550    0.9070 o         1 MUB     -0.831300
     20 N2          2.5480   -1.1430   -0.2650 n4        1 MUB     -0.688800
     21 H1         -0.0410    1.0280    0.4610 h2        1 MUB      0.096700
     22 H2          2.2610    0.8030    0.5180 hx        1 MUB      0.159700
     23 HN2         2.1280   -2.0760   -0.2320 hn        1 MUB      0.483800
     24 H81         4.1070    0.8650   -1.1210 hc        1 MUB      0.118700
     25 H82         2.5550    1.4320   -1.8920 hc        1 MUB      0.118700
     26 H83         3.8240    0.6160   -2.9200 hc        1 MUB      0.118700
     27 H3          2.6870   -1.3860    2.2150 h1        1 MUB      0.104700
     28 H9          3.8080    0.1110    3.8700 h1        1 MUB      0.053700
     29 H111        4.4920    2.4700    3.8960 hc        1 MUB      0.050033
     30 H112        3.2660    2.9130    2.6330 hc        1 MUB      0.050033
     31 H113        2.7160    2.4340    4.3010 hc        1 MUB      0.050033
     32 H4A         0.4580   -1.1470    3.7040 h1        1 MUB      0.068700
     33 H5         -1.4420   -2.0070    2.0120 h1        1 MUB      0.121700
     34 H61        -2.1600    0.5470    1.7290 h1        1 MUB      0.069200
     35 H62        -0.6520    0.9200    2.7190 h1        1 MUB      0.069200
     36 HO6        -1.5860   -0.3800    4.3300 ho        1 MUB      0.402000
     37 H4          1.4270   -3.0720    3.1400 ho        1 MUB      0.415000
     38 HO1        -0.2490   -0.8010   -1.5900 ho        1 MUB      0.451000
     39 H22         3.5260   -1.1740    0.1550 hn        1 MUB      0.483800
@<TRIPOS>BOND
     1    1    2 1   
     2    1   12 1   
     3    1   15 1   
     4    1   21 1   
     5    2    3 1   
     6    2   20 1   
     7    2   22 1   
     8    3    4 1   
     9    3   13 1   
    10    3   27 1   
    11    4    5 1   
    12    4   14 1   
    13    4   32 1   
    14    5    6 1   
    15    5   15 1   
    16    5   33 1   
    17    6   16 1   
    18    6   34 1   
    19    6   35 1   
    20    7    8 1   
    21    7   17 2   
    22    7   20 1   
    23    8   24 1   
    24    8   25 1   
    25    8   26 1   
    26    9   10 1   
    27    9   11 1   
    28    9   13 1   
    29    9   28 1   
    30   10   18 1   
    31   10   19 1   
    32   11   29 1   
    33   11   30 1   
    34   11   31 1   
    35   12   38 1   
    36   14   37 1   
    37   16   36 1   
    38   20   23 1   
    39   20   39 1   
@<TRIPOS>SUBSTRUCTURE
     1 MUB         1 TEMP              0 ****  ****    0 ROOT
