@<TRIPOS>MOLECULE
MUB
   38    38     1     0     0
SMALL
bcc


@<TRIPOS>ATOM
      1 C1          1.0440    2.5320    2.0310 c3        1 MUB      0.328900
      2 C2          1.3150    1.5800    0.8410 c3        1 MUB      0.042700
      3 C3          0.2790    0.4290    0.9480 c3        1 MUB      0.110100
      4 C4         -1.1600    0.9670    1.0780 c3        1 MUB      0.093100
      5 C5         -1.3340    2.2270    1.9320 c3        1 MUB      0.114100
      6 C6         -1.6310    1.8300    3.3850 c3        1 MUB      0.099400
      7 C7          2.2260    2.2270   -1.3710 c         1 MUB      0.652100
      8 C8          1.8770    2.6870   -2.7680 c3        1 MUB     -0.176100
      9 C9          0.0030   -1.6260    2.1880 c3        1 MUB      0.018100
     10 C10        -0.5110   -2.2430    0.8580 c         1 MUB      0.898600
     11 C11         1.0190   -2.5260    2.8610 c3        1 MUB     -0.075100
     12 O1          1.8850    3.6460    2.1090 oh        1 MUB     -0.592800
     13 O3          0.6400   -0.3370    2.0850 os        1 MUB     -0.439600
     14 O4         -1.6540    1.2580   -0.2250 oh        1 MUB     -0.641800
     15 O5         -0.2410    3.1390    1.9160 os        1 MUB     -0.468600
     16 O6         -1.6800    2.9600    4.2340 oh        1 MUB     -0.615800
     17 O7          3.3950    1.8990   -1.0790 o         1 MUB     -0.618100
     18 O11        -0.0110   -3.3270    0.4640 o         1 MUB     -0.836800
     19 O10        -1.4460   -1.6360    0.2500 o         1 MUB     -0.836800
     20 N2          1.2100    2.2500   -0.4350 n         1 MUB     -0.549900
     21 H1          1.1550    1.9690    3.0000 h2        1 MUB      0.092700
     22 H2          2.3560    1.1600    0.9620 h1        1 MUB      0.111700
     23 HN2         0.2730    2.3840   -0.7560 hn        1 MUB      0.326500
     24 H81         2.8110    2.7250   -3.3790 hc        1 MUB      0.059367
     25 H82         1.1640    1.9670   -3.2380 hc        1 MUB      0.059367
     26 H83         1.4100    3.7010   -2.7500 hc        1 MUB      0.059367
     27 H3          0.3350   -0.2090    0.0180 h1        1 MUB      0.093700
     28 H9         -0.8890   -1.4730    2.8610 h1        1 MUB      0.018700
     29 H111        0.5350   -3.5060    3.0850 hc        1 MUB      0.032700
     30 H112        1.3940   -2.0650    3.8050 hc        1 MUB      0.032700
     31 H113        1.8790   -2.7060    2.1740 hc        1 MUB      0.032700
     32 H4A        -1.7900    0.1410    1.5290 h1        1 MUB      0.097700
     33 H5         -2.1830    2.8450    1.5190 h1        1 MUB      0.085700
     34 H61        -0.8520    1.1080    3.7520 h1        1 MUB      0.056200
     35 H62        -2.6470    1.3600    3.4590 h1        1 MUB      0.056200
     36 HO6        -0.9180    3.5130    4.0110 ho        1 MUB      0.413000
     37 H4         -1.8260    0.3890   -0.6270 ho        1 MUB      0.449000
     38 HO1         1.7480    4.1790    1.3150 ho        1 MUB      0.415000
@<TRIPOS>BOND
     1    1    2 1   
     2    1   12 1   
     3    1   15 1   
     4    1   21 1   
     5    2    3 1   
     6    2   20 1   
     7    2   22 1   
     8    3    4 1   
     9    3   13 1   
    10    3   27 1   
    11    4    5 1   
    12    4   14 1   
    13    4   32 1   
    14    5    6 1   
    15    5   15 1   
    16    5   33 1   
    17    6   16 1   
    18    6   34 1   
    19    6   35 1   
    20    7    8 1   
    21    7   17 2   
    22    7   20 1   
    23    8   24 1   
    24    8   25 1   
    25    8   26 1   
    26    9   10 1   
    27    9   11 1   
    28    9   13 1   
    29    9   28 1   
    30   10   18 1   
    31   10   19 1   
    32   11   29 1   
    33   11   30 1   
    34   11   31 1   
    35   12   38 1   
    36   14   37 1   
    37   16   36 1   
    38   20   23 1   
@<TRIPOS>SUBSTRUCTURE
     1 MUB         1 TEMP              0 ****  ****    0 ROOT
