@<TRIPOS>MOLECULE
MUC
   15    12     1     0     0
SMALL
bcc


@<TRIPOS>ATOM
      1 C1          0.3280    1.2700    2.0230 c1        1 MUC      0.333000
      2 O1         -0.4210    1.3240    3.0430 os        1 MUC     -0.597000
      3 O2          1.5840    1.2250    2.1620 o         1 MUC     -0.554000
      4 C4         -0.7130   -0.2650   -1.2570 c1        1 MUC     -0.180500
      5 C5          0.0080   -1.2060   -1.8120 c1        1 MUC     -0.180500
      6 C6          0.8840   -1.8430   -0.9500 c1        1 MUC      0.325000
      7 O6          1.8700   -2.5350   -1.2860 o         1 MUC     -0.353000
      8 O3          0.7230   -1.0770    0.3930 os        1 MUC     -0.274000
      9 C3         -0.5100   -0.1180    0.1660 c2        1 MUC      0.045000
     10 C2         -0.2890    1.2800    0.6170 c3        1 MUC     -0.235000
     11 H4         -1.0180    0.5140   -1.7990 ha        1 MUC      0.185000
     12 H5         -0.3250   -1.6760   -2.6200 ha        1 MUC      0.185000
     13 H3         -1.2960   -0.3820    0.6890 h4        1 MUC      0.126000
     14 H2          0.3230    1.7330   -0.0070 hc        1 MUC      0.087000
     15 H2A        -1.1480    1.7570    0.6390 hc        1 MUC      0.087000
@<TRIPOS>BOND
     1    1    3 1   
     2    1   10 1   
     3    4    5 1   
     4    4   11 1   
     5    5   12 1   
     6    6    7 1   
     7    6    8 1   
     8    8    9 1   
     9    9   10 1   
    10    9   13 1   
    11   10   14 1   
    12   10   15 1   
@<TRIPOS>SUBSTRUCTURE
     1 MUC         1 TEMP              0 ****  ****    0 ROOT
