@<TRIPOS>MOLECULE
MUC
   15    15     1     0     0
SMALL
bcc


@<TRIPOS>ATOM
      1 C1         -2.1540   -0.8590    0.2460 c         1 MUC      0.913600
      2 O1         -3.3400   -0.5980   -0.0900 o         1 MUC     -0.840800
      3 O2         -1.8360   -1.5810    1.2370 o         1 MUC     -0.840800
      4 C4          0.8970   -1.1530    0.7470 c2        1 MUC     -0.069200
      5 C5          2.1710   -1.1810    0.3020 ce        1 MUC     -0.315200
      6 C6          2.3800   -0.0010   -0.5690 c         1 MUC      0.709800
      7 O6          3.3460    0.4320   -1.1950 o         1 MUC     -0.628500
      8 O3          1.2060    0.7310   -0.6450 os        1 MUC     -0.435900
      9 C3          0.1930    0.0660    0.1910 c3        1 MUC      0.160300
     10 C2         -1.0270   -0.2690   -0.6310 c3        1 MUC     -0.206400
     11 H3         -0.0560    0.7960    1.0060 h1        1 MUC      0.086700
     12 H2         -0.7700   -1.0170   -1.4210 hc        1 MUC      0.047700
     13 H2A        -1.3990    0.6560   -1.1370 hc        1 MUC      0.047700
     14 H4          0.3250   -1.8460    1.3780 ha        1 MUC      0.215000
     15 H5          2.9610   -1.9030    0.4900 ha        1 MUC      0.155000
@<TRIPOS>BOND
     1    1    2 1   
     2    1    3 1   
     3    1   10 1   
     4    4    5 2   
     5    4    9 1   
     6    4   14 1   
     7    5    6 1   
     8    5   15 1   
     9    6    7 2   
    10    6    8 1   
    11    8    9 1   
    12    9   10 1   
    13    9   11 1   
    14   10   12 1   
    15   10   13 1   
@<TRIPOS>SUBSTRUCTURE
     1 MUC         1 TEMP              0 ****  ****    0 ROOT
