@<TRIPOS>MOLECULE
MUC
   15    15     1     0     0
SMALL
bcc


@<TRIPOS>ATOM
      1 C1         -0.1450    0.8500   -0.5310 c         1 MUC      0.913600
      2 O1          1.0650    0.8860   -0.1790 o         1 MUC     -0.840800
      3 O2         -0.9290    1.8440   -0.4880 o         1 MUC     -0.840800
      4 C4         -3.0650    0.2720   -1.4130 c2        1 MUC     -0.069200
      5 C5         -3.9660   -0.4230   -2.1410 ce        1 MUC     -0.315200
      6 C6         -3.6820   -1.8670   -1.9650 c         1 MUC      0.709800
      7 O6         -4.2080   -2.8930   -2.3930 o         1 MUC     -0.628500
      8 O3         -2.5910   -2.0250   -1.1260 os        1 MUC     -0.435900
      9 C3         -2.1350   -0.6900   -0.7060 c3        1 MUC      0.160300
     10 C2         -0.6830   -0.4940   -1.0670 c3        1 MUC     -0.206400
     11 H3         -2.2840   -0.6540    0.4060 h1        1 MUC      0.086700
     12 H2         -0.5540   -0.5060   -2.1780 hc        1 MUC      0.047700
     13 H2A        -0.0790   -1.3320   -0.6390 hc        1 MUC      0.047700
     14 H4         -2.8970    1.3490   -1.2910 ha        1 MUC      0.215000
     15 H5         -4.7740   -0.0690   -2.7750 ha        1 MUC      0.155000
@<TRIPOS>BOND
     1    1    2 1   
     2    1    3 1   
     3    1   10 1   
     4    4    5 2   
     5    4    9 1   
     6    4   14 1   
     7    5    6 1   
     8    5   15 1   
     9    6    7 2   
    10    6    8 1   
    11    8    9 1   
    12    9   10 1   
    13    9   11 1   
    14   10   12 1   
    15   10   13 1   
@<TRIPOS>SUBSTRUCTURE
     1 MUC         1 TEMP              0 ****  ****    0 ROOT
