@<TRIPOS>MOLECULE
MUD
   35    34     1     0     0
SMALL
bcc


@<TRIPOS>ATOM
      1 O3          3.2770   -3.3640   -1.4520 o         1 MUD     -0.861300
      2 C2          2.7170   -2.3670   -1.9810 c         1 MUD      0.903600
      3 O1          2.0690   -2.4520   -3.0760 o         1 MUD     -0.861300
      4 C4          2.8630   -0.9910   -1.3270 c3        1 MUD     -0.197400
      5 C5          4.3010   -0.5310   -1.3820 c3        1 MUD     -0.088400
      6 C6          4.6980    0.0090   -2.7680 c3        1 MUD      0.001700
      7 C7          6.1810    0.3780   -2.6980 c         1 MUD      0.628100
      8 O8          6.6150    1.5230   -2.5750 o         1 MUD     -0.505000
      9 O9          7.1490   -0.5810   -2.7070 oh        1 MUD     -0.580100
     10 N10         4.4370   -0.9050   -3.8640 n         1 MUD     -0.510900
     11 C11         3.4430   -0.5730   -4.7730 c         1 MUD      0.667100
     12 O20         3.0200    0.5740   -4.9930 o         1 MUD     -0.554100
     13 N12         2.8750   -1.6690   -5.6290 n4        1 MUD     -0.635800
     14 C13         3.8590   -2.2700   -6.5800 c3        1 MUD     -0.045500
     15 C17         3.2730   -2.2370   -8.0750 c         1 MUD      0.933600
     16 O18         4.0430   -2.6820   -8.9490 o         1 MUD     -0.775300
     17 O19         2.1170   -1.7620   -8.2050 o         1 MUD     -0.775300
     18 C14         4.2210   -3.7030   -6.2600 c3        1 MUD     -0.012300
     19 S15         5.1960   -3.8900   -4.7880 ss        1 MUD     -0.379200
     20 C16         4.1680   -4.8840   -3.7580 c3        1 MUD     -0.042000
     21 H4          2.5470   -1.0790   -0.2570 hc        1 MUD      0.049700
     22 H4A         2.1910   -0.2550   -1.8340 hc        1 MUD      0.049700
     23 H5          4.4730    0.2980   -0.6460 hc        1 MUD      0.058200
     24 H5A         4.9700   -1.3890   -1.1010 hc        1 MUD      0.058200
     25 H6          4.1340    0.9770   -2.9530 h1        1 MUD      0.117700
     26 HN10        6.7570   -1.4590   -2.8160 ho        1 MUD      0.441000
     27 HN12        2.1120   -1.2540   -6.2090 hn        1 MUD      0.495300
     28 H13         4.7850   -1.6300   -6.5920 hx        1 MUD      0.097700
     29 H14         4.8440   -4.0660   -7.1220 h1        1 MUD      0.103200
     30 H14A        3.3110   -4.3490   -6.2020 h1        1 MUD      0.103200
     31 H16         3.1730   -4.4040   -3.5750 h1        1 MUD      0.087033
     32 H16A        4.0310   -5.9000   -4.1820 h1        1 MUD      0.087033
     33 H16B        4.6830   -4.9450   -2.7700 h1        1 MUD      0.087033
     34 H102        4.5530   -1.8930   -3.6560 hn        1 MUD      0.359500
     35 H122        2.4690   -2.3930   -5.0050 hn        1 MUD      0.495300
@<TRIPOS>BOND
     1    1    2 1   
     2    2    3 1   
     3    2    4 1   
     4    4    5 1   
     5    4   21 1   
     6    4   22 1   
     7    5    6 1   
     8    5   23 1   
     9    5   24 1   
    10    6    7 1   
    11    6   10 1   
    12    6   25 1   
    13    7    8 2   
    14    7    9 1   
    15    9   26 1   
    16   10   11 1   
    17   10   34 1   
    18   11   12 2   
    19   11   13 1   
    20   13   14 1   
    21   13   27 1   
    22   13   35 1   
    23   14   15 1   
    24   14   18 1   
    25   14   28 1   
    26   15   16 1   
    27   15   17 1   
    28   18   19 1   
    29   18   29 1   
    30   18   30 1   
    31   19   20 1   
    32   20   31 1   
    33   20   32 1   
    34   20   33 1   
@<TRIPOS>SUBSTRUCTURE
     1 MUD         1 TEMP              0 ****  ****    0 ROOT
