@<TRIPOS>MOLECULE
MUD
   35    34     1     0     0
SMALL
bcc


@<TRIPOS>ATOM
      1 O3          1.6530    1.5920    0.5710 o         1 MUD     -0.517000
      2 C2          1.9510    0.8750   -0.3860 c         1 MUD      0.630100
      3 O1          1.0150   -0.0840   -0.6590 oh        1 MUD     -0.593100
      4 C4          3.1760    0.9700   -1.2440 c3        1 MUD     -0.178400
      5 C5          4.0040   -0.3020   -1.2110 c3        1 MUD     -0.070400
      6 C6          4.3240   -0.8310   -2.6070 c3        1 MUD     -0.103300
      7 C7          5.5460   -1.8170   -2.5200 c         1 MUD      0.907600
      8 O8          6.5470   -1.4420   -1.8730 o         1 MUD     -0.819800
      9 O9          5.4400   -2.9270   -3.1320 o         1 MUD     -0.819800
     10 N10         3.1420   -1.4510   -3.2270 ns        1 MUD     -0.460900
     11 C11         3.2770   -1.5980   -4.6340 c         1 MUD      0.637100
     12 O20         3.1620   -0.6640   -5.4300 o         1 MUD     -0.482100
     13 N12         3.5330   -2.9860   -5.1740 ny        1 MUD     -0.663800
     14 C13         3.4280   -3.1460   -6.6530 c3        1 MUD     -0.041500
     15 C17         2.1750   -4.0680   -7.0160 c         1 MUD      0.928600
     16 O18         1.9490   -4.2090   -8.2350 o         1 MUD     -0.782800
     17 O19         1.5440   -4.5550   -6.0400 o         1 MUD     -0.782800
     18 C14         4.6630   -3.7760   -7.2660 c3        1 MUD     -0.019300
     19 S15         6.1090   -2.7570   -7.2390 ss        1 MUD     -0.335200
     20 C16         7.0850   -3.4380   -5.9460 c3        1 MUD     -0.058000
     21 H4          3.7920    1.8360   -0.8830 hc        1 MUD      0.080700
     22 H4A         2.8440    1.2060   -2.2910 hc        1 MUD      0.080700
     23 H5          4.9950   -0.0970   -0.7170 hc        1 MUD      0.076200
     24 H5A         3.4930   -1.0920   -0.6010 hc        1 MUD      0.076200
     25 H6          4.6480    0.0320   -3.2590 h1        1 MUD      0.080700
     26 HN10        1.2950   -0.6010   -1.4280 ho        1 MUD      0.438000
     27 HN12        4.4790   -3.2550   -4.8320 hn        1 MUD      0.483300
     28 H13         3.2430   -2.1370   -7.1200 hx        1 MUD      0.118700
     29 H14         4.4150   -3.9410   -8.3510 h1        1 MUD      0.099200
     30 H14A        4.8750   -4.7730   -6.8100 h1        1 MUD      0.099200
     31 H16         8.0810   -2.9470   -6.0300 h1        1 MUD      0.077033
     32 H16A        7.2080   -4.5370   -6.0570 h1        1 MUD      0.077033
     33 H16B        6.6700   -3.2230   -4.9300 h1        1 MUD      0.077033
     34 H102        2.9600   -2.3300   -2.7670 hn        1 MUD      0.277500
     35 H122        2.8340   -3.6450   -4.7660 hn        1 MUD      0.483300
@<TRIPOS>BOND
     1    1    2 2   
     2    2    3 1   
     3    2    4 1   
     4    3   26 1   
     5    4    5 1   
     6    4   21 1   
     7    4   22 1   
     8    5    6 1   
     9    5   23 1   
    10    5   24 1   
    11    6    7 1   
    12    6   10 1   
    13    6   25 1   
    14    7    8 1   
    15    7    9 1   
    16   10   11 1   
    17   10   34 1   
    18   11   12 2   
    19   11   13 1   
    20   13   14 1   
    21   13   27 1   
    22   13   35 1   
    23   14   15 1   
    24   14   18 1   
    25   14   28 1   
    26   15   16 1   
    27   15   17 1   
    28   18   19 1   
    29   18   29 1   
    30   18   30 1   
    31   19   20 1   
    32   20   31 1   
    33   20   32 1   
    34   20   33 1   
@<TRIPOS>SUBSTRUCTURE
     1 MUD         1 TEMP              0 ****  ****    0 ROOT
