@<TRIPOS>MOLECULE
MUD
   35    34     1     0     0
SMALL
bcc


@<TRIPOS>ATOM
      1 O3          0.9420    2.2750   -0.9770 o         1 MUD     -0.513000
      2 C2          1.4050    1.1620   -1.2340 c         1 MUD      0.631100
      3 O1          0.5990    0.1370   -0.8150 oh        1 MUD     -0.596100
      4 C4          2.6780    0.8470   -1.9550 c3        1 MUD     -0.183400
      5 C5          3.6380    0.0410   -1.1030 c3        1 MUD     -0.071400
      6 C6          4.7410   -0.5970   -1.9440 c3        1 MUD     -0.084300
      7 C7          5.9620   -0.9650   -0.9940 c         1 MUD      0.920600
      8 O8          6.4340   -0.0140   -0.3310 o         1 MUD     -0.799800
      9 O9          6.3560   -2.1620   -1.0040 o         1 MUD     -0.799800
     10 N10         4.2810   -1.7840   -2.6660 n         1 MUD     -0.471900
     11 C11         4.1450   -1.7360   -4.0290 c         1 MUD      0.613100
     12 O20         3.8640   -0.7320   -4.7070 o         1 MUD     -0.565100
     13 N12         4.2380   -3.0510   -4.7840 n4        1 MUD     -0.655800
     14 C13         3.5840   -3.0400   -6.1270 c3        1 MUD     -0.039500
     15 C17         2.9050   -4.4570   -6.4000 c         1 MUD      0.922600
     16 O18         2.6080   -4.6970   -7.5890 o         1 MUD     -0.779800
     17 O19         2.7290   -5.1830   -5.3880 o         1 MUD     -0.779800
     18 C14         4.5410   -2.6620   -7.2410 c3        1 MUD     -0.018300
     19 S15         6.1430   -3.4090   -7.1130 ss        1 MUD     -0.340200
     20 C16         5.9270   -5.0140   -7.8060 c3        1 MUD     -0.043000
     21 H4          2.4210    0.2880   -2.8960 hc        1 MUD      0.082200
     22 H4A         3.1650    1.8110   -2.2610 hc        1 MUD      0.082200
     23 H5          3.0880   -0.7420   -0.5180 hc        1 MUD      0.071200
     24 H5A         4.1520    0.7150   -0.3620 hc        1 MUD      0.071200
     25 H6          5.1210    0.1680   -2.6810 h1        1 MUD      0.072700
     26 HN10        4.6520   -2.6270   -2.2470 hn        1 MUD      0.344500
     27 HN12        5.2380   -3.2850   -4.9160 hn        1 MUD      0.472800
     28 H13         2.7420   -2.2890   -6.1030 hx        1 MUD      0.109700
     29 H14         4.7360   -1.5590   -7.2330 h1        1 MUD      0.105200
     30 H14A        4.0420   -2.9400   -8.2060 h1        1 MUD      0.105200
     31 H16         4.8630   -5.3510   -7.7460 h1        1 MUD      0.078367
     32 H16A        6.5720   -5.7150   -7.2300 h1        1 MUD      0.078367
     33 H16B        6.2450   -5.0150   -8.8720 h1        1 MUD      0.078367
     34 H102        1.0140   -0.7100   -1.0280 ho        1 MUD      0.428000
     35 H122        3.7830   -3.8230   -4.2530 hn        1 MUD      0.472800
@<TRIPOS>BOND
     1    1    2 2   
     2    2    3 1   
     3    2    4 1   
     4    3   34 1   
     5    4    5 1   
     6    4   21 1   
     7    4   22 1   
     8    5    6 1   
     9    5   23 1   
    10    5   24 1   
    11    6    7 1   
    12    6   10 1   
    13    6   25 1   
    14    7    8 1   
    15    7    9 1   
    16   10   11 1   
    17   10   26 1   
    18   11   12 2   
    19   11   13 1   
    20   13   14 1   
    21   13   27 1   
    22   13   35 1   
    23   14   15 1   
    24   14   18 1   
    25   14   28 1   
    26   15   16 1   
    27   15   17 1   
    28   18   19 1   
    29   18   29 1   
    30   18   30 1   
    31   19   20 1   
    32   20   31 1   
    33   20   32 1   
    34   20   33 1   
@<TRIPOS>SUBSTRUCTURE
     1 MUD         1 TEMP              0 ****  ****    0 ROOT
