@<TRIPOS>MOLECULE
MUD
   33    32     1     0     0
SMALL
bcc


@<TRIPOS>ATOM
      1 O3         -5.5250   -0.2800   -1.7900 o         1 MUD     -0.887800
      2 C2         -4.8860   -0.5530   -0.7240 c         1 MUD      0.901600
      3 O1         -5.4760   -1.0400    0.2890 o         1 MUD     -0.887800
      4 C4         -3.3700   -0.3310   -0.7010 c3        1 MUD     -0.173400
      5 C5         -2.9210    0.5750    0.4210 c3        1 MUD     -0.042400
      6 C6         -1.4240    0.9330    0.3820 c3        1 MUD     -0.048300
      7 C7         -1.2130    2.1450    1.3500 c         1 MUD      0.892600
      8 O8         -0.8670    1.9250    2.5500 o         1 MUD     -0.865800
      9 O9         -1.3990    3.3090    0.8910 o         1 MUD     -0.865800
     10 N10        -0.5710   -0.2030    0.7260 n         1 MUD     -0.479900
     11 C11         0.6750   -0.3350    0.0750 c         1 MUD      0.725100
     12 O20         0.8330    0.0260   -1.1240 o         1 MUD     -0.690100
     13 N12         1.7620   -0.9030    0.7870 n         1 MUD     -0.538900
     14 C13         2.9350   -1.3800    0.0850 c3        1 MUD     -0.035300
     15 C17         3.2670   -2.8920    0.3740 c         1 MUD      0.901600
     16 O18         4.0820   -3.4560   -0.4120 o         1 MUD     -0.850300
     17 O19         2.7520   -3.4620    1.3770 o         1 MUD     -0.850300
     18 C14         4.2040   -0.6200    0.4880 c3        1 MUD      0.053700
     19 S15         4.5860    0.9330   -0.3010 ss        1 MUD     -0.458200
     20 C16         3.1920    1.9820   -0.0580 c3        1 MUD     -0.010000
     21 H4         -2.8790   -1.3320   -0.5960 hc        1 MUD      0.025200
     22 H4A        -3.0550    0.1020   -1.6850 hc        1 MUD      0.025200
     23 H5         -3.4770    1.5480    0.3560 hc        1 MUD      0.041200
     24 H5A        -3.1830    0.1050    1.4050 hc        1 MUD      0.041200
     25 H6         -1.1650    1.2710   -0.6620 h1        1 MUD      0.071700
     26 HN10       -0.5360   -0.3130    1.7240 hn        1 MUD      0.284500
     27 HN12        1.5250   -1.4940    1.5600 hn        1 MUD      0.302500
     28 H13         2.7860   -1.2720   -1.0280 h1        1 MUD      0.086700
     29 H14         4.2250   -0.4620    1.5920 h1        1 MUD      0.061700
     30 H14A        5.0820   -1.2500    0.1880 h1        1 MUD      0.061700
     31 H16         2.3030    1.6130   -0.6240 h1        1 MUD      0.069367
     32 H16A        2.9150    2.0520    1.0170 h1        1 MUD      0.069367
     33 H16B        3.4890    2.9840   -0.4380 h1        1 MUD      0.069367
@<TRIPOS>BOND
     1    1    2 1   
     2    2    3 1   
     3    2    4 1   
     4    4    5 1   
     5    4   21 1   
     6    4   22 1   
     7    5    6 1   
     8    5   23 1   
     9    5   24 1   
    10    6    7 1   
    11    6   10 1   
    12    6   25 1   
    13    7    8 1   
    14    7    9 1   
    15   10   11 1   
    16   10   26 1   
    17   11   12 2   
    18   11   13 1   
    19   13   14 1   
    20   13   27 1   
    21   14   15 1   
    22   14   18 1   
    23   14   28 1   
    24   15   16 1   
    25   15   17 1   
    26   18   19 1   
    27   18   29 1   
    28   18   30 1   
    29   19   20 1   
    30   20   31 1   
    31   20   32 1   
    32   20   33 1   
@<TRIPOS>SUBSTRUCTURE
     1 MUD         1 TEMP              0 ****  ****    0 ROOT
