@<TRIPOS>MOLECULE
MUF
   62    62     1     0     0
SMALL
bcc


@<TRIPOS>ATOM
      1 C1          3.9640    1.6380    0.2820 c3        1 MUF     -0.145000
      2 C2          5.7090    1.8270    0.7870 c3        1 MUF     -0.133000
      3 C3          5.9190    1.3500    0.8930 c2        1 MUF     -0.097000
      4 C4          4.7850    0.4690    2.4320 c1        1 MUF     -0.191000
      5 C5          3.2260    0.5770    2.1240 c1        1 MUF     -0.018000
      6 C6          1.8280   -0.1670    3.4020 c1        1 MUF     -0.227000
      7 C7          0.4720   -0.1100    2.9170 c2        1 MUF     -0.107000
      8 C8          0.4340   -0.2540    1.4840 c3        1 MUF     -0.087000
      9 C9          1.3410    0.6370    0.7660 c3        1 MUF     -0.086000
     10 C10         3.0660    0.5020    1.2550 c3        1 MUF     -0.013000
     11 C11         1.2220    0.4980   -0.7420 c3        1 MUF     -0.154000
     12 C12        -0.0250    0.6230   -1.1470 c3        1 MUF     -0.146000
     13 C13        -0.9500   -0.2760   -0.3960 c3        1 MUF     -0.027000
     14 C14        -0.7800   -0.1420    1.0910 c3        1 MUF     -0.092000
     15 C15        -1.1170    0.5320    1.3270 c3        1 MUF     -0.152000
     16 C16        -2.3480    0.8400    0.2570 c3        1 MUF     -0.151000
     17 C17        -2.1580    0.1020   -0.6570 c3        1 MUF     -0.148000
     18 C18        -0.7330   -1.7690   -0.8380 c3        1 MUF     -0.213000
     19 C19         3.5400   -0.9050    0.8390 c3        1 MUF     -0.199000
     20 C20        -3.3920   -1.2970   -0.7900 c2        1 MUF      0.281000
     21 O52        -3.2090   -2.3160   -0.1870 o         1 MUF     -0.292000
     22 C28         7.4150    1.1550    0.8480 c2        1 MUF      0.350000
     23 O76         7.8950    0.0070    0.6400 o         1 MUF     -0.566500
     24 O82         8.2090    2.1600    1.0830 o         1 MUF     -0.566500
     25 C52        -4.6240   -1.1510   -1.6900 c2        1 MUF     -0.172000
     26 C53        -4.9180   -2.1230   -2.6060 c2        1 MUF     -0.049000
     27 C54        -6.0630   -2.0060   -3.4120 c1        1 MUF     -0.222000
     28 C55        -6.9010   -0.9000   -3.2760 c1        1 MUF      0.091000
     29 C56        -6.6070    0.0720   -2.3580 c1        1 MUF     -0.167000
     30 C57        -5.4580   -0.0470   -1.5520 c1        1 MUF     -0.065000
     31 O57        -8.0170   -0.7770   -4.0800 oh        1 MUF     -0.252000
     32 H1          3.5230    2.5200    0.3400 hc        1 MUF      0.066000
     33 H1A         3.9400    1.3360   -0.6570 hc        1 MUF      0.066000
     34 H2          5.9720    2.5300    1.4810 hc        1 MUF      0.100500
     35 H2A         6.1610    2.2080   -0.0230 hc        1 MUF      0.100500
     36 H4          5.1110    0.4980    3.3680 ha        1 MUF      0.145000
     37 H6          2.0000   -0.1820    4.3570 ha        1 MUF      0.120000
     38 H7         -0.0260    0.7010    3.1620 ha        1 MUF      0.071500
     39 H7A        -0.0650   -0.8080    3.3820 ha        1 MUF      0.071500
     40 H8          0.7270   -1.1970    1.2760 hc        1 MUF      0.088000
     41 H9          1.0580    1.5610    0.9880 hc        1 MUF      0.088000
     42 H11         1.5690   -0.4080   -1.0170 hc        1 MUF      0.083000
     43 H11A        1.7820    1.2120   -1.1820 hc        1 MUF      0.083000
     44 H12        -0.3190    1.5800   -1.0210 hc        1 MUF      0.074500
     45 H12A       -0.0720    0.3990   -2.1010 hc        1 MUF      0.074500
     46 H14        -1.2600   -0.8400    1.4860 hc        1 MUF      0.091000
     47 H15        -1.4710    0.4310    2.2240 hc        1 MUF      0.088000
     48 H15A       -0.4860    1.2370    1.3020 hc        1 MUF      0.088000
     49 H16        -2.3130    1.7300   -0.0280 hc        1 MUF      0.084000
     50 H16A       -3.2400    0.6440    0.6860 hc        1 MUF      0.084000
     51 H17        -2.2430    0.5490   -1.5390 hc        1 MUF      0.100000
     52 H18        -1.2650   -1.9550   -1.6550 hc        1 MUF      0.078667
     53 H18A       -1.0210   -2.3740   -0.1120 hc        1 MUF      0.078667
     54 H18B        0.2190   -1.9160   -1.0280 hc        1 MUF      0.078667
     55 H19         2.9840   -1.6040    1.3190 hc        1 MUF      0.074000
     56 H19A        3.4360   -1.0140   -0.1360 hc        1 MUF      0.074000
     57 H19B        4.5070   -1.0190    1.0840 hc        1 MUF      0.074000
     58 H53        -4.4040   -2.9690   -2.6060 ha        1 MUF      0.149000
     59 H54        -6.2680   -2.7070   -4.0860 ha        1 MUF      0.135000
     60 H56        -7.1910    0.8580   -2.2680 ha        1 MUF      0.151000
     61 H57        -5.2830    0.6170   -0.8370 ha        1 MUF      0.140000
     62 HO57       -7.7880   -0.3660   -4.8540 ho        1 MUF      0.218000
@<TRIPOS>BOND
     1    1    2 1   
     2    1   10 1   
     3    1   32 1   
     4    1   33 1   
     5    2    3 1   
     6    2   34 1   
     7    2   35 1   
     8    3    4 1   
     9    3   22 1   
    10    4   36 1   
    11    5    6 1   
    12    5   10 1   
    13    6   37 1   
    14    7    8 1   
    15    7   38 1   
    16    7   39 1   
    17    8    9 1   
    18    8   14 1   
    19    8   40 1   
    20    9   10 1   
    21    9   11 1   
    22    9   41 1   
    23   10   19 1   
    24   11   12 1   
    25   11   42 1   
    26   11   43 1   
    27   12   13 1   
    28   12   44 1   
    29   12   45 1   
    30   13   14 1   
    31   13   17 1   
    32   13   18 1   
    33   14   15 1   
    34   14   46 1   
    35   15   16 1   
    36   15   47 1   
    37   15   48 1   
    38   16   17 1   
    39   16   49 1   
    40   16   50 1   
    41   17   20 1   
    42   17   51 1   
    43   18   52 1   
    44   18   53 1   
    45   18   54 1   
    46   19   55 1   
    47   19   56 1   
    48   19   57 1   
    49   20   21 1   
    50   20   25 1   
    51   22   23 1   
    52   22   24 1   
    53   25   26 1   
    54   25   30 1   
    55   26   27 1   
    56   26   58 1   
    57   27   59 1   
    58   28   29 1   
    59   28   31 1   
    60   29   60 1   
    61   30   61 1   
    62   31   62 1   
@<TRIPOS>SUBSTRUCTURE
     1 MUF         1 TEMP              0 ****  ****    0 ROOT
