@<TRIPOS>MOLECULE
MUF
   62    66     1     0     0
SMALL
bcc


@<TRIPOS>ATOM
      1 C1          1.5920    0.2450    0.2110 c3        1 MUF     -0.066400
      2 C2          2.2740   -0.6010    1.2680 c3        1 MUF     -0.051200
      3 C3          1.6060   -0.5260    2.5900 ce        1 MUF     -0.119400
      4 C4          0.3500   -0.0650    2.7210 cf        1 MUF     -0.192000
      5 C5         -0.4420    0.4240    1.6040 cf        1 MUF     -0.021200
      6 C6         -1.5610    1.1420    1.8100 c2        1 MUF     -0.232200
      7 C7         -2.3890    1.7350    0.7410 c3        1 MUF     -0.023200
      8 C8         -2.0670    1.1730   -0.6360 c3        1 MUF     -0.047700
      9 C9         -0.5470    1.0460   -0.8210 c3        1 MUF     -0.047700
     10 C10         0.0640    0.0850    0.2200 c3        1 MUF     -0.007800
     11 C11        -0.1750    0.6550   -2.2470 c3        1 MUF     -0.075400
     12 C12        -0.8280    1.5110   -3.3210 c3        1 MUF     -0.067400
     13 C13        -2.3360    1.5380   -3.1380 c3        1 MUF     -0.037000
     14 C14        -2.6020    2.0900   -1.7160 c3        1 MUF     -0.059700
     15 C15        -4.0830    2.4420   -1.7250 c3        1 MUF     -0.073400
     16 C16        -4.3640    2.8970   -3.1590 c3        1 MUF     -0.072400
     17 C17        -3.1100    2.5710   -3.9960 c3        1 MUF     -0.158700
     18 C18        -2.9220    0.1560   -3.3680 c3        1 MUF     -0.089100
     19 C19        -0.2860   -1.3690   -0.0810 c3        1 MUF     -0.081100
     20 C20        -3.4770    2.0980   -5.3780 c         1 MUF      0.593700
     21 O52        -4.4340    1.3380   -5.5810 o         1 MUF     -0.543100
     22 C28         2.4240   -0.9950    3.7860 c         1 MUF      0.899800
     23 O76         1.8170   -1.2460    4.8650 o         1 MUF     -0.831300
     24 O82         3.6750   -1.1050    3.6350 o         1 MUF     -0.831300
     25 C52        -2.6920    2.6230   -6.5210 ca        1 MUF     -0.202600
     26 C53        -3.3000    2.6480   -7.7880 ca        1 MUF     -0.050500
     27 C54        -2.6220    3.1370   -8.8970 ca        1 MUF     -0.202000
     28 C55        -1.3040    3.5990   -8.7390 ca        1 MUF      0.143100
     29 C56        -0.6780    3.5670   -7.4850 ca        1 MUF     -0.202000
     30 C57        -1.3780    3.0810   -6.3850 ca        1 MUF     -0.050500
     31 O57        -0.6780    4.0730   -9.8680 oh        1 MUF     -0.498100
     32 H1          1.9910   -0.0400   -0.7980 hc        1 MUF      0.026700
     33 H1A         1.8400    1.3250    0.3830 hc        1 MUF      0.026700
     34 H2          2.2920   -1.6770    0.9420 hc        1 MUF      0.061700
     35 H2A         3.3450   -0.2790    1.3870 hc        1 MUF      0.061700
     36 H4         -0.1140   -0.0330    3.7210 ha        1 MUF      0.145000
     37 H6         -1.9030    1.3510    2.8370 ha        1 MUF      0.120000
     38 H7         -2.2290    2.8500    0.7400 hc        1 MUF      0.030200
     39 H7A        -3.4790    1.5640    0.9560 hc        1 MUF      0.030200
     40 H8         -2.5420    0.1590   -0.7230 hc        1 MUF      0.057700
     41 H9         -0.1060    2.0670   -0.6230 hc        1 MUF      0.045700
     42 H11        -0.4470   -0.4180   -2.4260 hc        1 MUF      0.044700
     43 H11A        0.9380    0.7390   -2.3650 hc        1 MUF      0.044700
     44 H12        -0.4220    2.5560   -3.2660 hc        1 MUF      0.032200
     45 H12A       -0.5680    1.0940   -4.3290 hc        1 MUF      0.032200
     46 H14        -2.0350    3.0650   -1.6270 hc        1 MUF      0.042700
     47 H15        -4.7050    1.5500   -1.4620 hc        1 MUF      0.045700
     48 H15A       -4.3110    3.2470   -0.9850 hc        1 MUF      0.045700
     49 H16        -5.2570    2.3620   -3.5690 hc        1 MUF      0.048200
     50 H16A       -4.5700    3.9950   -3.1960 hc        1 MUF      0.048200
     51 H17        -2.4850    3.5010   -4.0810 hc        1 MUF      0.059700
     52 H18        -4.0360    0.1900   -3.2840 hc        1 MUF      0.043033
     53 H18A       -2.5300   -0.5810   -2.6270 hc        1 MUF      0.043033
     54 H18B       -2.6600   -0.2010   -4.3940 hc        1 MUF      0.043033
     55 H19         0.3140   -1.7460   -0.9440 hc        1 MUF      0.034700
     56 H19A       -1.3700   -1.4800   -0.3220 hc        1 MUF      0.034700
     57 H19B       -0.0520   -2.0010    0.8110 hc        1 MUF      0.034700
     58 H53        -4.3290    2.2660   -7.8930 ha        1 MUF      0.152500
     59 H54        -3.0920    3.1640   -9.8900 ha        1 MUF      0.143500
     60 H56         0.3570    3.9210   -7.3720 ha        1 MUF      0.143500
     61 H57        -0.8770    3.0480   -5.4030 ha        1 MUF      0.152500
     62 HO57        0.2200    4.3390   -9.6220 ho        1 MUF      0.420000
@<TRIPOS>BOND
     1    1    2 1   
     2    1   10 1   
     3    1   32 1   
     4    1   33 1   
     5    2    3 1   
     6    2   34 1   
     7    2   35 1   
     8    3    4 2   
     9    3   22 1   
    10    4    5 1   
    11    4   36 1   
    12    5    6 2   
    13    5   10 1   
    14    6    7 1   
    15    6   37 1   
    16    7    8 1   
    17    7   38 1   
    18    7   39 1   
    19    8    9 1   
    20    8   14 1   
    21    8   40 1   
    22    9   10 1   
    23    9   11 1   
    24    9   41 1   
    25   10   19 1   
    26   11   12 1   
    27   11   42 1   
    28   11   43 1   
    29   12   13 1   
    30   12   44 1   
    31   12   45 1   
    32   13   14 1   
    33   13   17 1   
    34   13   18 1   
    35   14   15 1   
    36   14   46 1   
    37   15   16 1   
    38   15   47 1   
    39   15   48 1   
    40   16   17 1   
    41   16   49 1   
    42   16   50 1   
    43   17   20 1   
    44   17   51 1   
    45   18   52 1   
    46   18   53 1   
    47   18   54 1   
    48   19   55 1   
    49   19   56 1   
    50   19   57 1   
    51   20   21 2   
    52   20   25 1   
    53   22   23 1   
    54   22   24 1   
    55   25   26 ar  
    56   25   30 ar  
    57   26   27 ar  
    58   26   58 1   
    59   27   28 ar  
    60   27   59 1   
    61   28   29 ar  
    62   28   31 1   
    63   29   30 ar  
    64   29   60 1   
    65   30   61 1   
    66   31   62 1   
@<TRIPOS>SUBSTRUCTURE
     1 MUF         1 TEMP              0 ****  ****    0 ROOT
