@<TRIPOS>MOLECULE
MUF
   62    66     1     0     0
SMALL
bcc


@<TRIPOS>ATOM
      1 C1          1.5820    0.2110    0.2760 c3        1 MUF     -0.066400
      2 C2          2.2410   -0.6410    1.3430 c3        1 MUF     -0.051200
      3 C3          1.5460   -0.5710    2.6520 ce        1 MUF     -0.119400
      4 C4          0.2890   -0.1060    2.7600 cf        1 MUF     -0.192000
      5 C5         -0.4790    0.3910    1.6300 cf        1 MUF     -0.021200
      6 C6         -1.5990    1.1130    1.8170 c2        1 MUF     -0.233200
      7 C7         -2.4030    1.7130    0.7340 c3        1 MUF     -0.023200
      8 C8         -2.0580    1.1500   -0.6370 c3        1 MUF     -0.047700
      9 C9         -0.5350    1.0190   -0.7950 c3        1 MUF     -0.047700
     10 C10         0.0530    0.0540    0.2550 c3        1 MUF     -0.007800
     11 C11        -0.1370    0.6310   -2.2150 c3        1 MUF     -0.075400
     12 C12        -0.7710    1.4860   -3.3000 c3        1 MUF     -0.067400
     13 C13        -2.2830    1.5130   -3.1430 c3        1 MUF     -0.037000
     14 C14        -2.5730    2.0670   -1.7270 c3        1 MUF     -0.059700
     15 C15        -4.0530    2.4200   -1.7610 c3        1 MUF     -0.073400
     16 C16        -4.3100    2.8740   -3.2000 c3        1 MUF     -0.072400
     17 C17        -3.0430    2.5440   -4.0170 c3        1 MUF     -0.158700
     18 C18        -2.8650    0.1300   -3.3810 c3        1 MUF     -0.089100
     19 C19        -0.2940   -1.3990   -0.0570 c3        1 MUF     -0.081100
     20 C20        -3.3880    2.0650   -5.4020 c         1 MUF      0.594700
     21 O52        -4.3450    1.3060   -5.6170 o         1 MUF     -0.545100
     22 C28         2.3370   -1.0500    3.8620 c         1 MUF      0.899800
     23 O76         1.7080   -1.3030    4.9270 o         1 MUF     -0.831300
     24 O82         3.5900   -1.1680    3.7350 o         1 MUF     -0.831300
     25 C52        -2.5860    2.5830   -6.5360 ca        1 MUF     -0.202600
     26 C53        -3.1710    2.5920   -7.8120 ca        1 MUF     -0.050500
     27 C54        -2.4730    3.0760   -8.9120 ca        1 MUF     -0.201500
     28 C55        -1.1630    3.5480   -8.7370 ca        1 MUF      0.143100
     29 C56        -0.5570    3.5320   -7.4710 ca        1 MUF     -0.201500
     30 C57        -1.2750    3.0510   -6.3820 ca        1 MUF     -0.050500
     31 O57        -0.4090    4.0430   -9.7750 oh        1 MUF     -0.496100
     32 H1          1.8290    1.2890    0.4580 hc        1 MUF      0.026700
     33 H1A         1.9990   -0.0710   -0.7260 hc        1 MUF      0.026700
     34 H2          3.3090   -0.3220    1.4860 hc        1 MUF      0.061700
     35 H2A         2.2640   -1.7160    1.0130 hc        1 MUF      0.061700
     36 H4         -0.1950   -0.0780    3.7510 ha        1 MUF      0.145000
     37 H6         -1.9580    1.3210    2.8370 ha        1 MUF      0.120000
     38 H7         -3.4970    1.5490    0.9290 hc        1 MUF      0.030200
     39 H7A        -2.2360    2.8270    0.7370 hc        1 MUF      0.030200
     40 H8         -2.5350    0.1370   -0.7320 hc        1 MUF      0.057700
     41 H9         -0.0960    2.0380   -0.5870 hc        1 MUF      0.046700
     42 H11         0.9780    0.7170   -2.3120 hc        1 MUF      0.044700
     43 H11A       -0.4050   -0.4430   -2.4010 hc        1 MUF      0.044700
     44 H12        -0.4950    1.0700   -4.3040 hc        1 MUF      0.032200
     45 H12A       -0.3670    2.5310   -3.2390 hc        1 MUF      0.032200
     46 H14        -2.0070    3.0410   -1.6290 hc        1 MUF      0.043700
     47 H15        -4.2930    3.2260   -1.0270 hc        1 MUF      0.045700
     48 H15A       -4.6800    1.5290   -1.5080 hc        1 MUF      0.045700
     49 H16        -5.1970    2.3400   -3.6250 hc        1 MUF      0.047700
     50 H16A       -4.5120    3.9720   -3.2420 hc        1 MUF      0.047700
     51 H17        -2.4160    3.4730   -4.0960 hc        1 MUF      0.060700
     52 H18        -3.9800    0.1640   -3.3150 hc        1 MUF      0.043367
     53 H18A       -2.5850   -0.2290   -4.4020 hc        1 MUF      0.043367
     54 H18B       -2.4840   -0.6060   -2.6330 hc        1 MUF      0.043367
     55 H19        -0.0810   -2.0330    0.8390 hc        1 MUF      0.034700
     56 H19A        0.3240   -1.7750   -0.9070 hc        1 MUF      0.034700
     57 H19B       -1.3730   -1.5060   -0.3210 hc        1 MUF      0.034700
     58 H53        -4.1960    2.2030   -7.9330 ha        1 MUF      0.152000
     59 H54        -2.9380    3.0850   -9.9080 ha        1 MUF      0.144000
     60 H56         0.4740    3.8970   -7.3570 ha        1 MUF      0.144000
     61 H57        -0.7920    3.0280   -5.3910 ha        1 MUF      0.152000
     62 HO57       -0.9370    3.9770  -10.5850 ho        1 MUF      0.419000
@<TRIPOS>BOND
     1    1    2 1   
     2    1   10 1   
     3    1   32 1   
     4    1   33 1   
     5    2    3 1   
     6    2   34 1   
     7    2   35 1   
     8    3    4 2   
     9    3   22 1   
    10    4    5 1   
    11    4   36 1   
    12    5    6 2   
    13    5   10 1   
    14    6    7 1   
    15    6   37 1   
    16    7    8 1   
    17    7   38 1   
    18    7   39 1   
    19    8    9 1   
    20    8   14 1   
    21    8   40 1   
    22    9   10 1   
    23    9   11 1   
    24    9   41 1   
    25   10   19 1   
    26   11   12 1   
    27   11   42 1   
    28   11   43 1   
    29   12   13 1   
    30   12   44 1   
    31   12   45 1   
    32   13   14 1   
    33   13   17 1   
    34   13   18 1   
    35   14   15 1   
    36   14   46 1   
    37   15   16 1   
    38   15   47 1   
    39   15   48 1   
    40   16   17 1   
    41   16   49 1   
    42   16   50 1   
    43   17   20 1   
    44   17   51 1   
    45   18   52 1   
    46   18   53 1   
    47   18   54 1   
    48   19   55 1   
    49   19   56 1   
    50   19   57 1   
    51   20   21 2   
    52   20   25 1   
    53   22   23 1   
    54   22   24 1   
    55   25   26 ar  
    56   25   30 ar  
    57   26   27 ar  
    58   26   58 1   
    59   27   28 ar  
    60   27   59 1   
    61   28   29 ar  
    62   28   31 1   
    63   29   30 ar  
    64   29   60 1   
    65   30   61 1   
    66   31   62 1   
@<TRIPOS>SUBSTRUCTURE
     1 MUF         1 TEMP              0 ****  ****    0 ROOT
