@<TRIPOS>MOLECULE
MUF
   62    66     1     0     0
SMALL
bcc


@<TRIPOS>ATOM
      1 C1         -3.2770   -1.5720    0.4880 c3        1 MUF     -0.066400
      2 C2         -4.7130   -1.9160    0.1480 c3        1 MUF     -0.051200
      3 C3         -5.6360   -0.7630    0.2910 ce        1 MUF     -0.119400
      4 C4         -5.1820    0.5010    0.3500 cf        1 MUF     -0.192000
      5 C5         -3.7690    0.8450    0.3120 cf        1 MUF     -0.021200
      6 C6         -3.3460    2.0720    0.6680 c2        1 MUF     -0.232200
      7 C7         -1.9300    2.4890    0.7270 c3        1 MUF     -0.023200
      8 C8         -0.9990    1.5190    0.0120 c3        1 MUF     -0.047700
      9 C9         -1.3870    0.0680    0.3340 c3        1 MUF     -0.047700
     10 C10        -2.8220   -0.2440   -0.1390 c3        1 MUF     -0.007800
     11 C11        -0.3750   -0.9300   -0.2170 c3        1 MUF     -0.075400
     12 C12         1.0700   -0.6170    0.1370 c3        1 MUF     -0.067400
     13 C13         1.4240    0.8030   -0.2730 c3        1 MUF     -0.037000
     14 C14         0.4310    1.7390    0.4590 c3        1 MUF     -0.059700
     15 C15         1.0500    3.1220    0.3160 c3        1 MUF     -0.073400
     16 C16         2.5600    2.8760    0.3410 c3        1 MUF     -0.072400
     17 C17         2.7750    1.3500    0.2540 c3        1 MUF     -0.158700
     18 C18         1.3820    0.9440   -1.7850 c3        1 MUF     -0.089100
     19 C19        -2.9040   -0.3580   -1.6590 c3        1 MUF     -0.081100
     20 C20         3.9710    1.0080   -0.5960 c         1 MUF      0.593700
     21 O52         4.2290    1.6180   -1.6440 o         1 MUF     -0.543100
     22 C28        -7.1200   -1.0930    0.3720 c         1 MUF      0.899800
     23 O76        -7.9520   -0.1620    0.1800 o         1 MUF     -0.831300
     24 O82        -7.4420   -2.2880    0.6310 o         1 MUF     -0.831300
     25 C52         4.8880   -0.0510   -0.1100 ca        1 MUF     -0.202600
     26 C53         6.2220   -0.0280   -0.5500 ca        1 MUF     -0.050500
     27 C54         7.1330   -0.9860   -0.1230 ca        1 MUF     -0.202000
     28 C55         6.6970   -1.9950    0.7520 ca        1 MUF      0.143100
     29 C56         5.3660   -2.0400    1.1900 ca        1 MUF     -0.202000
     30 C57         4.4710   -1.0660    0.7570 ca        1 MUF     -0.050500
     31 O57         7.6380   -2.9170    1.1450 oh        1 MUF     -0.498100
     32 H1         -3.1670   -1.4980    1.6010 hc        1 MUF      0.026700
     33 H1A        -2.6090   -2.3990    0.1330 hc        1 MUF      0.026700
     34 H2         -4.7760   -2.2880   -0.9110 hc        1 MUF      0.061700
     35 H2A        -5.0770   -2.7510    0.8080 hc        1 MUF      0.061700
     36 H4         -5.9010    1.3320    0.4480 ha        1 MUF      0.145000
     37 H6         -4.0720    2.8400    0.9750 ha        1 MUF      0.120000
     38 H7         -1.8090    3.5090    0.2720 hc        1 MUF      0.030200
     39 H7A        -1.6260    2.5760    1.8070 hc        1 MUF      0.030200
     40 H8         -1.0870    1.6960   -1.0940 hc        1 MUF      0.057700
     41 H9         -1.3840   -0.0310    1.4580 hc        1 MUF      0.045700
     42 H11        -0.6180   -1.9500    0.1850 hc        1 MUF      0.044700
     43 H11A       -0.4680   -0.9840   -1.3340 hc        1 MUF      0.044700
     44 H12         1.2200   -0.7380    1.2430 hc        1 MUF      0.032200
     45 H12A        1.7420   -1.3480   -0.3830 hc        1 MUF      0.032200
     46 H14         0.4740    1.4730    1.5580 hc        1 MUF      0.042700
     47 H15         0.7400    3.5980   -0.6470 hc        1 MUF      0.045700
     48 H15A        0.7300    3.7950    1.1480 hc        1 MUF      0.045700
     49 H16         3.0530    3.3880   -0.5230 hc        1 MUF      0.048200
     50 H16A        3.0140    3.2690    1.2830 hc        1 MUF      0.048200
     51 H17         2.9390    0.9520    1.2920 hc        1 MUF      0.059700
     52 H18         0.3580    0.7480   -2.1830 hc        1 MUF      0.043033
     53 H18A        1.6930    1.9740   -2.0860 hc        1 MUF      0.043033
     54 H18B        2.0880    0.2150   -2.2530 hc        1 MUF      0.043033
     55 H19        -2.4620   -1.3240   -2.0030 hc        1 MUF      0.034700
     56 H19A       -3.9750   -0.3290   -1.9770 hc        1 MUF      0.034700
     57 H19B       -2.3620    0.4820   -2.1540 hc        1 MUF      0.034700
     58 H53         6.5380    0.7630   -1.2500 ha        1 MUF      0.152500
     59 H54         8.1780   -0.9710   -0.4600 ha        1 MUF      0.143500
     60 H56         5.0310   -2.8390    1.8670 ha        1 MUF      0.143500
     61 H57         3.4230   -1.1130    1.0960 ha        1 MUF      0.152500
     62 HO57        7.2040   -3.5580    1.7270 ho        1 MUF      0.420000
@<TRIPOS>BOND
     1    1    2 1   
     2    1   10 1   
     3    1   32 1   
     4    1   33 1   
     5    2    3 1   
     6    2   34 1   
     7    2   35 1   
     8    3    4 2   
     9    3   22 1   
    10    4    5 1   
    11    4   36 1   
    12    5    6 2   
    13    5   10 1   
    14    6    7 1   
    15    6   37 1   
    16    7    8 1   
    17    7   38 1   
    18    7   39 1   
    19    8    9 1   
    20    8   14 1   
    21    8   40 1   
    22    9   10 1   
    23    9   11 1   
    24    9   41 1   
    25   10   19 1   
    26   11   12 1   
    27   11   42 1   
    28   11   43 1   
    29   12   13 1   
    30   12   44 1   
    31   12   45 1   
    32   13   14 1   
    33   13   17 1   
    34   13   18 1   
    35   14   15 1   
    36   14   46 1   
    37   15   16 1   
    38   15   47 1   
    39   15   48 1   
    40   16   17 1   
    41   16   49 1   
    42   16   50 1   
    43   17   20 1   
    44   17   51 1   
    45   18   52 1   
    46   18   53 1   
    47   18   54 1   
    48   19   55 1   
    49   19   56 1   
    50   19   57 1   
    51   20   21 2   
    52   20   25 1   
    53   22   23 1   
    54   22   24 1   
    55   25   26 ar  
    56   25   30 ar  
    57   26   27 ar  
    58   26   58 1   
    59   27   28 ar  
    60   27   59 1   
    61   28   29 ar  
    62   28   31 1   
    63   29   30 ar  
    64   29   60 1   
    65   30   61 1   
    66   31   62 1   
@<TRIPOS>SUBSTRUCTURE
     1 MUF         1 TEMP              0 ****  ****    0 ROOT
