@<TRIPOS>MOLECULE
MUG
   42    44     1     0     0
SMALL
bcc


@<TRIPOS>ATOM
      1 O1          1.6920    0.7520    3.6200 os        1 MUG     -0.325200
      2 C2          1.4570    0.5890    4.9880 c         1 MUG      0.723800
      3 O2          2.2830    1.2160    5.6500 o         1 MUG     -0.566500
      4 C3          0.3500   -0.2370    5.4360 cc        1 MUG     -0.268200
      5 C4         -0.4660   -0.8630    4.5550 cd        1 MUG      0.054600
      6 CM4        -1.5970   -1.7060    5.0050 c3        1 MUG     -0.074900
      7 C4A        -0.2220   -0.6990    3.1360 ca        1 MUG     -0.171800
      8 C5         -1.0120   -1.3040    2.1420 ca        1 MUG     -0.049000
      9 C6         -0.7400   -1.1140    0.7970 ca        1 MUG     -0.200000
     10 C7          0.3480   -0.3040    0.4200 ca        1 MUG      0.164100
     11 C8          1.1600    0.3170    1.3720 ca        1 MUG     -0.177000
     12 C8A         0.8580    0.1130    2.7290 ca        1 MUG      0.175100
     13 C1'         0.3650   -1.0340   -1.8600 c3        1 MUG      0.304900
     14 O1'         0.6540   -0.0180   -0.8990 os        1 MUG     -0.371900
     15 C2'         1.3210   -0.7900   -3.0450 c3        1 MUG      0.091100
     16 O2'         2.6660   -0.7510   -2.6230 oh        1 MUG     -0.588800
     17 C3'         0.9480    0.5020   -3.7840 c3        1 MUG      0.073100
     18 O3'         1.6520    0.6070   -5.0100 oh        1 MUG     -0.604800
     19 C4'        -0.5480    0.4920   -4.1350 c3        1 MUG      0.124100
     20 O4'        -0.9380    1.7230   -4.7150 oh        1 MUG     -0.593800
     21 C5'        -1.3620    0.3160   -2.8420 c3        1 MUG      0.142100
     22 O5'        -0.9920   -0.9130   -2.2020 os        1 MUG     -0.423600
     23 C6'        -2.8550    0.1950   -3.1550 c3        1 MUG      0.135400
     24 O6'        -3.5550    0.5540   -1.9760 oh        1 MUG     -0.595800
     25 H3          0.2250   -0.3140    6.5260 ha        1 MUG      0.169000
     26 HM41       -1.6580   -1.7390    6.1210 hc        1 MUG      0.059033
     27 HM42       -2.5620   -1.2970    4.6100 hc        1 MUG      0.059033
     28 HM43       -1.4740   -2.7510    4.6260 hc        1 MUG      0.059033
     29 H5         -1.8660   -1.9330    2.4400 ha        1 MUG      0.143000
     30 H6         -1.3810   -1.5650    0.0240 ha        1 MUG      0.169000
     31 H8          2.0030    0.9570    1.0790 ha        1 MUG      0.171000
     32 H1'         0.4770   -2.0690   -1.4330 h2        1 MUG      0.102700
     33 H2'         1.2620   -1.6700   -3.7470 h1        1 MUG      0.104700
     34 HO2'        2.7360   -0.0830   -1.9270 ho        1 MUG      0.421000
     35 H3'         1.1850    1.3940   -3.1370 h1        1 MUG      0.067700
     36 HO3'        2.5850    0.4490   -4.8090 ho        1 MUG      0.425000
     37 H4'        -0.7600   -0.3480   -4.8530 h1        1 MUG      0.057700
     38 HO4'       -0.3180    1.8930   -5.4390 ho        1 MUG      0.427000
     39 H5'        -1.1750    1.1730   -2.1390 h1        1 MUG      0.094700
     40 H6'1       -3.1050    0.9020   -3.9910 h1        1 MUG      0.047200
     41 H6'2       -3.1090   -0.8580   -3.4490 h1        1 MUG      0.047200
     42 HO6'       -4.4920    0.5450   -2.2030 ho        1 MUG      0.403000
@<TRIPOS>BOND
     1    1    2 1   
     2    1   12 1   
     3    2    3 2   
     4    2    4 1   
     5    4    5 2   
     6    4   25 1   
     7    5    6 1   
     8    5    7 1   
     9    6   26 1   
    10    6   27 1   
    11    6   28 1   
    12    7    8 ar  
    13    7   12 ar  
    14    8    9 ar  
    15    8   29 1   
    16    9   10 ar  
    17    9   30 1   
    18   10   11 ar  
    19   10   14 1   
    20   11   12 ar  
    21   11   31 1   
    22   13   14 1   
    23   13   15 1   
    24   13   22 1   
    25   13   32 1   
    26   15   16 1   
    27   15   17 1   
    28   15   33 1   
    29   16   34 1   
    30   17   18 1   
    31   17   19 1   
    32   17   35 1   
    33   18   36 1   
    34   19   20 1   
    35   19   21 1   
    36   19   37 1   
    37   20   38 1   
    38   21   22 1   
    39   21   23 1   
    40   21   39 1   
    41   23   24 1   
    42   23   40 1   
    43   23   41 1   
    44   24   42 1   
@<TRIPOS>SUBSTRUCTURE
     1 MUG         1 TEMP              0 ****  ****    0 ROOT
