@<TRIPOS>MOLECULE
MUH
   53    56     1     0     0
SMALL
bcc


@<TRIPOS>ATOM
      1 C9          1.1910    0.1100   -1.0040 ca        1 MUH     -0.089000
      2 C10         2.1550   -0.2920   -0.0640 ca        1 MUH     -0.067000
      3 C11         2.0940    0.2030    1.2500 ca        1 MUH     -0.098000
      4 C12         1.0510    1.0690    1.6500 ca        1 MUH      0.005000
      5 C13         0.0860    1.4210    0.6970 ca        1 MUH     -0.095000
      6 C14         0.1460    0.9660   -0.6160 ca        1 MUH     -0.053000
      7 C15         0.9440    1.6030    3.0270 c3        1 MUH     -0.227000
      8 N3          1.3480   -0.3480   -2.3840 n4        1 MUH     -0.102000
      9 C8          0.4760    0.3760   -3.3930 c2        1 MUH      0.318000
     10 C16        -1.2940   -1.4280   -3.2980 ca        1 MUH     -0.076000
     11 C17        -0.6560   -0.3610   -3.9530 ca        1 MUH     -0.197000
     12 C18        -1.1170    0.0640   -5.2120 ca        1 MUH      0.003000
     13 C19        -2.1940   -0.5940   -5.8070 ca        1 MUH     -0.161000
     14 C20        -2.8230   -1.6590   -5.1620 ca        1 MUH      0.000000
     15 C6         -2.3700   -2.0680   -3.9010 ca        1 MUH     -0.123000
     16 C7         -2.6730   -0.1410   -7.1920 c3        1 MUH      0.471000
     17 F3         -3.9890   -0.4240   -7.4420 f         1 MUH     -0.141667
     18 F1         -2.5470    1.2090   -7.4010 f         1 MUH     -0.141667
     19 F2         -1.9770   -0.7250   -8.2200 f         1 MUH     -0.141667
     20 N4          3.1430   -0.1920    2.1980 n4        1 MUH      0.049000
     21 C21         4.9770   -0.0250    0.5750 c1        1 MUH     -0.316000
     22 C22         5.6100   -0.2560   -0.6530 cx        1 MUH      0.142000
     23 C23         6.1950    0.7980   -1.5190 cu        1 MUH     -0.264000
     24 C24         6.0300    1.5530    3.3370 c1        1 MUH      0.146000
     25 N5          5.2190    0.9670    2.7480 n2        1 MUH     -0.016000
     26 C5          4.5190    0.2440    1.7250 c2        1 MUH     -0.001000
     27 C1          6.9870    1.7040   -2.0570 c2        1 MUH     -0.007000
     28 C2          6.6170    2.3210   -3.3810 c3        1 MUH     -0.083000
     29 N1          5.3490    2.1460   -4.0130 n2        1 MUH     -0.165000
     30 C3          4.3470    1.3800   -3.7960 c2        1 MUH     -0.006000
     31 N2          4.0430    0.3800   -2.7990 n2        1 MUH     -0.236000
     32 C4          4.9380    0.2190   -1.9070 cu        1 MUH     -0.024000
     33 O1          0.8620    1.4990   -3.6910 o         1 MUH     -0.183000
     34 H10         2.9800   -0.9670   -0.3650 ha        1 MUH      0.188000
     35 H13        -0.7440    2.0920    0.9940 ha        1 MUH      0.193000
     36 H14        -0.6240    1.2980   -1.3370 ha        1 MUH      0.184000
     37 H151        0.0530    2.2760    3.1300 hc        1 MUH      0.121000
     38 H152        0.8190    0.7740    3.7700 hc        1 MUH      0.121000
     39 H153        1.8480    2.2070    3.2950 hc        1 MUH      0.121000
     40 HN3         1.1620   -1.3540   -2.4280 hn        1 MUH      0.287500
     41 H18        -0.6370    0.9180   -5.7260 ha        1 MUH      0.188000
     42 H20        -3.6800   -2.1700   -5.6410 ha        1 MUH      0.193000
     43 H6         -2.8760   -2.9030   -3.3870 ha        1 MUH      0.177000
     44 HN4         3.1730   -1.2200    2.2350 hn        1 MUH      0.250000
     45 H23         7.3940    1.9780   -4.1360 h1        1 MUH      0.150000
     46 H24         6.7840    2.0990    3.8960 ha        1 MUH      0.343000
     47 H1          7.9340    2.0530   -1.6140 ha        1 MUH      0.167000
     48 H2          6.7390    3.4450   -3.2750 h1        1 MUH      0.150000
     49 H3          3.4900    1.4850   -4.5040 h5        1 MUH      0.191000
     50 H16        -0.9800   -1.7590   -2.2960 ha        1 MUH      0.131000
     51 H32         2.3770   -0.1670   -2.6620 hn        1 MUH      0.287500
     52 H42         2.9000    0.1610    3.1310 hn        1 MUH      0.250000
     53 H22         6.1130   -1.2600   -0.6830 hc        1 MUH      0.187000
@<TRIPOS>BOND
     1    1    2 1   
     2    1    6 1   
     3    1    8 1   
     4    2    3 1   
     5    2   34 1   
     6    3    4 1   
     7    3   20 1   
     8    4    5 1   
     9    4    7 1   
    10    5    6 1   
    11    5   35 1   
    12    6   36 1   
    13    7   37 1   
    14    7   38 1   
    15    7   39 1   
    16    8    9 1   
    17    8   40 1   
    18    8   51 1   
    19    9   11 1   
    20    9   33 1   
    21   10   11 1   
    22   10   15 1   
    23   10   50 1   
    24   11   12 1   
    25   12   13 1   
    26   12   41 1   
    27   13   14 1   
    28   13   16 1   
    29   14   15 1   
    30   14   42 1   
    31   15   43 1   
    32   16   17 1   
    33   16   18 1   
    34   16   19 1   
    35   20   26 1   
    36   20   44 1   
    37   20   52 1   
    38   21   22 1   
    39   21   26 1   
    40   22   23 1   
    41   22   32 1   
    42   22   53 1   
    43   23   27 1   
    44   23   32 1   
    45   24   25 1   
    46   24   46 1   
    47   25   26 1   
    48   27   28 1   
    49   27   47 1   
    50   28   29 1   
    51   28   45 1   
    52   28   48 1   
    53   29   30 1   
    54   30   31 1   
    55   30   49 1   
    56   31   32 1   
@<TRIPOS>SUBSTRUCTURE
     1 MUH         1 TEMP              0 ****  ****    0 ROOT
