@<TRIPOS>MOLECULE
MUH
   51    56     1     0     0
SMALL
bcc


@<TRIPOS>ATOM
      1 C9         -0.0230    0.0280   -0.1530 ca        1 MUH      0.075600
      2 C10         1.3830    0.0670   -0.1450 ca        1 MUH     -0.161000
      3 C11         2.0960   -0.0100    1.0660 ca        1 MUH      0.157600
      4 C12         1.3930   -0.1720    2.2890 ca        1 MUH     -0.114300
      5 C13        -0.0010   -0.2200    2.2600 ca        1 MUH     -0.092000
      6 C14        -0.7130   -0.1170    1.0730 ca        1 MUH     -0.192000
      7 C15         2.1090   -0.2890    3.5800 c3        1 MUH     -0.043800
      8 N3         -0.7790    0.1450   -1.3330 n         1 MUH     -0.467100
      9 C8         -0.3330   -0.0430   -2.6330 c         1 MUH      0.678700
     10 C16        -2.2680    1.1970   -3.6890 ca        1 MUH     -0.078000
     11 C17        -1.3650    0.1310   -3.7030 ca        1 MUH     -0.151600
     12 C18        -1.3790   -0.7900   -4.7560 ca        1 MUH     -0.032000
     13 C19        -2.3180   -0.6460   -5.7790 ca        1 MUH     -0.175300
     14 C20        -3.2290    0.4140   -5.7650 ca        1 MUH     -0.062000
     15 C6         -3.1970    1.3360   -4.7200 ca        1 MUH     -0.141000
     16 C7         -2.3390   -1.6410   -6.9340 c3        1 MUH      0.689200
     17 F3         -3.5840   -1.8570   -7.4720 f         1 MUH     -0.233967
     18 F1         -1.5690   -1.2680   -8.0090 f         1 MUH     -0.233967
     19 F2         -1.8870   -2.8970   -6.6130 f         1 MUH     -0.233967
     20 N4          3.5080    0.0610    1.1190 nh        1 MUH     -0.599400
     21 C21         5.5030    0.2520   -0.2610 cu        1 MUH     -0.235400
     22 C22         6.8860   -0.1990   -0.1840 cx        1 MUH      0.000200
     23 C23         6.3840    1.0400   -1.1260 cx        1 MUH     -0.263100
     24 C24         4.5870    2.6040   -1.2310 c2        1 MUH      0.445200
     25 N5          3.7930    1.8760   -0.5180 ne        1 MUH     -0.545300
     26 C5          4.2690    0.6670    0.1070 ce        1 MUH      0.347600
     27 C1          6.0550    2.3850   -1.5820 c3        1 MUH     -0.108000
     28 C2          6.2500    2.4390   -3.1210 c3        1 MUH      0.134800
     29 N1          7.4390    1.9590   -3.7430 n2        1 MUH     -0.647900
     30 C3          8.1400    0.8990   -3.5210 ce        1 MUH      0.650200
     31 N2          8.1550   -0.1280   -2.5300 ne        1 MUH     -0.685000
     32 C4          7.3130    0.0200   -1.5770 cu        1 MUH      0.499300
     33 O1          0.8390   -0.3460   -2.9210 o         1 MUH     -0.572100
     34 H10         1.9300    0.1550   -1.1000 ha        1 MUH      0.181000
     35 H13        -0.5530   -0.3390    3.2060 ha        1 MUH      0.134000
     36 H14        -1.8120   -0.1520    1.1010 ha        1 MUH      0.130000
     37 H151        2.7600   -1.2000    3.5870 hc        1 MUH      0.043367
     38 H152        2.7600    0.6060    3.7510 hc        1 MUH      0.043367
     39 H153        1.3920   -0.3690    4.4330 hc        1 MUH      0.043367
     40 HN3        -1.7580    0.2750   -1.2030 hn        1 MUH      0.318500
     41 H18        -0.6480   -1.6170   -4.7760 ha        1 MUH      0.174000
     42 H20        -3.9660    0.5140   -6.5780 ha        1 MUH      0.156000
     43 H6         -3.9060    2.1780   -4.7110 ha        1 MUH      0.148000
     44 HN4         3.9330   -0.7620    1.4960 hn        1 MUH      0.424800
     45 H22         7.4790   -0.4830    0.6800 hc        1 MUH      0.137700
     46 H23         6.1790    3.5260   -3.4180 h1        1 MUH      0.067700
     47 H24         4.1390    3.5190   -1.6700 h4        1 MUH      0.033800
     48 H1          6.6710    3.1900   -1.0970 hc        1 MUH      0.087700
     49 H2          5.3740    1.8980   -3.5900 h1        1 MUH      0.067700
     50 H3          8.9750    0.7280   -4.2430 h5        1 MUH      0.051800
     51 H16        -2.2420    1.9420   -2.8770 ha        1 MUH      0.146000
@<TRIPOS>BOND
     1    1    2 ar  
     2    1    6 ar  
     3    1    8 1   
     4    2    3 ar  
     5    2   34 1   
     6    3    4 ar  
     7    3   20 1   
     8    4    5 ar  
     9    4    7 1   
    10    5    6 ar  
    11    5   35 1   
    12    6   36 1   
    13    7   37 1   
    14    7   38 1   
    15    7   39 1   
    16    8    9 1   
    17    8   40 1   
    18    9   11 1   
    19    9   33 2   
    20   10   11 ar  
    21   10   15 ar  
    22   10   51 1   
    23   11   12 ar  
    24   12   13 ar  
    25   12   41 1   
    26   13   14 ar  
    27   13   16 1   
    28   14   15 ar  
    29   14   42 1   
    30   15   43 1   
    31   16   17 1   
    32   16   18 1   
    33   16   19 1   
    34   20   26 1   
    35   20   44 1   
    36   21   22 1   
    37   21   23 1   
    38   21   26 2   
    39   22   23 1   
    40   22   32 1   
    41   22   45 1   
    42   23   27 1   
    43   23   32 1   
    44   24   25 2   
    45   24   27 1   
    46   24   47 1   
    47   25   26 1   
    48   27   28 1   
    49   27   48 1   
    50   28   29 1   
    51   28   46 1   
    52   28   49 1   
    53   29   30 2   
    54   30   31 1   
    55   30   50 1   
    56   31   32 2   
@<TRIPOS>SUBSTRUCTURE
     1 MUH         1 TEMP              0 ****  ****    0 ROOT
