@<TRIPOS>MOLECULE
MUH
   51    54     1     0     0
SMALL
bcc


@<TRIPOS>ATOM
      1 C9          5.2820   -4.3360   -0.0650 ca        1 MUH      0.073600
      2 C10         6.6430   -3.9910   -0.0160 ca        1 MUH     -0.137000
      3 C11         7.6110   -4.8070   -0.6360 ca        1 MUH      0.165600
      4 C12         7.2110   -5.9820   -1.3190 ca        1 MUH     -0.135300
      5 C13         5.8520   -6.3040   -1.3640 ca        1 MUH     -0.089000
      6 C14         4.8930   -5.5100   -0.7530 ca        1 MUH     -0.193000
      7 C15         8.1940   -6.8680   -1.9860 c3        1 MUH     -0.053800
      8 N3          4.2810   -3.5720    0.5640 n         1 MUH     -0.466100
      9 C8          4.3810   -2.2580    0.9960 c         1 MUH      0.677700
     10 C16         2.3870   -2.4060    2.5450 ca        1 MUH     -0.078000
     11 C17         3.1460   -1.6870    1.6180 ca        1 MUH     -0.150600
     12 C18         2.7830   -0.3790    1.2750 ca        1 MUH     -0.032000
     13 C19         1.6470    0.1900    1.8510 ca        1 MUH     -0.175300
     14 C20         0.8790   -0.5290    2.7720 ca        1 MUH     -0.063000
     15 C6          1.2560   -1.8250    3.1200 ca        1 MUH     -0.141000
     16 C7          1.2480    1.6150    1.4900 c3        1 MUH      0.689200
     17 F3         -0.1060    1.8500    1.5200 f         1 MUH     -0.234300
     18 F1          1.7710    2.5740    2.3240 f         1 MUH     -0.234300
     19 F2          1.6310    2.0150    0.2330 f         1 MUH     -0.234300
     20 N4          8.9660   -4.3970   -0.6520 nh        1 MUH     -0.723300
     21 C21        10.9920   -3.5470    0.4310 cp        1 MUH     -0.321800
     22 C22        11.6520   -3.1800    1.6110 ca        1 MUH     -0.045000
     23 C23        11.0290   -3.3570    2.8410 ca        1 MUH     -0.293300
     24 C24         9.7360   -3.9120    2.8470 ca        1 MUH      0.447200
     25 N5          9.0670   -4.2780    1.7490 nb        1 MUH     -0.710000
     26 C5          9.6700   -4.0980    0.5260 ca        1 MUH      0.682200
     27 C1         12.2350   -2.0470   -1.1040 ca        1 MUH     -0.353600
     28 C2         12.9280   -1.8700   -2.3150 ca        1 MUH      0.429200
     29 N1         13.0840   -2.8650   -3.2110 nb        1 MUH     -0.693000
     30 C3         12.5180   -4.0550   -2.8710 ca        1 MUH      0.634900
     31 N2         11.8260   -4.3430   -1.7390 nb        1 MUH     -0.712000
     32 C4         11.6860   -3.3270   -0.8450 cp        1 MUH      0.514800
     33 O1          5.4120   -1.5710    0.8830 o         1 MUH     -0.571100
     34 H10         6.9610   -3.0720    0.5080 ha        1 MUH      0.182000
     35 H13         5.5340   -7.2150   -1.8950 ha        1 MUH      0.133000
     36 H14         3.8350   -5.8060   -0.8110 ha        1 MUH      0.129000
     37 H151        8.9950   -7.1830   -1.2710 hc        1 MUH      0.045367
     38 H152        7.7000   -7.7910   -2.3770 hc        1 MUH      0.045367
     39 H153        8.6760   -6.3440   -2.8500 hc        1 MUH      0.045367
     40 HN3         3.3810   -3.9970    0.6040 hn        1 MUH      0.318500
     41 H18         3.3990    0.1940    0.5610 ha        1 MUH      0.174000
     42 H20        -0.0170   -0.0680    3.2170 ha        1 MUH      0.156000
     43 H6          0.6600   -2.3900    3.8530 ha        1 MUH      0.148000
     44 HN4         9.5160   -4.8390   -1.3600 hn        1 MUH      0.446800
     45 H22        12.6650   -2.7530    1.5550 ha        1 MUH      0.141000
     46 H23        11.5240   -3.0780    3.7790 ha        1 MUH      0.148000
     47 H24         9.1980   -4.0810    3.7990 h4        1 MUH      0.025100
     48 H1         12.1130   -1.2260   -0.3880 ha        1 MUH      0.160000
     49 H2         13.3770   -0.8950   -2.5810 h4        1 MUH      0.031100
     50 H3         12.6360   -4.8860   -3.5980 h5        1 MUH      0.054100
     51 H16         2.6830   -3.4250    2.8410 ha        1 MUH      0.147000
@<TRIPOS>BOND
     1    1    2 ar  
     2    1    6 ar  
     3    1    8 1   
     4    2    3 ar  
     5    2   34 1   
     6    3    4 ar  
     7    3   20 1   
     8    4    5 ar  
     9    4    7 1   
    10    5    6 ar  
    11    5   35 1   
    12    6   36 1   
    13    7   37 1   
    14    7   38 1   
    15    7   39 1   
    16    8    9 1   
    17    8   40 1   
    18    9   11 1   
    19    9   33 2   
    20   10   11 ar  
    21   10   15 ar  
    22   10   51 1   
    23   11   12 ar  
    24   12   13 ar  
    25   12   41 1   
    26   13   14 ar  
    27   13   16 1   
    28   14   15 ar  
    29   14   42 1   
    30   15   43 1   
    31   16   17 1   
    32   16   18 1   
    33   16   19 1   
    34   20   26 1   
    35   20   44 1   
    36   21   22 ar  
    37   21   26 ar  
    38   21   32 1   
    39   22   23 ar  
    40   22   45 1   
    41   23   24 ar  
    42   23   46 1   
    43   24   25 ar  
    44   24   47 1   
    45   25   26 ar  
    46   27   28 ar  
    47   27   32 ar  
    48   27   48 1   
    49   28   29 ar  
    50   28   49 1   
    51   29   30 ar  
    52   30   31 ar  
    53   30   50 1   
    54   31   32 ar  
@<TRIPOS>SUBSTRUCTURE
     1 MUH         1 TEMP              0 ****  ****    0 ROOT
