@<TRIPOS>MOLECULE
MUH
   51    55     1     0     0
SMALL
bcc


@<TRIPOS>ATOM
      1 C9          0.0270    0.0280   -0.0730 ca        1 MUH      0.089000
      2 C10         1.4180    0.2310   -0.0330 ca        1 MUH     -0.175000
      3 C11         2.1180    0.1710    1.1880 ca        1 MUH      0.085000
      4 C12         1.4180   -0.1380    2.3840 ca        1 MUH     -0.124000
      5 C13         0.0390   -0.3430    2.3220 ca        1 MUH     -0.084000
      6 C14        -0.6620   -0.2610    1.1280 ca        1 MUH     -0.202000
      7 C15         2.1200   -0.2390    3.6840 c3        1 MUH     -0.169000
      8 N3         -0.7190    0.1180   -1.2630 ns        1 MUH     -0.320000
      9 C8         -0.2330    0.0570   -2.5600 c2        1 MUH      0.353000
     10 C16        -2.2800    1.1250   -3.5910 ca        1 MUH     -0.078000
     11 C17        -1.2610    0.1700   -3.6420 ca        1 MUH     -0.131000
     12 C18        -1.1530   -0.6880   -4.7420 ca        1 MUH     -0.032000
     13 C19        -2.0860   -0.5950   -5.7760 ca        1 MUH     -0.168000
     14 C20        -3.1130    0.3520   -5.7270 ca        1 MUH     -0.062000
     15 C6         -3.2030    1.2130   -4.6340 ca        1 MUH     -0.140000
     16 C7         -1.9740   -1.5210   -6.9810 c3        1 MUH      0.468000
     17 F3         -3.1780   -1.8460   -7.5590 f         1 MUH     -0.162667
     18 F1         -1.2330   -1.0070   -8.0180 f         1 MUH     -0.162667
     19 F2         -1.3880   -2.7350   -6.7170 f         1 MUH     -0.162667
     20 N4          3.5030    0.4250    1.2770 nu        1 MUH     -0.219000
     21 C21         5.4070    0.4030   -0.2670 cv        1 MUH     -0.207000
     22 C22         6.3740   -0.6880   -0.4550 cv        1 MUH      0.047000
     23 C23         6.1920    1.1100   -1.2650 cv        1 MUH      0.047000
     24 C24         4.5160    2.7770   -1.3080 c2        1 MUH     -0.081000
     25 N5          3.7980    2.1690   -0.4180 n2        1 MUH     -0.093000
     26 C5          4.2370    0.9480    0.1910 c2        1 MUH      0.034000
     27 C1          5.9090    2.4200   -1.7970 c3        1 MUH     -0.134000
     28 C2          6.1040    2.3320   -3.3400 c3        1 MUH     -0.061000
     29 N1          7.3540    1.8530   -3.8320 n2        1 MUH     -0.273000
     30 C3          8.0250    0.7950   -3.4910 c2        1 MUH      0.031000
     31 N2          7.9070   -0.2290   -2.5320 n2        1 MUH     -0.254000
     32 C4          7.0440   -0.0350   -1.5750 cv        1 MUH      0.025000
     33 O1          0.9710   -0.0910   -2.8400 o         1 MUH     -0.337000
     34 H10         1.9620    0.4330   -0.9700 ha        1 MUH      0.178000
     35 H13        -0.5100   -0.5760    3.2490 ha        1 MUH      0.133000
     36 H14        -1.7500   -0.4240    1.1300 ha        1 MUH      0.130000
     37 H151        2.8690   -1.0710    3.6630 hc        1 MUH      0.081667
     38 H152        2.6610    0.7140    3.9140 hc        1 MUH      0.081667
     39 H153        1.4020   -0.4420    4.5160 hc        1 MUH      0.081667
     40 HN3        -1.7080    0.1300   -1.1480 hn        1 MUH      0.233000
     41 H18        -0.3320   -1.4240   -4.7890 ha        1 MUH      0.173000
     42 H20        -3.8440    0.4120   -6.5490 ha        1 MUH      0.156000
     43 H6         -4.0040    1.9670   -4.5970 ha        1 MUH      0.148000
     44 HN4         4.0040   -0.2810    1.7770 hn        1 MUH      0.211000
     45 H22         6.5450   -1.6230    0.0630 ha        1 MUH      0.181000
     46 H23         5.9920    3.3780   -3.7480 h1        1 MUH      0.107000
     47 H24         4.0720    3.6830   -1.7630 h4        1 MUH      0.170000
     48 H1          6.6270    3.2020   -1.4080 hc        1 MUH      0.161000
     49 H2          5.2600    1.7080   -3.7540 h1        1 MUH      0.107000
     50 H3          8.9330    0.6170   -4.1190 h5        1 MUH      0.176000
     51 H16        -2.3530    1.8230   -2.7420 ha        1 MUH      0.147000
@<TRIPOS>BOND
     1    1    2 1   
     2    1    6 1   
     3    1    8 1   
     4    2    3 1   
     5    2   34 1   
     6    3    4 1   
     7    3   20 1   
     8    4    5 1   
     9    4    7 1   
    10    5    6 1   
    11    5   35 1   
    12    6   36 1   
    13    7   37 1   
    14    7   38 1   
    15    7   39 1   
    16    8    9 1   
    17    8   40 1   
    18    9   11 1   
    19    9   33 1   
    20   10   11 1   
    21   10   15 1   
    22   10   51 1   
    23   11   12 1   
    24   12   13 1   
    25   12   41 1   
    26   13   14 1   
    27   13   16 1   
    28   14   15 1   
    29   14   42 1   
    30   15   43 1   
    31   16   17 1   
    32   16   18 1   
    33   16   19 1   
    34   20   26 1   
    35   20   44 1   
    36   21   22 1   
    37   21   23 1   
    38   21   26 1   
    39   22   32 1   
    40   22   45 1   
    41   23   27 1   
    42   23   32 1   
    43   24   25 1   
    44   24   27 1   
    45   24   47 1   
    46   25   26 1   
    47   27   28 1   
    48   27   48 1   
    49   28   29 1   
    50   28   46 1   
    51   28   49 1   
    52   29   30 1   
    53   30   31 1   
    54   30   50 1   
    55   31   32 1   
@<TRIPOS>SUBSTRUCTURE
     1 MUH         1 TEMP              0 ****  ****    0 ROOT
