@<TRIPOS>MOLECULE
MUI
   84    79     1     0     0
SMALL
bcc


@<TRIPOS>ATOM
      1 O45        -5.3090   -0.5100    8.9350 o         1 MUI     -0.300000
      2 C46        -6.0960   -1.0460    8.0780 c1        1 MUI      0.271000
      3 C47        -7.3160   -1.8910    8.5610 c2        1 MUI     -0.266000
      4 C40        -5.7960   -0.9180    6.5660 c2        1 MUI     -0.183000
      5 C41        -6.3860    0.1300    5.8050 c2        1 MUI     -0.044000
      6 C42        -6.1070    0.2420    4.4410 c1        1 MUI     -0.194000
      7 C45        -4.9640   -1.8060    5.9690 c1        1 MUI     -0.060000
      8 C44        -4.6830   -1.6930    4.5950 c1        1 MUI     -0.182000
      9 C43        -5.2620   -0.6610    3.8390 c1        1 MUI      0.126000
     10 N24        -4.9920   -0.5660    2.4500 n         1 MUI     -0.297000
     11 C26        -5.5600   -1.3550    1.4510 c2        1 MUI      0.405000
     12 O27        -6.6840   -1.8950    1.4950 o         1 MUI     -0.303000
     13 O28        -4.6660   -1.3490    0.3180 os        1 MUI     -0.242000
     14 C25        -4.0630    0.3250    1.8370 c3        1 MUI     -0.044000
     15 C29        -3.8410   -0.1820    0.4040 c3        1 MUI     -0.010000
     16 C21        -2.3670   -0.4420    0.0640 c2        1 MUI      0.296000
     17 O22        -1.5760   -0.6960    0.9530 o         1 MUI     -0.378000
     18 N20        -1.8930   -0.2730   -1.3050 n         1 MUI     -0.350000
     19 C19        -0.5270   -0.5280   -1.6180 c3        1 MUI     -0.006000
     20 C32        -0.3970   -1.9330   -2.1870 c3        1 MUI     -0.136000
     21 C38         0.3570   -2.8800   -1.1090 c2        1 MUI     -0.085000
     22 C37         1.6380   -2.5990   -0.7340 c2        1 MUI     -0.126000
     23 C36         2.3020   -3.4340    0.1830 c1        1 MUI     -0.127000
     24 C35         1.6610   -4.5320    0.7000 c1        1 MUI     -0.125500
     25 C34         0.3720   -4.8160    0.3240 c1        1 MUI     -0.125500
     26 C33        -0.2880   -3.9870   -0.5860 c1        1 MUI     -0.128000
     27 C17        -0.0570    0.4710   -2.6230 c3        1 MUI     -0.022000
     28 O18        -0.5520    0.1420   -3.8640 oh        1 MUI     -0.324000
     29 C16         1.4680    0.4690   -2.6660 c3        1 MUI     -0.010000
     30 N11         1.9340    1.6500   -3.3820 n3        1 MUI     -0.822000
     31 C12         3.1650    1.4100   -3.8990 c3        1 MUI     -0.019000
     32 C13         3.0840    1.4770   -5.4910 c3        1 MUI     -0.138000
     33 C15         3.2630    2.8820   -5.9340 c3        1 MUI     -0.211500
     34 C14         4.1900    0.5890   -6.1020 c3        1 MUI     -0.211500
     35 S8          1.9940    2.8930   -2.3960 s4        1 MUI      2.067800
     36 O10         0.7810    3.0550   -1.7100 o         1 MUI     -0.547900
     37 O9          2.0710    4.1380   -3.1270 o         1 MUI     -0.547900
     38 C5          3.4060    2.7170   -1.2230 c1        1 MUI     -0.876000
     39 C6          4.6800    3.2230   -1.5650 c2        1 MUI      0.014000
     40 C7          5.7310    3.1420   -0.6510 c1        1 MUI     -0.190000
     41 C2          5.5220    2.5620    0.6020 c1        1 MUI      0.143000
     42 O19         6.6100    2.4490    1.5340 os        1 MUI     -0.204000
     43 C18         7.3030    1.1950    1.4680 c3        1 MUI     -0.080000
     44 C3          4.2500    2.0580    0.9400 c1        1 MUI     -0.235000
     45 C4          3.2000    2.1390    0.0260 c1        1 MUI      0.022000
     46 H471       -7.4200   -1.7880    9.5670 ha        1 MUI      0.104667
     47 H472       -8.1140   -1.5790    8.1240 ha        1 MUI      0.104667
     48 H473       -7.1660   -2.8660    8.3330 ha        1 MUI      0.104667
     49 H41        -6.9670    0.7510    6.2210 ha        1 MUI      0.160000
     50 H42        -6.5340    1.0040    3.8830 ha        1 MUI      0.141000
     51 H45        -4.5700   -2.5090    6.4810 ha        1 MUI      0.141000
     52 H44        -4.1160   -2.3010    4.1890 ha        1 MUI      0.172000
     53 H251       -4.5500    1.2560    1.7540 h1        1 MUI      0.127500
     54 H252       -3.2390    0.2130    2.2950 h1        1 MUI      0.127500
     55 H29        -4.1010    0.5400   -0.3170 h1        1 MUI      0.153000
     56 HN20       -2.4800   -0.1430   -1.9640 hn        1 MUI      0.245000
     57 H19         0.0430   -0.4480   -0.7630 h1        1 MUI      0.121000
     58 H321       -1.3410   -2.3140   -2.3830 hc        1 MUI      0.107500
     59 H322        0.1240   -1.9030   -3.0190 hc        1 MUI      0.107500
     60 H37         2.0770   -1.8450   -1.0890 ha        1 MUI      0.130000
     61 H36         3.2200   -3.2330    0.4510 ha        1 MUI      0.132000
     62 H35         2.1030   -5.0890    1.3100 ha        1 MUI      0.136500
     63 H34        -0.1010   -5.6260    0.7070 ha        1 MUI      0.136500
     64 H33        -1.1600   -4.1780   -0.8410 ha        1 MUI      0.132000
     65 H17        -0.3800    1.3790   -2.3650 h1        1 MUI      0.124000
     66 HO18       -1.3340    0.5650   -3.9930 ho        1 MUI      0.207000
     67 H161        1.7880   -0.3560   -3.1380 h1        1 MUI      0.102500
     68 H162        1.8250    0.4800   -1.7460 h1        1 MUI      0.102500
     69 H121        3.4680    0.5230   -3.6240 h1        1 MUI      0.098000
     70 H122        3.8030    2.0960   -3.5700 h1        1 MUI      0.098000
     71 H13         2.1830    1.1450   -5.7960 hc        1 MUI      0.115000
     72 H151        3.7980    3.3350   -5.3200 hc        1 MUI      0.076500
     73 H152        3.7210    2.8950   -6.8670 hc        1 MUI      0.076500
     74 H153        2.3330    3.3470   -5.9970 hc        1 MUI      0.076500
     75 H141        5.0810    0.8710   -5.7480 hc        1 MUI      0.076500
     76 H142        4.0210   -0.3630   -5.8530 hc        1 MUI      0.076500
     77 H143        4.1810    0.6810   -7.1180 hc        1 MUI      0.076500
     78 H6          4.8220    3.6110   -2.4080 ha        1 MUI      0.156000
     79 H7          6.6350    3.5020   -0.8930 ha        1 MUI      0.158000
     80 H181        7.5680    1.0290    0.5780 h1        1 MUI      0.090000
     81 H182        6.6990    0.4630    1.7780 h1        1 MUI      0.090000
     82 H183        8.0520    1.2270    2.0110 h1        1 MUI      0.090000
     83 H3          4.0990    1.6340    1.8520 ha        1 MUI      0.152000
     84 H4          2.3310    1.7970    0.2590 ha        1 MUI      0.173000
@<TRIPOS>BOND
     1    1    2 1   
     2    2    4 1   
     3    3   46 1   
     4    3   47 1   
     5    3   48 1   
     6    4    5 1   
     7    4    7 1   
     8    5    6 1   
     9    5   49 1   
    10    6   50 1   
    11    7   51 1   
    12    8    9 1   
    13    8   52 1   
    14    9   10 1   
    15   10   11 1   
    16   10   14 1   
    17   11   12 1   
    18   11   13 1   
    19   13   15 1   
    20   14   15 1   
    21   14   53 1   
    22   14   54 1   
    23   15   16 1   
    24   15   55 1   
    25   16   17 1   
    26   16   18 1   
    27   18   19 1   
    28   18   56 1   
    29   19   20 1   
    30   19   27 1   
    31   19   57 1   
    32   20   21 1   
    33   20   58 1   
    34   20   59 1   
    35   21   22 1   
    36   21   26 1   
    37   22   23 1   
    38   22   60 1   
    39   23   61 1   
    40   24   25 1   
    41   24   62 1   
    42   25   63 1   
    43   26   64 1   
    44   27   28 1   
    45   27   29 1   
    46   27   65 1   
    47   28   66 1   
    48   29   30 1   
    49   29   67 1   
    50   29   68 1   
    51   30   31 1   
    52   30   35 1   
    53   31   32 1   
    54   31   69 1   
    55   31   70 1   
    56   32   33 1   
    57   32   34 1   
    58   32   71 1   
    59   33   72 1   
    60   33   73 1   
    61   33   74 1   
    62   34   75 1   
    63   34   76 1   
    64   34   77 1   
    65   35   36 1   
    66   35   37 1   
    67   38   39 1   
    68   38   45 1   
    69   39   40 1   
    70   39   78 1   
    71   40   79 1   
    72   41   42 1   
    73   41   44 1   
    74   42   43 1   
    75   43   80 1   
    76   43   81 1   
    77   43   82 1   
    78   44   83 1   
    79   45   84 1   
@<TRIPOS>SUBSTRUCTURE
     1 MUI         1 TEMP              0 ****  ****    0 ROOT
