@<TRIPOS>MOLECULE
MUI
   84    87     1     0     0
SMALL
bcc


@<TRIPOS>ATOM
      1 O45         9.3580   -2.8680    0.4190 o         1 MUI     -0.536100
      2 C46         8.5850   -3.7850    0.7280 c         1 MUI      0.579700
      3 C47         8.9670   -4.8050    1.7540 c3        1 MUI     -0.198100
      4 C40         7.2530   -3.9140    0.1020 ca        1 MUI     -0.202600
      5 C41         6.3680   -4.9420    0.4410 ca        1 MUI     -0.052000
      6 C42         5.1200   -5.0400   -0.1620 ca        1 MUI     -0.186000
      7 C45         6.8600   -2.9770   -0.8640 ca        1 MUI     -0.052000
      8 C44         5.6180   -3.0550   -1.4800 ca        1 MUI     -0.186000
      9 C43         4.7230   -4.0930   -1.1370 ca        1 MUI      0.115600
     10 N24         3.4720   -4.2110   -1.7590 n         1 MUI     -0.392000
     11 C26         2.9070   -3.2950   -2.6570 c         1 MUI      0.835600
     12 O27         3.3490   -2.3250   -3.2660 o         1 MUI     -0.572500
     13 O28         1.5730   -3.6260   -2.9060 os        1 MUI     -0.404900
     14 C25         2.4750   -5.1860   -1.3430 c3        1 MUI      0.072000
     15 C29         1.1950   -4.7760   -2.1200 c3        1 MUI      0.052100
     16 C21         0.0390   -4.4760   -1.1650 c         1 MUI      0.642100
     17 O22        -0.2430   -5.3290   -0.2940 o         1 MUI     -0.620100
     18 N20        -0.6980   -3.3360   -1.3450 n         1 MUI     -0.536900
     19 C19        -1.6940   -2.8990   -0.3860 c3        1 MUI      0.069700
     20 C32        -1.8410   -1.3670   -0.3600 c3        1 MUI     -0.064100
     21 C38        -0.5400   -0.6810   -0.1410 ca        1 MUI     -0.092300
     22 C37         0.0310   -0.6400    1.1370 ca        1 MUI     -0.128000
     23 C36         1.2450    0.0110    1.3440 ca        1 MUI     -0.126000
     24 C35         1.9000    0.6270    0.2770 ca        1 MUI     -0.129000
     25 C34         1.3350    0.5930   -0.9970 ca        1 MUI     -0.126000
     26 C33         0.1190   -0.0580   -1.2070 ca        1 MUI     -0.128000
     27 C17        -3.1010   -3.5250   -0.6040 c3        1 MUI      0.116100
     28 O18        -3.1800   -4.7950    0.0110 oh        1 MUI     -0.601800
     29 C16        -3.5040   -3.6160   -2.0940 c3        1 MUI      0.208800
     30 N11        -4.8690   -3.2720   -2.3890 n3        1 MUI     -0.804500
     31 C12        -5.8760   -4.2830   -2.1970 c3        1 MUI      0.235800
     32 C13        -6.3420   -4.5160   -0.7500 c3        1 MUI     -0.095700
     33 C15        -6.9720   -3.2750   -0.1600 c3        1 MUI     -0.090600
     34 C14        -7.3280   -5.6660   -0.7460 c3        1 MUI     -0.090600
     35 S8         -5.2420   -1.8080   -3.0120 sy        1 MUI      1.507200
     36 O10        -4.2110   -0.8920   -2.6770 o         1 MUI     -0.658300
     37 O9         -6.5560   -1.4390   -2.6530 o         1 MUI     -0.658300
     38 C5         -5.1970   -2.0690   -4.6720 ca        1 MUI     -0.423500
     39 C6         -4.0180   -1.8690   -5.4010 ca        1 MUI      0.017500
     40 C7         -3.9740   -2.0520   -6.7780 ca        1 MUI     -0.210500
     41 C2         -5.1410   -2.4460   -7.4490 ca        1 MUI      0.190100
     42 O19        -5.2240   -2.6650   -8.8030 os        1 MUI     -0.319900
     43 C18        -4.0370   -2.4390   -9.5600 c3        1 MUI      0.109700
     44 C3         -6.3440   -2.6470   -6.7390 ca        1 MUI     -0.210500
     45 C4         -6.3540   -2.4540   -5.3680 ca        1 MUI      0.017500
     46 H471        8.9590   -5.8250    1.2990 hc        1 MUI      0.064700
     47 H472        8.2440   -4.7800    2.6050 hc        1 MUI      0.064700
     48 H473        9.9920   -4.5940    2.1460 hc        1 MUI      0.064700
     49 H41         6.6500   -5.6930    1.1970 ha        1 MUI      0.150500
     50 H42         4.4530   -5.8650    0.1290 ha        1 MUI      0.156500
     51 H45         7.5570   -2.1640   -1.1350 ha        1 MUI      0.150500
     52 H44         5.3410   -2.3010   -2.2360 ha        1 MUI      0.156500
     53 H251        2.3030   -5.1570   -0.2320 h1        1 MUI      0.086200
     54 H252        2.8020   -6.2200   -1.6370 h1        1 MUI      0.086200
     55 H29         0.8650   -5.5680   -2.8450 h1        1 MUI      0.109700
     56 HN20       -0.3560   -2.6460   -1.9800 hn        1 MUI      0.334500
     57 H19        -1.3580   -3.2450    0.6420 h1        1 MUI      0.081700
     58 H321       -2.3230   -1.0110   -1.3130 hc        1 MUI      0.084200
     59 H322       -2.5420   -1.1110    0.4810 hc        1 MUI      0.084200
     60 H37        -0.4860   -1.1220    1.9800 ha        1 MUI      0.134000
     61 H36         1.6860    0.0410    2.3510 ha        1 MUI      0.135000
     62 H35         2.8580    1.1410    0.4410 ha        1 MUI      0.134000
     63 H34         1.8480    1.0780   -1.8410 ha        1 MUI      0.135000
     64 H33        -0.3300   -0.0700   -2.2120 ha        1 MUI      0.134000
     65 H17        -3.8450   -2.9040   -0.0240 h1        1 MUI      0.091700
     66 HO18       -2.4230   -5.3240   -0.2780 ho        1 MUI      0.421000
     67 H161       -3.2970   -4.6690   -2.4420 h1        1 MUI      0.054200
     68 H162       -2.8530   -2.9130   -2.6930 h1        1 MUI      0.054200
     69 H121       -5.4910   -5.2660   -2.5980 h1        1 MUI      0.043700
     70 H122       -6.7770   -3.9870   -2.8130 h1        1 MUI      0.043700
     71 H13        -5.4470   -4.8050   -0.1270 hc        1 MUI      0.080700
     72 H151       -7.7360   -2.8460   -0.8540 hc        1 MUI      0.037033
     73 H152       -7.4640   -3.5160    0.8130 hc        1 MUI      0.037033
     74 H153       -6.1970   -2.4920    0.0250 hc        1 MUI      0.037033
     75 H141       -8.2340   -5.4130   -1.3480 hc        1 MUI      0.037033
     76 H142       -7.6510   -5.8860    0.3000 hc        1 MUI      0.037033
     77 H143       -6.8620   -6.5870   -1.1720 hc        1 MUI      0.037033
     78 H6         -3.1070   -1.5400   -4.8680 ha        1 MUI      0.152500
     79 H7         -3.0350   -1.8830   -7.3230 ha        1 MUI      0.153000
     80 H181       -3.7080   -1.3770   -9.4650 h1        1 MUI      0.051367
     81 H182       -4.3560   -2.6640  -10.6090 h1        1 MUI      0.051367
     82 H183       -3.2270   -3.1350   -9.2340 h1        1 MUI      0.051367
     83 H3         -7.2500   -2.9460   -7.2840 ha        1 MUI      0.153000
     84 H4         -7.2970   -2.5880   -4.8060 ha        1 MUI      0.152500
@<TRIPOS>BOND
     1    1    2 2   
     2    2    3 1   
     3    2    4 1   
     4    3   46 1   
     5    3   47 1   
     6    3   48 1   
     7    4    5 ar  
     8    4    7 ar  
     9    5    6 ar  
    10    5   49 1   
    11    6    9 ar  
    12    6   50 1   
    13    7    8 ar  
    14    7   51 1   
    15    8    9 ar  
    16    8   52 1   
    17    9   10 1   
    18   10   11 1   
    19   10   14 1   
    20   11   12 2   
    21   11   13 1   
    22   13   15 1   
    23   14   15 1   
    24   14   53 1   
    25   14   54 1   
    26   15   16 1   
    27   15   55 1   
    28   16   17 2   
    29   16   18 1   
    30   18   19 1   
    31   18   56 1   
    32   19   20 1   
    33   19   27 1   
    34   19   57 1   
    35   20   21 1   
    36   20   58 1   
    37   20   59 1   
    38   21   22 ar  
    39   21   26 ar  
    40   22   23 ar  
    41   22   60 1   
    42   23   24 ar  
    43   23   61 1   
    44   24   25 ar  
    45   24   62 1   
    46   25   26 ar  
    47   25   63 1   
    48   26   64 1   
    49   27   28 1   
    50   27   29 1   
    51   27   65 1   
    52   28   66 1   
    53   29   30 1   
    54   29   67 1   
    55   29   68 1   
    56   30   31 1   
    57   30   35 1   
    58   31   32 1   
    59   31   69 1   
    60   31   70 1   
    61   32   33 1   
    62   32   34 1   
    63   32   71 1   
    64   33   72 1   
    65   33   73 1   
    66   33   74 1   
    67   34   75 1   
    68   34   76 1   
    69   34   77 1   
    70   35   36 2   
    71   35   37 2   
    72   35   38 1   
    73   38   39 ar  
    74   38   45 ar  
    75   39   40 ar  
    76   39   78 1   
    77   40   41 ar  
    78   40   79 1   
    79   41   42 1   
    80   41   44 ar  
    81   42   43 1   
    82   43   80 1   
    83   43   81 1   
    84   43   82 1   
    85   44   45 ar  
    86   44   83 1   
    87   45   84 1   
@<TRIPOS>SUBSTRUCTURE
     1 MUI         1 TEMP              0 ****  ****    0 ROOT
