@<TRIPOS>MOLECULE
MUJ
   49    44     1     0     0
SMALL
bcc


@<TRIPOS>ATOM
      1 N1         -1.8320   -6.3570    1.7420 n1        1 MUJ     -0.290000
      2 C2         -1.7850   -4.3770    0.4310 c1        1 MUJ     -0.282000
      3 C3         -2.0660   -5.7210    0.5580 c1        1 MUJ      0.178000
      4 C4         -1.2710   -3.6830    1.4930 c1        1 MUJ      0.027000
      5 C5         -1.3150   -5.6580    2.8080 c1        1 MUJ      0.174000
      6 N6         -1.0360   -4.3240    2.6820 n1        1 MUJ     -0.248000
      7 C7         -2.1650   -3.6420   -0.8330 c3        1 MUJ     -0.056000
      8 C8         -1.6460   -2.1820   -0.7590 c2        1 MUJ     -0.053000
      9 C9         -1.1800   -0.1820    0.5330 c1        1 MUJ     -0.111000
     10 C10        -1.7210   -1.4690    0.4460 c2        1 MUJ     -0.146000
     11 C11        -0.5710    0.3890   -0.5710 c1        1 MUJ      0.031000
     12 C12        -1.0350   -1.6080   -1.8660 c1        1 MUJ     -0.188000
     13 C13        -0.4940   -0.3220   -1.7790 c1        1 MUJ      0.053000
     14 O14        -0.0570    0.3210   -2.9320 os        1 MUJ     -0.208000
     15 C15         1.1350   -0.2160   -3.4700 c3        1 MUJ     -0.078000
     16 O16        -0.0500    1.7330   -0.4900 os        1 MUJ     -0.216000
     17 C17         1.1700    1.8470    0.2820 c3        1 MUJ      0.021000
     18 C18         1.6220    3.3070    0.3000 c2        1 MUJ     -0.118000
     19 C19         2.6760    5.1620   -0.7900 c1        1 MUJ     -0.207000
     20 C20         2.2870    3.8390   -0.7960 c2        1 MUJ     -0.067000
     21 C21         2.4020    5.9630    0.3140 c1        1 MUJ      0.080000
     22 C22         1.3500    4.1020    1.3970 c1        1 MUJ     -0.095000
     23 C23         1.7410    5.4330    1.4030 c1        1 MUJ     -0.158000
     24 O24         2.8490    7.2840    0.3450 os        1 MUJ     -0.212000
     25 C25         1.9570    8.1920   -0.2110 c3        1 MUJ     -0.076000
     26 N26        -2.5640   -6.4510   -0.5520 n3        1 MUJ     -0.333000
     27 N27        -1.0740   -6.3260    4.0510 n3        1 MUJ     -0.325000
     28 H4         -1.0730   -2.7320    1.4040 ha        1 MUJ      0.170000
     29 H71C       -3.1510   -3.6390   -0.9310 hc        1 MUJ      0.088000
     30 H72C       -1.7540   -4.0990   -1.6200 hc        1 MUJ      0.088000
     31 H261       -2.6040   -7.3810   -0.5180 hn        1 MUJ      0.210000
     32 H262       -2.8310   -6.0070   -1.3100 hn        1 MUJ      0.210000
     33 H271       -1.0640   -7.2560    4.0840 hn        1 MUJ      0.221000
     34 H272       -0.8930   -5.8430    4.7980 hn        1 MUJ      0.221000
     35 H10        -2.1400   -1.8610    1.2070 ha        1 MUJ      0.139000
     36 H12        -0.9810   -2.1150   -2.7250 ha        1 MUJ      0.143000
     37 H9         -1.2330    0.3250    1.3880 ha        1 MUJ      0.152000
     38 H151        1.0240   -1.1890   -3.6110 h1        1 MUJ      0.085667
     39 H152        1.8790   -0.0570   -2.8440 h1        1 MUJ      0.085667
     40 H153        1.3300    0.2160   -4.3240 h1        1 MUJ      0.085667
     41 H171        1.0070    1.5400    1.2070 h1        1 MUJ      0.092000
     42 H172        1.8670    1.2950   -0.1270 h1        1 MUJ      0.092000
     43 H20         2.4780    3.2780   -1.5710 ha        1 MUJ      0.151000
     44 H22         0.8810    3.7260    2.1700 ha        1 MUJ      0.133000
     45 H19         3.1430    5.5360   -1.5600 ha        1 MUJ      0.137000
     46 H23         1.5490    5.9940    2.1770 ha        1 MUJ      0.148000
     47 H251        1.0520    8.0110    0.1260 h1        1 MUJ      0.083000
     48 H252        2.2210    9.1020    0.0360 h1        1 MUJ      0.083000
     49 H253        1.9660    8.1030   -1.1890 h1        1 MUJ      0.083000
@<TRIPOS>BOND
     1    1    5 1   
     2    2    3 1   
     3    2    7 1   
     4    3   26 1   
     5    4    6 1   
     6    4   28 1   
     7    5   27 1   
     8    7    8 1   
     9    7   29 1   
    10    7   30 1   
    11    8   10 1   
    12    8   12 1   
    13    9   10 1   
    14    9   37 1   
    15   10   35 1   
    16   11   13 1   
    17   11   16 1   
    18   12   36 1   
    19   13   14 1   
    20   14   15 1   
    21   15   38 1   
    22   15   39 1   
    23   15   40 1   
    24   16   17 1   
    25   17   18 1   
    26   17   41 1   
    27   17   42 1   
    28   18   20 1   
    29   18   22 1   
    30   19   20 1   
    31   19   45 1   
    32   20   43 1   
    33   21   23 1   
    34   21   24 1   
    35   22   44 1   
    36   23   46 1   
    37   24   25 1   
    38   25   47 1   
    39   25   48 1   
    40   25   49 1   
    41   26   31 1   
    42   26   32 1   
    43   27   33 1   
    44   27   34 1   
@<TRIPOS>SUBSTRUCTURE
     1 MUJ         1 TEMP              0 ****  ****    0 ROOT
