@<TRIPOS>MOLECULE
MUJ
   51    53     1     0     0
SMALL
bcc


@<TRIPOS>ATOM
      1 N1         -0.4820    0.2700    0.4680 nb        1 MUJ     -0.654000
      2 C2          1.7450   -0.2320    1.3620 ca        1 MUJ     -0.153900
      3 C3          0.7410    0.6740    0.9470 ca        1 MUJ      0.499200
      4 C4          1.3920   -1.6220    1.2490 ca        1 MUJ      0.477200
      5 C5         -0.6810   -1.0710    0.4140 ca        1 MUJ      0.719900
      6 N6          0.2200   -2.0560    0.7910 nb        1 MUJ     -0.606000
      7 C7          3.0840    0.0970    1.9090 c3        1 MUJ     -0.018800
      8 C8          3.5670    1.4820    1.6850 ca        1 MUJ     -0.219300
      9 C9          4.4270    3.5740    2.5560 ca        1 MUJ     -0.190000
     10 C10         3.8760    2.3090    2.7660 ca        1 MUJ     -0.106000
     11 C11         4.6640    4.0420    1.2590 ca        1 MUJ      0.135100
     12 C12         3.8280    1.9250    0.3760 ca        1 MUJ     -0.207000
     13 C13         4.3420    3.2030    0.1480 ca        1 MUJ      0.117100
     14 O14         4.4060    3.5720   -1.1710 os        1 MUJ     -0.337900
     15 C15         5.4350    4.4950   -1.5550 c3        1 MUJ      0.119700
     16 O16         5.1710    5.2690    0.9600 os        1 MUJ     -0.314900
     17 C17         5.7080    6.0490    2.0650 c3        1 MUJ      0.191700
     18 C18         6.3290    7.2540    1.4580 ca        1 MUJ     -0.180300
     19 C19         6.1020    9.4960    0.5680 ca        1 MUJ     -0.185500
     20 C20         5.5310    8.3510    1.0990 ca        1 MUJ     -0.062500
     21 C21         7.5020    9.5500    0.3890 ca        1 MUJ      0.168100
     22 C22         7.7130    7.3150    1.2710 ca        1 MUJ     -0.062500
     23 C23         8.3070    8.4580    0.7420 ca        1 MUJ     -0.185500
     24 O24         7.9680   10.7250   -0.1450 os        1 MUJ     -0.312900
     25 C25         9.3820   10.8460   -0.2920 c3        1 MUJ      0.107700
     26 N26         0.9700    2.1290    0.9920 n4        1 MUJ     -0.827300
     27 N27        -1.9950   -1.5500   -0.1020 n4        1 MUJ     -0.813300
     28 H4          2.1200   -2.4130    1.5510 h4        1 MUJ      0.111100
     29 H71C        3.0640   -0.1330    3.0180 hc        1 MUJ      0.122200
     30 H72C        3.8370   -0.6190    1.4570 hc        1 MUJ      0.122200
     31 H261        1.4410    2.3610    1.8880 hn        1 MUJ      0.496800
     32 H262        1.6190    2.3880    0.2190 hn        1 MUJ      0.496800
     33 H271       -1.8330   -2.1370   -0.9370 hn        1 MUJ      0.499467
     34 H272       -2.6030   -0.7560   -0.3530 hn        1 MUJ      0.499467
     35 H10         3.7190    1.9600    3.8000 ha        1 MUJ      0.155000
     36 H12         3.6920    1.2510   -0.4850 ha        1 MUJ      0.156000
     37 H9          4.6860    4.1960    3.4290 ha        1 MUJ      0.176000
     38 H151        6.4060    4.2320   -1.0760 h1        1 MUJ      0.070700
     39 H152        5.4810    4.3670   -2.6670 h1        1 MUJ      0.070700
     40 H153        5.1240    5.5320   -1.2800 h1        1 MUJ      0.070700
     41 H171        4.8550    6.3220    2.7400 h1        1 MUJ      0.055200
     42 H172        6.4590    5.4230    2.6150 h1        1 MUJ      0.055200
     43 H20         4.4410    8.3030    1.2460 ha        1 MUJ      0.132500
     44 H22         8.3470    6.4580    1.5500 ha        1 MUJ      0.132500
     45 H19         5.4900   10.3660    0.2870 ha        1 MUJ      0.159000
     46 H23         9.3980    8.4950    0.6100 ha        1 MUJ      0.159000
     47 H251        9.7670   10.0800   -1.0070 h1        1 MUJ      0.056367
     48 H252        9.8900   10.7570    0.6980 h1        1 MUJ      0.056367
     49 H253        9.5060   11.8780   -0.7110 h1        1 MUJ      0.056367
     50 H263        0.0940    2.6610    0.9050 hn        1 MUJ      0.496800
     51 H273       -2.4550   -2.1200    0.6260 hn        1 MUJ      0.499467
@<TRIPOS>BOND
     1    1    3 ar  
     2    1    5 ar  
     3    2    3 ar  
     4    2    4 ar  
     5    2    7 1   
     6    3   26 1   
     7    4    6 ar  
     8    4   28 1   
     9    5    6 ar  
    10    5   27 1   
    11    7    8 1   
    12    7   29 1   
    13    7   30 1   
    14    8   10 ar  
    15    8   12 ar  
    16    9   10 ar  
    17    9   11 ar  
    18    9   37 1   
    19   10   35 1   
    20   11   13 ar  
    21   11   16 1   
    22   12   13 ar  
    23   12   36 1   
    24   13   14 1   
    25   14   15 1   
    26   15   38 1   
    27   15   39 1   
    28   15   40 1   
    29   16   17 1   
    30   17   18 1   
    31   17   41 1   
    32   17   42 1   
    33   18   20 ar  
    34   18   22 ar  
    35   19   20 ar  
    36   19   21 ar  
    37   19   45 1   
    38   20   43 1   
    39   21   23 ar  
    40   21   24 1   
    41   22   23 ar  
    42   22   44 1   
    43   23   46 1   
    44   24   25 1   
    45   25   47 1   
    46   25   48 1   
    47   25   49 1   
    48   26   31 1   
    49   26   32 1   
    50   26   50 1   
    51   27   33 1   
    52   27   34 1   
    53   27   51 1   
@<TRIPOS>SUBSTRUCTURE
     1 MUJ         1 TEMP              0 ****  ****    0 ROOT
