@<TRIPOS>MOLECULE
MUJ
   49    51     1     0     0
SMALL
bcc


@<TRIPOS>ATOM
      1 N1         -0.3240    0.1300    0.1310 nb        1 MUJ     -0.819000
      2 C2          1.8990   -0.0920    1.1310 ca        1 MUJ     -0.424900
      3 C3          1.0330    0.3040    0.0550 ca        1 MUJ      0.714200
      4 C4          1.2750   -0.6750    2.2470 ca        1 MUJ      0.488200
      5 C5         -0.8120   -0.4930    1.2640 ca        1 MUJ      0.896900
      6 N6         -0.0420   -0.8850    2.3580 nb        1 MUJ     -0.780000
      7 C7          3.3710    0.0580    1.0750 c3        1 MUJ      0.036200
      8 C8          3.8310    1.4780    1.0340 ca        1 MUJ     -0.088300
      9 C9          3.9030    3.6980    2.0110 ca        1 MUJ     -0.174000
     10 C10         3.4530    2.3760    2.0310 ca        1 MUJ     -0.119000
     11 C11         4.7470    4.1320    0.9880 ca        1 MUJ      0.103100
     12 C12         4.6790    1.9050    0.0000 ca        1 MUJ     -0.193000
     13 C13         5.1440    3.2190   -0.0270 ca        1 MUJ      0.103100
     14 O14         5.9810    3.7400   -0.9930 os        1 MUJ     -0.305900
     15 C15         6.4310    2.8260   -1.9870 c3        1 MUJ      0.109700
     16 O16         5.2250    5.4170    0.8440 os        1 MUJ     -0.306900
     17 C17         5.0710    6.2600    1.9970 c3        1 MUJ      0.178700
     18 C18         5.8330    7.5190    1.7550 ca        1 MUJ     -0.130300
     19 C19         6.2270    9.8310    2.3630 ca        1 MUJ     -0.181500
     20 C20         5.5270    8.6450    2.5320 ca        1 MUJ     -0.080000
     21 C21         7.2480    9.8950    1.3950 ca        1 MUJ      0.127100
     22 C22         6.8460    7.5940    0.7970 ca        1 MUJ     -0.080000
     23 C23         7.5580    8.7790    0.6100 ca        1 MUJ     -0.181500
     24 O24         7.8840   11.1180    1.3050 os        1 MUJ     -0.327900
     25 C25         8.9110   11.2210    0.3260 c3        1 MUJ      0.113700
     26 N26         1.5720    0.8230   -1.1180 nv        1 MUJ     -0.934500
     27 N27        -2.1770   -0.7930    1.2920 nv        1 MUJ     -0.929500
     28 H4          1.8770   -0.9960    3.1190 h4        1 MUJ      0.021100
     29 H71C        3.8320   -0.4300    1.9790 hc        1 MUJ      0.056200
     30 H72C        3.7630   -0.4950    0.1750 hc        1 MUJ      0.056200
     31 H261        2.4460    1.2890   -1.0100 hn        1 MUJ      0.420300
     32 H262        0.9410    1.2410   -1.7630 hn        1 MUJ      0.420300
     33 H271       -2.5720   -0.9900    2.1820 hn        1 MUJ      0.427300
     34 H272       -2.7570   -0.3130    0.6450 hn        1 MUJ      0.427300
     35 H10         2.7880    2.0420    2.8410 ha        1 MUJ      0.141000
     36 H12         4.9850    1.1900   -0.7780 ha        1 MUJ      0.142000
     37 H9          3.5850    4.3880    2.8050 ha        1 MUJ      0.142000
     38 H151        7.0000    1.9830   -1.5240 h1        1 MUJ      0.044033
     39 H152        5.5700    2.4360   -2.5840 h1        1 MUJ      0.044033
     40 H153        7.1030    3.4520   -2.6270 h1        1 MUJ      0.044033
     41 H171        3.9780    6.4790    2.1410 h1        1 MUJ      0.046200
     42 H172        5.4710    5.7320    2.9050 h1        1 MUJ      0.046200
     43 H20         4.7240    8.5900    3.2830 ha        1 MUJ      0.145000
     44 H22         7.0780    6.7110    0.1800 ha        1 MUJ      0.145000
     45 H19         5.9980   10.7200    2.9680 ha        1 MUJ      0.143500
     46 H23         8.3500    8.8210   -0.1490 ha        1 MUJ      0.143500
     47 H251        8.4990   11.0430   -0.6980 h1        1 MUJ      0.044700
     48 H252        9.2660   12.2770    0.4310 h1        1 MUJ      0.044700
     49 H253        9.7380   10.5030    0.5450 h1        1 MUJ      0.044700
@<TRIPOS>BOND
     1    1    3 ar  
     2    1    5 ar  
     3    2    3 ar  
     4    2    4 ar  
     5    2    7 1   
     6    3   26 1   
     7    4    6 ar  
     8    4   28 1   
     9    5    6 ar  
    10    5   27 1   
    11    7    8 1   
    12    7   29 1   
    13    7   30 1   
    14    8   10 ar  
    15    8   12 ar  
    16    9   10 ar  
    17    9   11 ar  
    18    9   37 1   
    19   10   35 1   
    20   11   13 ar  
    21   11   16 1   
    22   12   13 ar  
    23   12   36 1   
    24   13   14 1   
    25   14   15 1   
    26   15   38 1   
    27   15   39 1   
    28   15   40 1   
    29   16   17 1   
    30   17   18 1   
    31   17   41 1   
    32   17   42 1   
    33   18   20 ar  
    34   18   22 ar  
    35   19   20 ar  
    36   19   21 ar  
    37   19   45 1   
    38   20   43 1   
    39   21   23 ar  
    40   21   24 1   
    41   22   23 ar  
    42   22   44 1   
    43   23   46 1   
    44   24   25 1   
    45   25   47 1   
    46   25   48 1   
    47   25   49 1   
    48   26   31 1   
    49   26   32 1   
    50   27   33 1   
    51   27   34 1   
@<TRIPOS>SUBSTRUCTURE
     1 MUJ         1 TEMP              0 ****  ****    0 ROOT
