@<TRIPOS>MOLECULE
MUJ
   49    51     1     0     0
SMALL
bcc


@<TRIPOS>ATOM
      1 N1         -0.3460    0.1930    0.1680 nb        1 MUJ     -0.817000
      2 C2          1.8840   -0.0820    1.1380 ca        1 MUJ     -0.423900
      3 C3          1.0130    0.3440    0.0790 ca        1 MUJ      0.712200
      4 C4          1.2660   -0.6870    2.2440 ca        1 MUJ      0.487200
      5 C5         -0.8350   -0.4000    1.3180 ca        1 MUJ      0.894900
      6 N6         -0.0540   -0.8720    2.3710 nb        1 MUJ     -0.778000
      7 C7          3.3580    0.0500    1.0680 c3        1 MUJ      0.036200
      8 C8          3.8340    1.4650    1.0300 ca        1 MUJ     -0.090300
      9 C9          3.9290    3.6830    2.0080 ca        1 MUJ     -0.175000
     10 C10         3.4630    2.3670    2.0260 ca        1 MUJ     -0.117000
     11 C11         4.7820    4.1070    0.9890 ca        1 MUJ      0.105100
     12 C12         4.6910    1.8810   -0.0000 ca        1 MUJ     -0.192000
     13 C13         5.1720    3.1900   -0.0250 ca        1 MUJ      0.102100
     14 O14         6.0180    3.7020   -0.9890 os        1 MUJ     -0.305900
     15 C15         6.4640    2.7820   -1.9780 c3        1 MUJ      0.110700
     16 O16         5.2830    5.3840    0.8500 os        1 MUJ     -0.306900
     17 C17         5.0820    6.2480    1.9800 c3        1 MUJ      0.178700
     18 C18         5.8350    7.5120    1.7340 ca        1 MUJ     -0.130300
     19 C19         6.1810    9.8410    2.3080 ca        1 MUJ     -0.181500
     20 C20         5.4930    8.6490    2.4810 ca        1 MUJ     -0.080000
     21 C21         7.2280    9.9010    1.3670 ca        1 MUJ      0.127100
     22 C22         6.8730    7.5840    0.8030 ca        1 MUJ     -0.080000
     23 C23         7.5730    8.7750    0.6120 ca        1 MUJ     -0.181500
     24 O24         7.8500   11.1300    1.2710 os        1 MUJ     -0.327900
     25 C25         8.9020   11.2290    0.3180 c3        1 MUJ      0.113700
     26 N26         1.5480    0.8560   -1.1010 nh        1 MUJ     -0.933500
     27 N27        -2.2250   -0.4690    1.4600 nh        1 MUJ     -0.927500
     28 H4          1.8750   -1.0570    3.0920 h4        1 MUJ      0.022100
     29 H71C        3.8210   -0.4480    1.9660 hc        1 MUJ      0.055700
     30 H72C        3.7350   -0.5030    0.1620 hc        1 MUJ      0.055700
     31 H261        0.9170    1.3020   -1.7280 hn        1 MUJ      0.419300
     32 H262        2.4330    1.3010   -1.0000 hn        1 MUJ      0.419300
     33 H271       -2.5680   -1.1080    2.1400 hn        1 MUJ      0.425800
     34 H272       -2.7640   -0.3770    0.6310 hn        1 MUJ      0.425800
     35 H10         2.7900    2.0410    2.8330 ha        1 MUJ      0.142000
     36 H12         4.9910    1.1640   -0.7780 ha        1 MUJ      0.141000
     37 H9          3.6160    4.3750    2.8030 ha        1 MUJ      0.142000
     38 H151        7.0210    1.9340   -1.5110 h1        1 MUJ      0.044033
     39 H152        5.6040    2.4010   -2.5800 h1        1 MUJ      0.044033
     40 H153        7.1460    3.4000   -2.6150 h1        1 MUJ      0.044033
     41 H171        3.9830    6.4550    2.0870 h1        1 MUJ      0.046200
     42 H172        5.4630    5.7440    2.9090 h1        1 MUJ      0.046200
     43 H20         4.6700    8.5970    3.2110 ha        1 MUJ      0.144500
     44 H22         7.1330    6.6920    0.2080 ha        1 MUJ      0.144500
     45 H19         5.9250   10.7380    2.8890 ha        1 MUJ      0.143500
     46 H23         8.3850    8.8130   -0.1260 ha        1 MUJ      0.143500
     47 H251        8.5210   11.0270   -0.7120 h1        1 MUJ      0.044367
     48 H252        9.7320   10.5260    0.5740 h1        1 MUJ      0.044367
     49 H253        9.2400   12.2910    0.4130 h1        1 MUJ      0.044367
@<TRIPOS>BOND
     1    1    3 ar  
     2    1    5 ar  
     3    2    3 ar  
     4    2    4 ar  
     5    2    7 1   
     6    3   26 1   
     7    4    6 ar  
     8    4   28 1   
     9    5    6 ar  
    10    5   27 1   
    11    7    8 1   
    12    7   29 1   
    13    7   30 1   
    14    8   10 ar  
    15    8   12 ar  
    16    9   10 ar  
    17    9   11 ar  
    18    9   37 1   
    19   10   35 1   
    20   11   13 ar  
    21   11   16 1   
    22   12   13 ar  
    23   12   36 1   
    24   13   14 1   
    25   14   15 1   
    26   15   38 1   
    27   15   39 1   
    28   15   40 1   
    29   16   17 1   
    30   17   18 1   
    31   17   41 1   
    32   17   42 1   
    33   18   20 ar  
    34   18   22 ar  
    35   19   20 ar  
    36   19   21 ar  
    37   19   45 1   
    38   20   43 1   
    39   21   23 ar  
    40   21   24 1   
    41   22   23 ar  
    42   22   44 1   
    43   23   46 1   
    44   24   25 1   
    45   25   47 1   
    46   25   48 1   
    47   25   49 1   
    48   26   31 1   
    49   26   32 1   
    50   27   33 1   
    51   27   34 1   
@<TRIPOS>SUBSTRUCTURE
     1 MUJ         1 TEMP              0 ****  ****    0 ROOT
