@<TRIPOS>MOLECULE
MUJ
   49    51     1     0     0
SMALL
bcc


@<TRIPOS>ATOM
      1 N1          5.7580    0.5990    1.4280 nb        1 MUJ     -0.819000
      2 C2          4.6520    0.0160   -0.6770 ca        1 MUJ     -0.424900
      3 C3          4.8560   -0.1640    0.7340 ca        1 MUJ      0.714200
      4 C4          5.4370    1.0030   -1.2960 ca        1 MUJ      0.488200
      5 C5          6.5000    1.5090    0.6970 ca        1 MUJ      0.896900
      6 N6          6.3470    1.7570   -0.6670 nb        1 MUJ     -0.780000
      7 C7          3.7040   -0.8060   -1.4630 c3        1 MUJ      0.036200
      8 C8          2.2740   -0.6050   -1.0830 ca        1 MUJ     -0.088300
      9 C9          0.3580    0.8540   -0.7860 ca        1 MUJ     -0.174000
     10 C10         1.7020    0.6660   -1.1150 ca        1 MUJ     -0.119000
     11 C11        -0.4310   -0.2390   -0.4280 ca        1 MUJ      0.103100
     12 C12         1.4880   -1.7110   -0.7230 ca        1 MUJ     -0.193000
     13 C13         0.1420   -1.5390   -0.4030 ca        1 MUJ      0.103100
     14 O14        -0.7180   -2.5560   -0.0390 os        1 MUJ     -0.305900
     15 C15        -0.1730   -3.8700   -0.0570 c3        1 MUJ      0.109700
     16 O16        -1.7560   -0.1720   -0.0500 os        1 MUJ     -0.307900
     17 C17        -2.4160    1.0680   -0.3540 c3        1 MUJ      0.178700
     18 C18        -3.8750    0.8880   -0.1010 ca        1 MUJ     -0.130300
     19 C19        -6.0370    1.9180    0.2720 ca        1 MUJ     -0.181500
     20 C20        -4.6700    2.0320    0.0620 ca        1 MUJ     -0.080000
     21 C21        -6.6200    0.6370    0.3270 ca        1 MUJ      0.127100
     22 C22        -4.4630   -0.3760   -0.0430 ca        1 MUJ     -0.080000
     23 C23        -5.8350   -0.5110    0.1720 ca        1 MUJ     -0.181500
     24 O24        -7.9850    0.6310    0.5400 os        1 MUJ     -0.327900
     25 C25        -8.6020   -0.6490    0.6160 c3        1 MUJ      0.113700
     26 N26         4.1730   -1.1670    1.4140 nh        1 MUJ     -0.934500
     27 N27         7.5140    2.1970    1.3700 nh        1 MUJ     -0.929500
     28 H4          5.3280    1.2050   -2.3790 h4        1 MUJ      0.021100
     29 H71C        3.8110   -0.5570   -2.5560 hc        1 MUJ      0.056200
     30 H72C        3.9790   -1.8930   -1.3510 hc        1 MUJ      0.056200
     31 H261        4.2090   -1.1500    2.4080 hn        1 MUJ      0.420300
     32 H262        3.2930   -1.4190    1.0220 hn        1 MUJ      0.420300
     33 H271        7.4700    2.2050    2.3620 hn        1 MUJ      0.427300
     34 H272        7.8610    3.0180    0.9330 hn        1 MUJ      0.427300
     35 H10         2.3180    1.5330   -1.3970 ha        1 MUJ      0.141000
     36 H12         1.9400   -2.7140   -0.7110 ha        1 MUJ      0.142000
     37 H9         -0.0670    1.8670   -0.8130 ha        1 MUJ      0.142000
     38 H151        0.6560   -3.9650    0.6850 h1        1 MUJ      0.044033
     39 H152       -1.0410   -4.5130    0.2380 h1        1 MUJ      0.044033
     40 H153        0.1850   -4.1380   -1.0810 h1        1 MUJ      0.044033
     41 H171       -1.9950    1.8730    0.3070 h1        1 MUJ      0.046200
     42 H172       -2.2390    1.3350   -1.4310 h1        1 MUJ      0.046200
     43 H20        -4.2080    3.0300    0.0230 ha        1 MUJ      0.145000
     44 H22        -3.8350   -1.2750   -0.1590 ha        1 MUJ      0.145000
     45 H19        -6.6720    2.8060    0.3980 ha        1 MUJ      0.143500
     46 H23        -6.2800   -1.5140    0.2180 ha        1 MUJ      0.143500
     47 H251       -8.4770   -1.2050   -0.3450 h1        1 MUJ      0.044700
     48 H252       -8.1840   -1.2390    1.4670 h1        1 MUJ      0.044700
     49 H253       -9.6800   -0.4070    0.7950 h1        1 MUJ      0.044700
@<TRIPOS>BOND
     1    1    3 ar  
     2    1    5 ar  
     3    2    3 ar  
     4    2    4 ar  
     5    2    7 1   
     6    3   26 1   
     7    4    6 ar  
     8    4   28 1   
     9    5    6 ar  
    10    5   27 1   
    11    7    8 1   
    12    7   29 1   
    13    7   30 1   
    14    8   10 ar  
    15    8   12 ar  
    16    9   10 ar  
    17    9   11 ar  
    18    9   37 1   
    19   10   35 1   
    20   11   13 ar  
    21   11   16 1   
    22   12   13 ar  
    23   12   36 1   
    24   13   14 1   
    25   14   15 1   
    26   15   38 1   
    27   15   39 1   
    28   15   40 1   
    29   16   17 1   
    30   17   18 1   
    31   17   41 1   
    32   17   42 1   
    33   18   20 ar  
    34   18   22 ar  
    35   19   20 ar  
    36   19   21 ar  
    37   19   45 1   
    38   20   43 1   
    39   21   23 ar  
    40   21   24 1   
    41   22   23 ar  
    42   22   44 1   
    43   23   46 1   
    44   24   25 1   
    45   25   47 1   
    46   25   48 1   
    47   25   49 1   
    48   26   31 1   
    49   26   32 1   
    50   27   33 1   
    51   27   34 1   
@<TRIPOS>SUBSTRUCTURE
     1 MUJ         1 TEMP              0 ****  ****    0 ROOT
