@<TRIPOS>MOLECULE
MUL
   82    84     1     0     0
SMALL
bcc


@<TRIPOS>ATOM
      1 O1          1.4090   -0.0320    0.2390 o         1 MUL     -0.513100
      2 O2          3.0650    1.3180    6.4420 oh        1 MUL     -0.602800
      3 C1          3.1310   -1.0920    3.2250 c3        1 MUL     -0.079400
      4 C2          3.0880   -0.9770    1.7100 c3        1 MUL     -0.192400
      5 C3          1.8190   -0.2280    1.3800 c         1 MUL      0.575100
      6 C4          1.1920    0.2550    2.6830 c3        1 MUL     -0.162700
      7 C5         -0.3220    0.5080    2.6600 c3        1 MUL     -0.016000
      8 C6         -1.0180   -0.8520    2.4720 c3        1 MUL     -0.064700
      9 C7         -0.6220   -1.8370    3.5610 c3        1 MUL     -0.078400
     10 C8          0.8720   -2.0600    3.5970 c3        1 MUL     -0.076400
     11 C9          1.7000   -0.7750    3.7230 c3        1 MUL     -0.039000
     12 C10         1.7180   -0.2820    5.1740 c3        1 MUL     -0.083700
     13 C11         2.1870    1.1800    5.3250 c3        1 MUL      0.151100
     14 C12         1.0490    2.2050    5.5910 c3        1 MUL     -0.015800
     15 C13         0.1150    2.3970    4.3930 c3        1 MUL     -0.090400
     16 C14        -0.7520    1.2080    3.9780 c3        1 MUL      0.157100
     17 C15        -0.6500    1.4250    1.4830 c3        1 MUL     -0.099100
     18 C16        -2.5240   -0.7790    2.3670 c3        1 MUL     -0.088100
     19 C17         2.5450   -1.2070    6.0540 c3        1 MUL     -0.097100
     20 C18         1.7230    3.5670    5.8250 c3        1 MUL     -0.088100
     21 C19         0.3100    1.8350    6.8400 c2        1 MUL     -0.109200
     22 C20        -0.7000    2.5290    7.3610 c2        1 MUL     -0.262000
     23 O3         -2.0740    1.7790    3.7350 os        1 MUL     -0.409900
     24 C21        -3.0820    1.5300    4.5970 c         1 MUL      0.660100
     25 O4         -2.9150    0.7950    5.5820 o         1 MUL     -0.614000
     26 C22        -4.3610    2.2000    4.1980 c3        1 MUL     -0.111300
     27 S1         -5.1050    3.1930    5.4410 ss        1 MUL     -0.158200
     28 C23        -5.3820    2.0870    6.7810 c3        1 MUL     -0.079300
     29 C24        -4.3030    2.3130    7.8250 c3        1 MUL      0.107800
     30 N1         -4.3200    1.3010    8.9360 n4        1 MUL     -0.686400
     31 C25        -3.5990    0.0490    8.5230 c3        1 MUL      0.103800
     32 C26        -4.0030   -1.1710    9.3210 c3        1 MUL     -0.132600
     33 C27        -3.7230    1.8720   10.1890 c3        1 MUL      0.103800
     34 C28        -4.6600    2.7910   10.9450 c3        1 MUL     -0.132600
     35 H12         3.4470   -2.1130    3.5510 hc        1 MUL      0.053200
     36 H21         3.0700   -1.9840    1.2200 hc        1 MUL      0.084700
     37 H22         3.9750   -0.4240    1.3080 hc        1 MUL      0.084700
     38 H4          1.7060    1.2440    2.8550 hc        1 MUL      0.077700
     39 H6         -0.6310   -1.2530    1.4860 hc        1 MUL      0.071700
     40 H71        -0.9940   -1.4920    4.5600 hc        1 MUL      0.043200
     41 H72        -1.1250   -2.8210    3.3540 hc        1 MUL      0.043200
     42 H81         1.1190   -2.7580    4.4370 hc        1 MUL      0.050700
     43 H82         1.1740   -2.5750    2.6430 hc        1 MUL      0.050700
     44 H10         0.6630   -0.3510    5.5650 hc        1 MUL      0.054700
     45 H11         2.7470    1.5070    4.4030 h1        1 MUL      0.043700
     46 H131        0.7140    2.7600    3.5170 hc        1 MUL      0.064200
     47 H132       -0.5810    3.2440    4.6590 hc        1 MUL      0.064200
     48 H14        -0.8370    0.4650    4.8130 h1        1 MUL      0.086700
     49 H151       -0.5970    0.8610    0.5190 hc        1 MUL      0.053033
     50 H152       -1.6770    1.8530    1.5760 hc        1 MUL      0.053033
     51 H153        0.0790    2.2700    1.4360 hc        1 MUL      0.053033
     52 H161       -2.9820   -0.5490    3.3590 hc        1 MUL      0.034700
     53 H162       -2.9250   -1.7620    2.0180 hc        1 MUL      0.034700
     54 H163       -2.8320    0.0090    1.6390 hc        1 MUL      0.034700
     55 H171        2.1670   -2.2550    5.9990 hc        1 MUL      0.043700
     56 H172        3.6190   -1.2090    5.7490 hc        1 MUL      0.043700
     57 H173        2.4820   -0.8690    7.1180 hc        1 MUL      0.043700
     58 H181        0.9520    4.3510    6.0130 hc        1 MUL      0.049367
     59 H182        2.3240    3.8540    4.9300 hc        1 MUL      0.049367
     60 H183        2.4030    3.5100    6.7090 hc        1 MUL      0.049367
     61 H19         0.7130    0.9480    7.3640 ha        1 MUL      0.137000
     62 H201       -1.1090    3.4370    6.8990 ha        1 MUL      0.095500
     63 H202       -1.1670    2.2370    8.3100 ha        1 MUL      0.095500
     64 H221       -5.0580    1.3990    3.8380 h1        1 MUL      0.128200
     65 H222       -4.1800    2.9070    3.3420 h1        1 MUL      0.128200
     66 H231       -6.3950    2.3230    7.1960 h1        1 MUL      0.099200
     67 H232       -5.3860    1.0270    6.4210 h1        1 MUL      0.099200
     68 H241       -3.2790    2.2670    7.3400 hx        1 MUL      0.118200
     69 H242       -4.4390    3.3350    8.2840 hx        1 MUL      0.118200
     70 H251       -3.8120   -0.1250    7.4240 hx        1 MUL      0.110450
     71 H252       -2.4930    0.2450    8.6230 hx        1 MUL      0.110450
     72 H261       -3.4460   -2.0500    8.9060 hc        1 MUL      0.074033
     73 H262       -3.7420   -1.0760   10.4030 hc        1 MUL      0.074033
     74 H263       -5.0970   -1.3820    9.2310 hc        1 MUL      0.074033
     75 H271       -2.7810    2.4220    9.8990 hx        1 MUL      0.110450
     76 H272       -3.4360    1.0060   10.8540 hx        1 MUL      0.110450
     77 H281       -5.5990    2.2660   11.2470 hc        1 MUL      0.074033
     78 H282       -4.9290    3.6980   10.3510 hc        1 MUL      0.074033
     79 H283       -4.1350    3.1290   11.8750 hc        1 MUL      0.074033
     80 HO2         3.9010    0.9050    6.1940 ho        1 MUL      0.410000
     81 H111       -5.2980    1.0560    9.1330 hn        1 MUL      0.436800
     82 H11A        3.8550   -0.3530    3.6520 hc        1 MUL      0.053200
@<TRIPOS>BOND
     1    1    5 2   
     2    2   13 1   
     3    2   80 1   
     4    3    4 1   
     5    3   11 1   
     6    3   35 1   
     7    3   82 1   
     8    4    5 1   
     9    4   36 1   
    10    4   37 1   
    11    5    6 1   
    12    6    7 1   
    13    6   11 1   
    14    6   38 1   
    15    7    8 1   
    16    7   16 1   
    17    7   17 1   
    18    8    9 1   
    19    8   18 1   
    20    8   39 1   
    21    9   10 1   
    22    9   40 1   
    23    9   41 1   
    24   10   11 1   
    25   10   42 1   
    26   10   43 1   
    27   11   12 1   
    28   12   13 1   
    29   12   19 1   
    30   12   44 1   
    31   13   14 1   
    32   13   45 1   
    33   14   15 1   
    34   14   20 1   
    35   14   21 1   
    36   15   16 1   
    37   15   46 1   
    38   15   47 1   
    39   16   23 1   
    40   16   48 1   
    41   17   49 1   
    42   17   50 1   
    43   17   51 1   
    44   18   52 1   
    45   18   53 1   
    46   18   54 1   
    47   19   55 1   
    48   19   56 1   
    49   19   57 1   
    50   20   58 1   
    51   20   59 1   
    52   20   60 1   
    53   21   22 2   
    54   21   61 1   
    55   22   62 1   
    56   22   63 1   
    57   23   24 1   
    58   24   25 2   
    59   24   26 1   
    60   26   27 1   
    61   26   64 1   
    62   26   65 1   
    63   27   28 1   
    64   28   29 1   
    65   28   66 1   
    66   28   67 1   
    67   29   30 1   
    68   29   68 1   
    69   29   69 1   
    70   30   31 1   
    71   30   33 1   
    72   30   81 1   
    73   31   32 1   
    74   31   70 1   
    75   31   71 1   
    76   32   72 1   
    77   32   73 1   
    78   32   74 1   
    79   33   34 1   
    80   33   75 1   
    81   33   76 1   
    82   34   77 1   
    83   34   78 1   
    84   34   79 1   
@<TRIPOS>SUBSTRUCTURE
     1 MUL         1 TEMP              0 ****  ****    0 ROOT
