@<TRIPOS>MOLECULE
MUL
   81    82     1     0     0
SMALL
bcc


@<TRIPOS>ATOM
      1 O1          1.4770    1.2860   -3.8940 o         1 MUL     -0.292000
      2 O2          4.1680    3.7300   -0.0380 oh        1 MUL     -0.328000
      3 C1          4.7000    0.9810   -2.7390 c3        1 MUL     -0.157000
      4 C2          3.5620    0.9400   -3.9770 c3        1 MUL     -0.221000
      5 C3          2.5560    0.9620   -3.4190 c2        1 MUL      0.241000
      6 C4          2.8320    0.8330   -2.1310 c3        1 MUL     -0.145000
      7 C5          1.9320   -0.3610   -1.5530 c3        1 MUL     -0.010000
      8 C6          2.5770   -1.3640   -1.0810 c3        1 MUL     -0.097000
      9 C7          3.8090   -1.6250   -1.6720 c3        1 MUL     -0.158000
     10 C8          4.8040   -0.4460   -1.7620 c3        1 MUL     -0.152000
     11 C9          4.3380    0.6730   -2.0240 c3        1 MUL     -0.036000
     12 C10         4.7770    1.5880   -0.8880 c3        1 MUL     -0.093000
     13 C11         3.6390    2.5490   -0.5390 c3        1 MUL      0.048000
     14 C12         2.7250    1.9050    0.5230 c3        1 MUL     -0.049000
     15 C13         1.3630    1.7230   -0.2760 c3        1 MUL     -0.165000
     16 C14         1.0590    0.1970   -0.4590 c3        1 MUL      0.044000
     17 C15         0.9510   -0.9100   -2.7820 c3        1 MUL     -0.218000
     18 C16         2.8530   -1.0720    0.6360 c3        1 MUL     -0.214000
     19 C17         5.9930    2.3800   -1.3170 c3        1 MUL     -0.197000
     20 C18         3.2640    0.6440    1.1120 c3        1 MUL     -0.217000
     21 C19         2.5580    2.7960    1.7760 c2        1 MUL     -0.175000
     22 C20         1.9010    3.9910    1.6820 c1        1 MUL     -0.222000
     23 O3         -0.2800    0.0270   -0.7990 os        1 MUL     -0.272000
     24 C21        -1.1100   -0.3900    0.2940 c2        1 MUL      0.315000
     25 O4         -0.6090   -0.9090    1.2750 o         1 MUL     -0.364000
     26 C22        -2.6400   -0.2440    0.1970 c3        1 MUL     -0.298000
     27 S1         -3.4250   -1.5700    1.1090 ss        1 MUL      0.118000
     28 C23        -5.1740   -1.2190    1.2880 c3        1 MUL     -0.287000
     29 C24        -5.9190   -2.5110    1.6710 c3        1 MUL     -0.063000
     30 N1         -7.2020   -2.1730    2.2590 n3        1 MUL     -0.285000
     31 C25        -8.2550   -2.4280    1.2990 c3        1 MUL     -0.056000
     32 C26        -9.4110   -1.4480    1.5350 c3        1 MUL     -0.212000
     33 C27        -7.4190   -2.9810    3.4400 c3        1 MUL     -0.056000
     34 C28        -7.6030   -2.0660    4.6590 c3        1 MUL     -0.212000
     35 HO2         3.9660    4.4050   -0.5900 ho        1 MUL      0.202000
     36 H11A        4.9910    1.9070   -2.5900 hc        1 MUL      0.094000
     37 H12         5.4770    0.4240   -2.9850 hc        1 MUL      0.094000
     38 H21         3.5430    1.6760   -4.6350 hc        1 MUL      0.115000
     39 H22         3.7260    0.1550   -4.5510 hc        1 MUL      0.115000
     40 H4          2.5770    1.6560   -1.6770 hc        1 MUL      0.118000
     41 H6          2.0120   -2.1670   -1.1740 hc        1 MUL      0.097000
     42 H71         3.6430   -1.9530   -2.5860 hc        1 MUL      0.082000
     43 H72         4.2430   -2.3500   -1.1610 hc        1 MUL      0.082000
     44 H81         5.2750   -0.3830   -0.9000 hc        1 MUL      0.085500
     45 H82         5.4700   -0.6660   -2.4580 hc        1 MUL      0.085500
     46 H10         5.0010    1.0470   -0.1000 hc        1 MUL      0.101000
     47 H11         3.1160    2.7430   -1.3450 h1        1 MUL      0.071000
     48 H131        1.4410    2.1490   -1.1560 hc        1 MUL      0.096000
     49 H132        0.6280    2.1460    0.2280 hc        1 MUL      0.096000
     50 H14         1.2450   -0.2740    0.3770 h1        1 MUL      0.128000
     51 H151        0.3240   -0.1990   -3.0440 hc        1 MUL      0.088333
     52 H152        0.4440   -1.6960   -2.4710 hc        1 MUL      0.088333
     53 H153        1.5030   -1.1620   -3.5560 hc        1 MUL      0.088333
     54 H161        3.7920   -0.8220    0.7790 hc        1 MUL      0.079667
     55 H162        2.2760   -0.3510    0.9400 hc        1 MUL      0.079667
     56 H163        2.6500   -1.8930    1.1470 hc        1 MUL      0.079667
     57 H171        6.4330    2.7630   -0.5220 hc        1 MUL      0.079667
     58 H172        5.7160    3.1060   -1.9210 hc        1 MUL      0.079667
     59 H173        6.6230    1.7860   -1.7860 hc        1 MUL      0.079667
     60 H181        4.0940    1.1690    1.0580 hc        1 MUL      0.089000
     61 H182        3.6450    0.4440    2.0060 hc        1 MUL      0.089000
     62 H183        2.4540    0.7520    1.6660 hc        1 MUL      0.089000
     63 H19         2.9260    2.5040    2.6400 ha        1 MUL      0.129000
     64 H201        1.5350    4.2830    0.8210 DU        1 MUL      0.113000
     65 H202        1.7950    4.5580    2.4790 ha        1 MUL      0.118000
     66 H221       -2.9140   -0.2870   -0.7450 h1        1 MUL      0.147000
     67 H222       -2.9110    0.6200    0.5780 h1        1 MUL      0.147000
     68 H231       -5.5270   -0.8770    0.4380 h1        1 MUL      0.120500
     69 H232       -5.3030   -0.5460    1.9900 h1        1 MUL      0.120500
     70 H241       -5.3840   -3.0170    2.3220 h1        1 MUL      0.092000
     71 H242       -6.0620   -3.0580    0.8670 h1        1 MUL      0.092000
     72 H251       -7.9050   -2.3070    0.3880 h1        1 MUL      0.068500
     73 H252       -8.5800   -3.3500    1.4060 h1        1 MUL      0.068500
     74 H261       -9.9910   -1.7910    2.2510 hc        1 MUL      0.076667
     75 H262       -9.9350   -1.3520    0.7080 hc        1 MUL      0.076667
     76 H263       -9.0500   -0.5720    1.7970 hc        1 MUL      0.076667
     77 H271       -8.2260   -3.5290    3.3180 h1        1 MUL      0.068500
     78 H272       -6.6430   -3.5660    3.5840 h1        1 MUL      0.068500
     79 H281       -7.3810   -1.1420    4.4110 hc        1 MUL      0.076667
     80 H282       -8.5370   -2.1090    4.9640 hc        1 MUL      0.076667
     81 H283       -7.0080   -2.3630    5.3840 hc        1 MUL      0.076667
@<TRIPOS>BOND
     1    1    5 1   
     2    2   13 1   
     3    2   35 1   
     4    3    4 1   
     5    3   11 1   
     6    3   36 1   
     7    3   37 1   
     8    4    5 1   
     9    4   38 1   
    10    4   39 1   
    11    5    6 1   
    12    6    7 1   
    13    6   11 1   
    14    6   40 1   
    15    7    8 1   
    16    7   16 1   
    17    7   17 1   
    18    8    9 1   
    19    8   18 1   
    20    8   41 1   
    21    9   10 1   
    22    9   42 1   
    23    9   43 1   
    24   10   11 1   
    25   10   44 1   
    26   10   45 1   
    27   11   12 1   
    28   12   13 1   
    29   12   19 1   
    30   12   46 1   
    31   13   14 1   
    32   13   47 1   
    33   14   15 1   
    34   14   20 1   
    35   14   21 1   
    36   15   16 1   
    37   15   48 1   
    38   15   49 1   
    39   16   23 1   
    40   16   50 1   
    41   17   51 1   
    42   17   52 1   
    43   17   53 1   
    44   18   54 1   
    45   18   55 1   
    46   18   56 1   
    47   19   57 1   
    48   19   58 1   
    49   19   59 1   
    50   20   60 1   
    51   20   61 1   
    52   20   62 1   
    53   21   22 1   
    54   21   63 1   
    55   22   65 1   
    56   23   24 1   
    57   24   25 1   
    58   24   26 1   
    59   26   27 1   
    60   26   66 1   
    61   26   67 1   
    62   27   28 1   
    63   28   29 1   
    64   28   68 1   
    65   28   69 1   
    66   29   30 1   
    67   29   70 1   
    68   29   71 1   
    69   30   31 1   
    70   30   33 1   
    71   31   32 1   
    72   31   72 1   
    73   31   73 1   
    74   32   74 1   
    75   32   75 1   
    76   32   76 1   
    77   33   34 1   
    78   33   77 1   
    79   33   78 1   
    80   34   79 1   
    81   34   80 1   
    82   34   81 1   
@<TRIPOS>SUBSTRUCTURE
     1 MUL         1 TEMP              0 ****  ****    0 ROOT
