@<TRIPOS>MOLECULE
MUL
   82    84     1     0     0
SMALL
bcc


@<TRIPOS>ATOM
      1 O1          1.2520   -0.0850    0.1810 o         1 MUL     -0.513100
      2 O2          3.0860    1.3900    6.3040 oh        1 MUL     -0.602800
      3 C1          3.0840   -1.0720    3.1260 c3        1 MUL     -0.079400
      4 C2          2.9910   -0.9830    1.6110 c3        1 MUL     -0.192400
      5 C3          1.7010   -0.2570    1.3100 c         1 MUL      0.575100
      6 C4          1.1090    0.2390    2.6260 c3        1 MUL     -0.162700
      7 C5         -0.4090    0.4710    2.6470 c3        1 MUL     -0.016000
      8 C6         -1.0900   -0.9010    2.5030 c3        1 MUL     -0.064700
      9 C7         -0.6450   -1.8630    3.5940 c3        1 MUL     -0.078400
     10 C8          0.8510   -2.0640    3.5860 c3        1 MUL     -0.076400
     11 C9          1.6650   -0.7660    3.6640 c3        1 MUL     -0.039000
     12 C10         1.7220   -0.2490    5.1060 c3        1 MUL     -0.083700
     13 C11         2.1750    1.2220    5.2180 c3        1 MUL      0.151100
     14 C12         1.0320    2.2350    5.5040 c3        1 MUL     -0.015800
     15 C13         0.0570    2.3940    4.3340 c3        1 MUL     -0.090400
     16 C14        -0.8050    1.1870    3.9660 c3        1 MUL      0.157100
     17 C15        -0.7870    1.3640    1.4660 c3        1 MUL     -0.099100
     18 C16        -2.6000   -0.8510    2.4460 c3        1 MUL     -0.088100
     19 C17         2.5910   -1.1470    5.9730 c3        1 MUL     -0.097100
     20 C18         1.6940    3.6100    5.6940 c3        1 MUL     -0.088100
     21 C19         0.3390    1.8760    6.7830 c2        1 MUL     -0.109200
     22 C20        -0.6640    2.5650    7.3240 c2        1 MUL     -0.262000
     23 O3         -2.1430    1.7360    3.7570 os        1 MUL     -0.409900
     24 C21        -3.1190    1.4870    4.6550 c         1 MUL      0.660100
     25 O4         -2.9100    0.7710    5.6460 o         1 MUL     -0.614000
     26 C22        -4.4200    2.1310    4.2870 c3        1 MUL     -0.111300
     27 S1         -5.1380    3.1350    5.5370 ss        1 MUL     -0.158200
     28 C23        -5.3560    2.0470    6.9030 c3        1 MUL     -0.079300
     29 C24        -4.2470    2.3070    7.9080 c3        1 MUL      0.107800
     30 N1         -4.2130    1.3140    9.0360 n4        1 MUL     -0.686400
     31 C25        -3.4870    0.0650    8.6200 c3        1 MUL      0.103800
     32 C26        -3.8470   -1.1470    9.4510 c3        1 MUL     -0.132600
     33 C27        -3.5850    1.9150   10.2590 c3        1 MUL      0.103800
     34 C28        -4.5110    2.8320   11.0290 c3        1 MUL     -0.132600
     35 H12         3.4240   -2.0830    3.4580 hc        1 MUL      0.053200
     36 H21         3.8560   -0.4240    1.1720 hc        1 MUL      0.084700
     37 H22         2.9710   -1.9980    1.1380 hc        1 MUL      0.084700
     38 H4          1.6140    1.2380    2.7640 hc        1 MUL      0.077700
     39 H6         -0.7300   -1.3140    1.5120 hc        1 MUL      0.071700
     40 H71        -1.1410   -2.8560    3.4200 hc        1 MUL      0.043200
     41 H72        -0.9900   -1.5060    4.5990 hc        1 MUL      0.043200
     42 H81         1.1300   -2.5910    2.6320 hc        1 MUL      0.050700
     43 H82         1.1360   -2.7450    4.4290 hc        1 MUL      0.050700
     44 H10         0.6820   -0.3260    5.5320 hc        1 MUL      0.054700
     45 H11         2.7000    1.5410    4.2740 h1        1 MUL      0.043700
     46 H131       -0.6420    3.2360    4.6090 hc        1 MUL      0.064200
     47 H132        0.6220    2.7510    3.4340 hc        1 MUL      0.064200
     48 H14        -0.8530    0.4560    4.8160 h1        1 MUL      0.086700
     49 H151       -0.7570    0.7840    0.5110 hc        1 MUL      0.053033
     50 H152       -1.8160    1.7790    1.5850 hc        1 MUL      0.053033
     51 H153       -0.0720    2.2170    1.3820 hc        1 MUL      0.053033
     52 H161       -3.0300   -0.6110    3.4490 hc        1 MUL      0.034700
     53 H162       -2.9980   -1.8450    2.1260 hc        1 MUL      0.034700
     54 H163       -2.9430   -0.0800    1.7150 hc        1 MUL      0.034700
     55 H171        3.6540   -1.1400    5.6340 hc        1 MUL      0.043700
     56 H172        2.2260   -2.2010    5.9480 hc        1 MUL      0.043700
     57 H173        2.5570   -0.7930    7.0340 hc        1 MUL      0.043700
     58 H181        2.2610    3.8910    4.7760 hc        1 MUL      0.049367
     59 H182        0.9170    4.3860    5.8940 hc        1 MUL      0.049367
     60 H183        2.4020    3.5770    6.5570 hc        1 MUL      0.049367
     61 H19         0.7710    1.0040    7.3070 ha        1 MUL      0.137000
     62 H201       -1.1010    3.4590    6.8610 ha        1 MUL      0.095500
     63 H202       -1.0970    2.2830    8.2930 ha        1 MUL      0.095500
     64 H221       -5.1160    1.3150    3.9620 h1        1 MUL      0.128200
     65 H222       -4.2760    2.8270    3.4140 h1        1 MUL      0.128200
     66 H231       -6.3580    2.2750    7.3470 h1        1 MUL      0.099200
     67 H232       -5.3550    0.9810    6.5610 h1        1 MUL      0.099200
     68 H241       -3.2380    2.2670    7.3910 hx        1 MUL      0.118200
     69 H242       -4.3830    3.3340    8.3540 hx        1 MUL      0.118200
     70 H251       -2.3810    0.2790    8.6810 hx        1 MUL      0.110450
     71 H252       -3.7320   -0.1310    7.5320 hx        1 MUL      0.110450
     72 H261       -3.5530   -1.0290   10.5220 hc        1 MUL      0.074033
     73 H262       -3.2890   -2.0250    9.0330 hc        1 MUL      0.074033
     74 H263       -4.9400   -1.3750    9.4000 hc        1 MUL      0.074033
     75 H271       -2.6620    2.4730    9.9300 hx        1 MUL      0.110450
     76 H272       -3.2640    1.0640   10.9280 hx        1 MUL      0.110450
     77 H281       -5.4320    2.2990   11.3700 hc        1 MUL      0.074033
     78 H282       -3.9630    3.1940   11.9360 hc        1 MUL      0.074033
     79 H283       -4.8130    3.7250   10.4290 hc        1 MUL      0.074033
     80 HO2         3.9200    0.9840    6.0360 ho        1 MUL      0.410000
     81 H111       -5.1810    1.0580    9.2680 hn        1 MUL      0.436800
     82 H11A        3.8110   -0.3160    3.5170 hc        1 MUL      0.053200
@<TRIPOS>BOND
     1    1    5 2   
     2    2   13 1   
     3    2   80 1   
     4    3    4 1   
     5    3   11 1   
     6    3   35 1   
     7    3   82 1   
     8    4    5 1   
     9    4   36 1   
    10    4   37 1   
    11    5    6 1   
    12    6    7 1   
    13    6   11 1   
    14    6   38 1   
    15    7    8 1   
    16    7   16 1   
    17    7   17 1   
    18    8    9 1   
    19    8   18 1   
    20    8   39 1   
    21    9   10 1   
    22    9   40 1   
    23    9   41 1   
    24   10   11 1   
    25   10   42 1   
    26   10   43 1   
    27   11   12 1   
    28   12   13 1   
    29   12   19 1   
    30   12   44 1   
    31   13   14 1   
    32   13   45 1   
    33   14   15 1   
    34   14   20 1   
    35   14   21 1   
    36   15   16 1   
    37   15   46 1   
    38   15   47 1   
    39   16   23 1   
    40   16   48 1   
    41   17   49 1   
    42   17   50 1   
    43   17   51 1   
    44   18   52 1   
    45   18   53 1   
    46   18   54 1   
    47   19   55 1   
    48   19   56 1   
    49   19   57 1   
    50   20   58 1   
    51   20   59 1   
    52   20   60 1   
    53   21   22 2   
    54   21   61 1   
    55   22   62 1   
    56   22   63 1   
    57   23   24 1   
    58   24   25 2   
    59   24   26 1   
    60   26   27 1   
    61   26   64 1   
    62   26   65 1   
    63   27   28 1   
    64   28   29 1   
    65   28   66 1   
    66   28   67 1   
    67   29   30 1   
    68   29   68 1   
    69   29   69 1   
    70   30   31 1   
    71   30   33 1   
    72   30   81 1   
    73   31   32 1   
    74   31   70 1   
    75   31   71 1   
    76   32   72 1   
    77   32   73 1   
    78   32   74 1   
    79   33   34 1   
    80   33   75 1   
    81   33   76 1   
    82   34   77 1   
    83   34   78 1   
    84   34   79 1   
@<TRIPOS>SUBSTRUCTURE
     1 MUL         1 TEMP              0 ****  ****    0 ROOT
