@<TRIPOS>MOLECULE
MUL
   82    84     1     0     0
SMALL
bcc


@<TRIPOS>ATOM
      1 O1          1.2780   -0.1830    0.2080 o         1 MUL     -0.513100
      2 O2          3.0650    1.5370    6.2800 oh        1 MUL     -0.602800
      3 C1          3.1370   -1.0220    3.1820 c3        1 MUL     -0.079400
      4 C2          3.0420   -0.9830    1.6650 c3        1 MUL     -0.192400
      5 C3          1.7320   -0.3060    1.3420 c         1 MUL      0.575100
      6 C4          1.1250    0.2140    2.6410 c3        1 MUL     -0.162700
      7 C5         -0.3990    0.4010    2.6560 c3        1 MUL     -0.016000
      8 C6         -1.0400   -0.9950    2.5560 c3        1 MUL     -0.064700
      9 C7         -0.5670   -1.9090    3.6760 c3        1 MUL     -0.078400
     10 C8          0.9350   -2.0650    3.6740 c3        1 MUL     -0.076400
     11 C9          1.7100   -0.7420    3.7110 c3        1 MUL     -0.039000
     12 C10         1.7510   -0.1780    5.1360 c3        1 MUL     -0.083700
     13 C11         2.1590    1.3080    5.2010 c3        1 MUL      0.151100
     14 C12         0.9870    2.2950    5.4560 c3        1 MUL     -0.015800
     15 C13         0.0080    2.3890    4.2820 c3        1 MUL     -0.090400
     16 C14        -0.8180    1.1450    3.9520 c3        1 MUL      0.157100
     17 C15        -0.8030    1.2450    1.4480 c3        1 MUL     -0.099100
     18 C16        -2.5500   -0.9920    2.4970 c3        1 MUL     -0.088100
     19 C17         2.6450   -1.0230    6.0300 c3        1 MUL     -0.097100
     20 C18         1.6070    3.6940    5.6030 c3        1 MUL     -0.088100
     21 C19         0.3040    1.9550    6.7450 c2        1 MUL     -0.109200
     22 C20        -0.7190    2.6310    7.2650 c2        1 MUL     -0.261000
     23 O3         -2.1710    1.6480    3.7270 os        1 MUL     -0.409900
     24 C21        -3.1390    1.3980    4.6320 c         1 MUL      0.660100
     25 O4         -2.9100    0.7190    5.6450 o         1 MUL     -0.614000
     26 C22        -4.4580    1.9920    4.2460 c3        1 MUL     -0.111300
     27 S1         -5.2060    3.0130    5.4640 ss        1 MUL     -0.158200
     28 C23        -5.3930    1.9610    6.8630 c3        1 MUL     -0.079300
     29 C24        -4.2930    2.2840    7.8590 c3        1 MUL      0.107800
     30 N1         -4.2310    1.3270    9.0170 nx        1 MUL     -0.686400
     31 C25        -3.4690    0.0870    8.6390 c3        1 MUL      0.103800
     32 C26        -3.7940   -1.1090    9.5060 c3        1 MUL     -0.132600
     33 C27        -3.6220    1.9820   10.2210 c3        1 MUL      0.103800
     34 C28        -4.5740    2.8950   10.9630 c3        1 MUL     -0.132600
     35 H12         3.5070   -2.0110    3.5450 hc        1 MUL      0.053200
     36 H21         3.8900   -0.4130    1.2080 hc        1 MUL      0.084700
     37 H22         3.0530   -2.0130    1.2240 hc        1 MUL      0.084700
     38 H4          1.6000    1.2300    2.7480 hc        1 MUL      0.077700
     39 H6         -0.6660   -1.4270    1.5780 hc        1 MUL      0.071700
     40 H71        -0.9230   -1.5300    4.6700 hc        1 MUL      0.043200
     41 H72        -1.0330   -2.9210    3.5340 hc        1 MUL      0.043200
     42 H81         1.2390   -2.7110    4.5370 hc        1 MUL      0.050700
     43 H82         1.2300   -2.6140    2.7360 hc        1 MUL      0.050700
     44 H10         0.7130   -0.2730    5.5640 hc        1 MUL      0.054700
     45 H11         2.6760    1.6130    4.2470 h1        1 MUL      0.043700
     46 H131        0.5630    2.7340    3.3710 hc        1 MUL      0.064200
     47 H132       -0.7150    3.2180    4.5310 hc        1 MUL      0.064200
     48 H14        -0.8440    0.4410    4.8250 h1        1 MUL      0.086700
     49 H151       -0.7560    0.6360    0.5110 hc        1 MUL      0.053033
     50 H152       -1.8450    1.6320    1.5550 hc        1 MUL      0.053033
     51 H153       -0.1140    2.1160    1.3370 hc        1 MUL      0.053033
     52 H161       -2.9870   -0.7330    3.4930 hc        1 MUL      0.034700
     53 H162       -2.9150   -0.2540    1.7430 hc        1 MUL      0.034700
     54 H163       -2.9180   -2.0070    2.2090 hc        1 MUL      0.034700
     55 H171        2.3120   -2.0870    6.0380 hc        1 MUL      0.043700
     56 H172        2.6010   -0.6370    7.0790 hc        1 MUL      0.043700
     57 H173        3.7090   -0.9950    5.6900 hc        1 MUL      0.043700
     58 H181        2.3160    3.7090    6.4660 hc        1 MUL      0.049367
     59 H182        2.1660    3.9640    4.6760 hc        1 MUL      0.049367
     60 H183        0.8080    4.4530    5.7790 hc        1 MUL      0.049367
     61 H19         0.7620    1.1130    7.2970 ha        1 MUL      0.137000
     62 H201       -1.1820    3.4960    6.7750 ha        1 MUL      0.095500
     63 H202       -1.1440    2.3660    8.2430 ha        1 MUL      0.095500
     64 H221       -4.3350    2.6650    3.3510 h1        1 MUL      0.128200
     65 H222       -5.1300    1.1460    3.9460 h1        1 MUL      0.128200
     66 H231       -5.3610    0.8860    6.5540 h1        1 MUL      0.099200
     67 H232       -6.4020    2.1740    7.3000 h1        1 MUL      0.099200
     68 H241       -3.2840    2.2580    7.3430 hx        1 MUL      0.118200
     69 H242       -4.4600    3.3200    8.2740 hx        1 MUL      0.118200
     70 H251       -2.3690    0.3360    8.6930 hx        1 MUL      0.110450
     71 H252       -3.7080   -0.1480    7.5570 hx        1 MUL      0.110450
     72 H261       -4.8800   -1.3700    9.4620 hc        1 MUL      0.074033
     73 H262       -3.5040   -0.9500   10.5730 hc        1 MUL      0.074033
     74 H263       -3.2110   -1.9820    9.1150 hc        1 MUL      0.074033
     75 H271       -2.7140    2.5570    9.8740 hx        1 MUL      0.110450
     76 H272       -3.2760    1.1620   10.9160 hx        1 MUL      0.110450
     77 H281       -5.4790    2.3460   11.3200 hc        1 MUL      0.074033
     78 H282       -4.0370    3.3000   11.8590 hc        1 MUL      0.074033
     79 H283       -4.9020    3.7610   10.3370 hc        1 MUL      0.074033
     80 HO2         3.9100    1.1480    6.0250 ho        1 MUL      0.410000
     81 H111       -5.1910    1.0500    9.2570 hn        1 MUL      0.436800
     82 H11A        3.8410   -0.2330    3.5490 hc        1 MUL      0.053200
@<TRIPOS>BOND
     1    1    5 2   
     2    2   13 1   
     3    2   80 1   
     4    3    4 1   
     5    3   11 1   
     6    3   35 1   
     7    3   82 1   
     8    4    5 1   
     9    4   36 1   
    10    4   37 1   
    11    5    6 1   
    12    6    7 1   
    13    6   11 1   
    14    6   38 1   
    15    7    8 1   
    16    7   16 1   
    17    7   17 1   
    18    8    9 1   
    19    8   18 1   
    20    8   39 1   
    21    9   10 1   
    22    9   40 1   
    23    9   41 1   
    24   10   11 1   
    25   10   42 1   
    26   10   43 1   
    27   11   12 1   
    28   12   13 1   
    29   12   19 1   
    30   12   44 1   
    31   13   14 1   
    32   13   45 1   
    33   14   15 1   
    34   14   20 1   
    35   14   21 1   
    36   15   16 1   
    37   15   46 1   
    38   15   47 1   
    39   16   23 1   
    40   16   48 1   
    41   17   49 1   
    42   17   50 1   
    43   17   51 1   
    44   18   52 1   
    45   18   53 1   
    46   18   54 1   
    47   19   55 1   
    48   19   56 1   
    49   19   57 1   
    50   20   58 1   
    51   20   59 1   
    52   20   60 1   
    53   21   22 2   
    54   21   61 1   
    55   22   62 1   
    56   22   63 1   
    57   23   24 1   
    58   24   25 2   
    59   24   26 1   
    60   26   27 1   
    61   26   64 1   
    62   26   65 1   
    63   27   28 1   
    64   28   29 1   
    65   28   66 1   
    66   28   67 1   
    67   29   30 1   
    68   29   68 1   
    69   29   69 1   
    70   30   31 1   
    71   30   33 1   
    72   30   81 1   
    73   31   32 1   
    74   31   70 1   
    75   31   71 1   
    76   32   72 1   
    77   32   73 1   
    78   32   74 1   
    79   33   34 1   
    80   33   75 1   
    81   33   76 1   
    82   34   77 1   
    83   34   78 1   
    84   34   79 1   
@<TRIPOS>SUBSTRUCTURE
     1 MUL         1 TEMP              0 ****  ****    0 ROOT
