@<TRIPOS>MOLECULE
MUL
   81    83     1     0     0
SMALL
bcc


@<TRIPOS>ATOM
      1 O1         -5.1820   -2.0710    1.2900 o         1 MUL     -0.527100
      2 O2         -2.3330    3.3340   -0.9130 oh        1 MUL     -0.600800
      3 C1         -4.8190    0.3300   -1.3750 c3        1 MUL     -0.081400
      4 C2         -5.7080   -0.5780   -0.5410 c3        1 MUL     -0.193400
      5 C3         -4.8030   -1.2280    0.4800 c         1 MUL      0.576100
      6 C4         -3.4110   -0.6220    0.3510 c3        1 MUL     -0.157700
      7 C5         -2.2390   -1.5000    0.8140 c3        1 MUL     -0.016000
      8 C6         -2.1630   -2.6980   -0.1500 c3        1 MUL     -0.058700
      9 C7         -1.9710   -2.2370   -1.5860 c3        1 MUL     -0.082400
     10 C8         -3.0940   -1.3340   -2.0390 c3        1 MUL     -0.073400
     11 C9         -3.3650   -0.1360   -1.1190 c3        1 MUL     -0.036000
     12 C10        -2.3750    0.9990   -1.4100 c3        1 MUL     -0.049700
     13 C11        -2.2990    2.0520   -0.2850 c3        1 MUL      0.155100
     14 C12        -1.0240    1.9380    0.5960 c3        1 MUL     -0.043800
     15 C13        -1.0450    0.7040    1.5020 c3        1 MUL     -0.086400
     16 C14        -0.9310   -0.6630    0.8230 c3        1 MUL      0.153100
     17 C15        -2.5210   -1.9920    2.2320 c3        1 MUL     -0.096100
     18 C16        -1.1200   -3.7330    0.2040 c3        1 MUL     -0.090100
     19 C17        -2.6880    1.6630   -2.7430 c3        1 MUL     -0.079100
     20 C18        -0.9920    3.1510    1.5390 c3        1 MUL     -0.098100
     21 C19         0.1880    2.0260   -0.2800 c2        1 MUL     -0.168200
     22 C20         1.3970    1.5560    0.0130 c2        1 MUL     -0.210000
     23 O3          0.0420   -1.3910    1.6200 os        1 MUL     -0.433900
     24 C21         1.2570   -1.6920    1.0810 c         1 MUL      0.639100
     25 O4          1.4790   -1.4730   -0.1130 o         1 MUL     -0.549000
     26 C22         2.1830   -2.3180    2.0750 c3        1 MUL     -0.080300
     27 S1          3.4940   -1.2580    2.5800 ss        1 MUL     -0.263200
     28 C23         4.4670   -1.0660    1.1080 c3        1 MUL     -0.030300
     29 C24         4.8880    0.3970    1.0270 c3        1 MUL      0.182800
     30 N1          5.7450    0.6710   -0.1190 n3        1 MUL     -0.744600
     31 C25         4.9860    0.8480   -1.3510 c3        1 MUL      0.171800
     32 C26         5.7820    0.5510   -2.6120 c3        1 MUL     -0.093100
     33 C27         6.6920    1.7510    0.1250 c3        1 MUL      0.171800
     34 C28         7.8510    1.3630    1.0310 c3        1 MUL     -0.093100
     35 H11A       -4.9370    1.3950   -1.0540 hc        1 MUL      0.054700
     36 H12        -5.0690    0.2680   -2.4620 hc        1 MUL      0.054700
     37 H21        -6.1950   -1.3670   -1.1680 hc        1 MUL      0.075700
     38 H22        -6.5200   -0.0070   -0.0250 hc        1 MUL      0.075700
     39 H4         -3.4670    0.2680    1.0400 hc        1 MUL      0.075700
     40 H6         -3.1730   -3.2040   -0.0810 hc        1 MUL      0.055700
     41 H71        -1.9480   -3.1410   -2.2530 hc        1 MUL      0.050700
     42 H72        -0.9780   -1.7280   -1.7060 hc        1 MUL      0.050700
     43 H81        -4.0350   -1.9470   -2.0960 hc        1 MUL      0.044200
     44 H82        -2.8740   -0.9740   -3.0770 hc        1 MUL      0.044200
     45 H10        -1.3520    0.5380   -1.5210 hc        1 MUL      0.067700
     46 H11        -3.2020    1.9820    0.3860 h1        1 MUL      0.030700
     47 H131       -1.9610    0.7430    2.1470 hc        1 MUL      0.058700
     48 H132       -0.1720    0.7960    2.2100 hc        1 MUL      0.058700
     49 H14        -0.5290   -0.5450   -0.2190 h1        1 MUL      0.095700
     50 H151       -1.5950   -2.3960    2.7070 hc        1 MUL      0.048367
     51 H152       -2.9020   -1.1540    2.8640 hc        1 MUL      0.048367
     52 H153       -3.2900   -2.8030    2.2210 hc        1 MUL      0.048367
     53 H161       -0.0940   -3.3600   -0.0290 hc        1 MUL      0.037033
     54 H162       -1.1700   -3.9920    1.2890 hc        1 MUL      0.037033
     55 H163       -1.2960   -4.6620   -0.3910 hc        1 MUL      0.037033
     56 H171       -1.8590    2.3660   -3.0100 hc        1 MUL      0.040700
     57 H172       -2.7870    0.9090   -3.5580 hc        1 MUL      0.040700
     58 H173       -3.6330    2.2540   -2.6850 hc        1 MUL      0.040700
     59 H181       -0.1850    3.0260    2.3000 hc        1 MUL      0.041033
     60 H182       -0.7810    4.0860    0.9660 hc        1 MUL      0.041033
     61 H183       -1.9690    3.2560    2.0670 hc        1 MUL      0.041033
     62 H19         0.0070    2.5800   -1.2200 ha        1 MUL      0.137000
     63 H201        1.6190    0.9890    0.9280 ha        1 MUL      0.114500
     64 H202        2.2510    1.6780   -0.6670 ha        1 MUL      0.114500
     65 H221        2.5750   -3.2640    1.6250 h1        1 MUL      0.108200
     66 H222        1.6290   -2.5690    3.0180 h1        1 MUL      0.108200
     67 H231        3.8730   -1.3650    0.2090 h1        1 MUL      0.086700
     68 H232        5.3620   -1.7300    1.1720 h1        1 MUL      0.086700
     69 H241        5.4470    0.6520    1.9720 h1        1 MUL      0.043700
     70 H242        3.9530    1.0350    1.0060 h1        1 MUL      0.043700
     71 H251        4.5690    1.8960   -1.4260 h1        1 MUL      0.031450
     72 H252        4.1040    0.1440   -1.3230 h1        1 MUL      0.031450
     73 H261        6.6010    1.2930   -2.7660 hc        1 MUL      0.038200
     74 H262        6.2340   -0.4690   -2.5710 hc        1 MUL      0.038200
     75 H263        5.0910    0.6010   -3.4880 hc        1 MUL      0.038200
     76 H271        7.1220    2.0650   -0.8700 h1        1 MUL      0.031450
     77 H272        6.1780    2.6560    0.5650 h1        1 MUL      0.031450
     78 H281        8.3840    0.4650    0.6380 hc        1 MUL      0.038200
     79 H282        8.5690    2.2170    1.0760 hc        1 MUL      0.038200
     80 H283        7.5050    1.1400    2.0680 hc        1 MUL      0.038200
     81 HO2        -2.4900    3.9840   -0.2190 ho        1 MUL      0.400000
@<TRIPOS>BOND
     1    1    5 2   
     2    2   13 1   
     3    2   81 1   
     4    3    4 1   
     5    3   11 1   
     6    3   35 1   
     7    3   36 1   
     8    4    5 1   
     9    4   37 1   
    10    4   38 1   
    11    5    6 1   
    12    6    7 1   
    13    6   11 1   
    14    6   39 1   
    15    7    8 1   
    16    7   16 1   
    17    7   17 1   
    18    8    9 1   
    19    8   18 1   
    20    8   40 1   
    21    9   10 1   
    22    9   41 1   
    23    9   42 1   
    24   10   11 1   
    25   10   43 1   
    26   10   44 1   
    27   11   12 1   
    28   12   13 1   
    29   12   19 1   
    30   12   45 1   
    31   13   14 1   
    32   13   46 1   
    33   14   15 1   
    34   14   20 1   
    35   14   21 1   
    36   15   16 1   
    37   15   47 1   
    38   15   48 1   
    39   16   23 1   
    40   16   49 1   
    41   17   50 1   
    42   17   51 1   
    43   17   52 1   
    44   18   53 1   
    45   18   54 1   
    46   18   55 1   
    47   19   56 1   
    48   19   57 1   
    49   19   58 1   
    50   20   59 1   
    51   20   60 1   
    52   20   61 1   
    53   21   22 2   
    54   21   62 1   
    55   22   63 1   
    56   22   64 1   
    57   23   24 1   
    58   24   25 2   
    59   24   26 1   
    60   26   27 1   
    61   26   65 1   
    62   26   66 1   
    63   27   28 1   
    64   28   29 1   
    65   28   67 1   
    66   28   68 1   
    67   29   30 1   
    68   29   69 1   
    69   29   70 1   
    70   30   31 1   
    71   30   33 1   
    72   31   32 1   
    73   31   71 1   
    74   31   72 1   
    75   32   73 1   
    76   32   74 1   
    77   32   75 1   
    78   33   34 1   
    79   33   76 1   
    80   33   77 1   
    81   34   78 1   
    82   34   79 1   
    83   34   80 1   
@<TRIPOS>SUBSTRUCTURE
     1 MUL         1 TEMP              0 ****  ****    0 ROOT
