@<TRIPOS>MOLECULE
MUP
   42    41     1     0     0
SMALL
bcc


@<TRIPOS>ATOM
      1 C1         -0.7590    0.0750   -3.1130 c3        1 MUP     -0.326600
      2 C2          0.1050   -0.0280   -1.8910 c3        1 MUP     -0.070400
      3 C3         -0.6800    0.0710   -0.6030 c3        1 MUP     -0.068400
      4 C4          0.2250   -0.0380    0.6060 c3        1 MUP     -0.080400
      5 C5         -0.5600    0.0620    1.8960 c3        1 MUP     -0.078400
      6 C6          0.3460   -0.0470    3.1040 c3        1 MUP     -0.079400
      7 C7         -0.4400    0.0520    4.3940 c3        1 MUP     -0.078400
      8 C8          0.4670   -0.0570    5.6010 c3        1 MUP     -0.079400
      9 C9         -0.3190    0.0420    6.8910 c3        1 MUP     -0.079400
     10 C10         0.5880   -0.0670    8.0990 c3        1 MUP     -0.080400
     11 C11        -0.1900    0.0310    9.3860 c3        1 MUP     -0.091100
     12 CM         -0.2270    0.0010   -6.9120 c3        1 MUP      0.164700
     13 O1P         0.8400   -1.4290   -4.5400 o         1 MUP     -0.865500
     14 O2P        -0.8360    0.0790   -5.6650 os        1 MUP     -0.587200
     15 O3P         1.1560    1.1410   -4.5460 o         1 MUP     -0.865500
     16 P           0.2910   -0.0570   -4.4380 p5        1 MUP      1.335600
     17 H11        -1.5260   -0.7330   -3.1260 hc        1 MUP      0.062700
     18 H12        -1.3080    1.0460   -3.1300 hc        1 MUP      0.062700
     19 H21         0.8760    0.7890   -1.9380 hc        1 MUP      0.055700
     20 H22         0.6550   -1.0080   -1.9340 hc        1 MUP      0.055700
     21 H31        -1.4510   -0.7430   -0.5700 hc        1 MUP      0.028700
     22 H32        -1.2300    1.0480   -0.5740 hc        1 MUP      0.028700
     23 H41         0.9960    0.7770    0.5710 hc        1 MUP      0.038700
     24 H42         0.7760   -1.0150    0.5750 hc        1 MUP      0.038700
     25 H51        -1.3310   -0.7530    1.9300 hc        1 MUP      0.034700
     26 H52        -1.1110    1.0390    1.9260 hc        1 MUP      0.034700
     27 H61         1.1170    0.7670    3.0690 hc        1 MUP      0.038700
     28 H62         0.8960   -1.0240    3.0730 hc        1 MUP      0.038700
     29 H71        -1.2110   -0.7620    4.4280 hc        1 MUP      0.036700
     30 H72        -0.9910    1.0290    4.4240 hc        1 MUP      0.036700
     31 H81         1.2380    0.7570    5.5660 hc        1 MUP      0.038700
     32 H82         1.0170   -1.0340    5.5700 hc        1 MUP      0.038700
     33 H91        -1.0890   -0.7720    6.9260 hc        1 MUP      0.037700
     34 H92        -0.8690    1.0190    6.9220 hc        1 MUP      0.037700
     35 H101        1.3590    0.7470    8.0620 hc        1 MUP      0.037700
     36 H102        1.1390   -1.0440    8.0650 hc        1 MUP      0.037700
     37 H111        0.4960   -0.0510   10.2630 hc        1 MUP      0.029367
     38 H112       -0.7260    1.0090    9.4490 hc        1 MUP      0.029367
     39 H113       -0.9470   -0.7870    9.4520 hc        1 MUP      0.029367
     40 HM1        -1.0170    0.0960   -7.7000 h1        1 MUP      0.006700
     41 HM2         0.5210    0.8310   -7.0160 h1        1 MUP      0.006700
     42 HM3         0.2980   -0.9860   -7.0120 h1        1 MUP      0.006700
@<TRIPOS>BOND
     1    1    2 1   
     2    1   16 1   
     3    1   17 1   
     4    1   18 1   
     5    2    3 1   
     6    2   19 1   
     7    2   20 1   
     8    3    4 1   
     9    3   21 1   
    10    3   22 1   
    11    4    5 1   
    12    4   23 1   
    13    4   24 1   
    14    5    6 1   
    15    5   25 1   
    16    5   26 1   
    17    6    7 1   
    18    6   27 1   
    19    6   28 1   
    20    7    8 1   
    21    7   29 1   
    22    7   30 1   
    23    8    9 1   
    24    8   31 1   
    25    8   32 1   
    26    9   10 1   
    27    9   33 1   
    28    9   34 1   
    29   10   11 1   
    30   10   35 1   
    31   10   36 1   
    32   11   37 1   
    33   11   38 1   
    34   11   39 1   
    35   12   14 1   
    36   12   40 1   
    37   12   41 1   
    38   12   42 1   
    39   13   16 1   
    40   14   16 1   
    41   15   16 1   
@<TRIPOS>SUBSTRUCTURE
     1 MUP         1 TEMP              0 ****  ****    0 ROOT
