@<TRIPOS>MOLECULE
MUP
   42    41     1     0     0
SMALL
bcc


@<TRIPOS>ATOM
      1 C1         -2.5830    2.4400   -2.9540 c3        1 MUP     -0.326600
      2 C2         -1.7550    1.2230   -2.6040 c3        1 MUP     -0.070400
      3 C3         -1.4500    1.2300   -1.1230 c3        1 MUP     -0.068400
      4 C4         -0.6590   -0.0090   -0.7650 c3        1 MUP     -0.080400
      5 C5         -0.0910    0.1400    0.6290 c3        1 MUP     -0.078400
      6 C6          0.5360   -1.1680    1.0600 c3        1 MUP     -0.079400
      7 C7          1.3280   -0.9520    2.3320 c3        1 MUP     -0.078400
      8 C8          1.8400   -2.2830    2.8380 c3        1 MUP     -0.079400
      9 C9          2.8400   -2.0480    3.9490 c3        1 MUP     -0.079400
     10 C10         3.1910   -3.3680    4.5990 c3        1 MUP     -0.080400
     11 C11         4.3240   -3.1620    5.5800 c3        1 MUP     -0.091100
     12 CM         -3.8310    4.1690   -6.4360 c3        1 MUP      0.164700
     13 O1P        -1.5310    2.6600   -5.4540 o         1 MUP     -0.865500
     14 O2P        -3.7990    3.7090   -5.1030 os        1 MUP     -0.587200
     15 O3P        -3.5040    1.2040   -5.1960 o         1 MUP     -0.865500
     16 P          -2.8550    2.4920   -4.7480 p5        1 MUP      1.335600
     17 H11        -3.4460    2.3910   -2.4950 hc        1 MUP      0.062700
     18 H12        -2.1100    3.2490   -2.6730 hc        1 MUP      0.062700
     19 H21        -0.9180    1.2430   -3.1100 hc        1 MUP      0.055700
     20 H22        -2.2540    0.4130   -2.8310 hc        1 MUP      0.055700
     21 H31        -0.9260    2.0260   -0.9010 hc        1 MUP      0.028700
     22 H32        -2.2870    1.2400   -0.6170 hc        1 MUP      0.028700
     23 H41        -1.2470   -0.7910   -0.7960 hc        1 MUP      0.038700
     24 H42         0.0720   -0.1260   -1.4040 hc        1 MUP      0.038700
     25 H51        -0.8080    0.3780    1.2500 hc        1 MUP      0.034700
     26 H52         0.5890    0.8430    0.6310 hc        1 MUP      0.034700
     27 H61         1.1320   -1.4920    0.3560 hc        1 MUP      0.038700
     28 H62        -0.1670   -1.8290    1.2220 hc        1 MUP      0.038700
     29 H71         2.0840   -0.3600    2.1480 hc        1 MUP      0.036700
     30 H72         0.7520   -0.5450    3.0090 hc        1 MUP      0.036700
     31 H81         1.0920   -2.8120    3.1800 hc        1 MUP      0.038700
     32 H82         2.2740   -2.7650    2.1060 hc        1 MUP      0.038700
     33 H91         2.4500   -1.4490    4.6170 hc        1 MUP      0.037700
     34 H92         3.6490   -1.6410    3.5790 hc        1 MUP      0.037700
     35 H101        2.4090   -3.7170    5.0720 hc        1 MUP      0.037700
     36 H102        3.4680   -4.0060    3.9110 hc        1 MUP      0.037700
     37 H111        4.0510   -2.5120    6.2620 hc        1 MUP      0.029367
     38 H112        4.5420   -4.0150    6.0110 hc        1 MUP      0.029367
     39 H113        5.1120   -2.8250    5.1040 hc        1 MUP      0.029367
     40 HM1        -3.9160    3.4030   -7.0440 h1        1 MUP      0.006700
     41 HM2        -3.0010    4.6530   -6.6350 h1        1 MUP      0.006700
     42 HM3        -4.5970    4.7700   -6.5570 h1        1 MUP      0.006700
@<TRIPOS>BOND
     1    1    2 1   
     2    1   16 1   
     3    1   17 1   
     4    1   18 1   
     5    2    3 1   
     6    2   19 1   
     7    2   20 1   
     8    3    4 1   
     9    3   21 1   
    10    3   22 1   
    11    4    5 1   
    12    4   23 1   
    13    4   24 1   
    14    5    6 1   
    15    5   25 1   
    16    5   26 1   
    17    6    7 1   
    18    6   27 1   
    19    6   28 1   
    20    7    8 1   
    21    7   29 1   
    22    7   30 1   
    23    8    9 1   
    24    8   31 1   
    25    8   32 1   
    26    9   10 1   
    27    9   33 1   
    28    9   34 1   
    29   10   11 1   
    30   10   35 1   
    31   10   36 1   
    32   11   37 1   
    33   11   38 1   
    34   11   39 1   
    35   12   14 1   
    36   12   40 1   
    37   12   41 1   
    38   12   42 1   
    39   13   16 1   
    40   14   16 1   
    41   15   16 1   
@<TRIPOS>SUBSTRUCTURE
     1 MUP         1 TEMP              0 ****  ****    0 ROOT
