@<TRIPOS>MOLECULE
MUP
   42    41     1     0     0
SMALL
bcc


@<TRIPOS>ATOM
      1 C1          0.0270    0.0050   -0.1180 c3        1 MUP     -0.326600
      2 C2          1.5250    0.0040   -0.0410 c3        1 MUP     -0.070400
      3 C3          2.0430    0.0020    1.3790 c3        1 MUP     -0.068400
      4 C4          3.5570    0.0010    1.4150 c3        1 MUP     -0.080400
      5 C5          4.0770    0.0000    2.8370 c3        1 MUP     -0.078400
      6 C6          5.5900   -0.0000    2.8720 c3        1 MUP     -0.079400
      7 C7          6.1090   -0.0010    4.2940 c3        1 MUP     -0.078400
      8 C8          7.6220   -0.0010    4.3280 c3        1 MUP     -0.079400
      9 C9          8.1420   -0.0020    5.7500 c3        1 MUP     -0.079400
     10 C10         9.6550   -0.0020    5.7850 c3        1 MUP     -0.080400
     11 C11        10.1770   -0.0020    7.1980 c3        1 MUP     -0.091100
     12 CM         -2.6170    0.0090   -2.8980 c3        1 MUP      0.164700
     13 O1P         0.0050   -1.2890   -2.3950 o         1 MUP     -0.865500
     14 O2P        -2.0210    0.0080   -1.6430 os        1 MUP     -0.587200
     15 O3P         0.0070    1.3020   -2.3930 o         1 MUP     -0.865500
     16 P          -0.3540    0.0060   -1.7700 p5        1 MUP      1.335600
     17 H11        -0.3960    0.9010    0.3940 hc        1 MUP      0.062700
     18 H12        -0.3970   -0.8920    0.3920 hc        1 MUP      0.062700
     19 H21         1.9040    0.9090   -0.5900 hc        1 MUP      0.055700
     20 H22         1.9030   -0.9010   -0.5910 hc        1 MUP      0.055700
     21 H31         1.6530   -0.9000    1.9190 hc        1 MUP      0.028700
     22 H32         1.6550    0.9040    1.9200 hc        1 MUP      0.028700
     23 H41         3.9440   -0.9010    0.8730 hc        1 MUP      0.038700
     24 H42         3.9450    0.9040    0.8730 hc        1 MUP      0.038700
     25 H51         3.6880   -0.9020    3.3780 hc        1 MUP      0.034700
     26 H52         3.6880    0.9030    3.3790 hc        1 MUP      0.034700
     27 H61         5.9770   -0.9030    2.3300 hc        1 MUP      0.038700
     28 H62         5.9780    0.9020    2.3300 hc        1 MUP      0.038700
     29 H71         5.7210    0.9020    4.8360 hc        1 MUP      0.036700
     30 H72         5.7210   -0.9030    4.8360 hc        1 MUP      0.036700
     31 H81         8.0110    0.9010    3.7860 hc        1 MUP      0.038700
     32 H82         8.0100   -0.9040    3.7860 hc        1 MUP      0.038700
     33 H91         7.7540   -0.9040    6.2920 hc        1 MUP      0.037700
     34 H92         7.7540    0.9010    6.2920 hc        1 MUP      0.037700
     35 H101       10.0410   -0.9040    5.2410 hc        1 MUP      0.037700
     36 H102       10.0410    0.9000    5.2400 hc        1 MUP      0.037700
     37 H111        9.8230   -0.9060    7.7490 hc        1 MUP      0.029367
     38 H112        9.8230    0.9030    7.7490 hc        1 MUP      0.029367
     39 H113       11.2940   -0.0020    7.2010 hc        1 MUP      0.029367
     40 HM1        -2.2980    0.9250   -3.4630 h1        1 MUP      0.006700
     41 HM2        -2.3000   -0.9060   -3.4650 h1        1 MUP      0.006700
     42 HM3        -3.7280    0.0100   -2.7640 h1        1 MUP      0.006700
@<TRIPOS>BOND
     1    1    2 1   
     2    1   16 1   
     3    1   17 1   
     4    1   18 1   
     5    2    3 1   
     6    2   19 1   
     7    2   20 1   
     8    3    4 1   
     9    3   21 1   
    10    3   22 1   
    11    4    5 1   
    12    4   23 1   
    13    4   24 1   
    14    5    6 1   
    15    5   25 1   
    16    5   26 1   
    17    6    7 1   
    18    6   27 1   
    19    6   28 1   
    20    7    8 1   
    21    7   29 1   
    22    7   30 1   
    23    8    9 1   
    24    8   31 1   
    25    8   32 1   
    26    9   10 1   
    27    9   33 1   
    28    9   34 1   
    29   10   11 1   
    30   10   35 1   
    31   10   36 1   
    32   11   37 1   
    33   11   38 1   
    34   11   39 1   
    35   12   14 1   
    36   12   40 1   
    37   12   41 1   
    38   12   42 1   
    39   13   16 1   
    40   14   16 1   
    41   15   16 1   
@<TRIPOS>SUBSTRUCTURE
     1 MUP         1 TEMP              0 ****  ****    0 ROOT
