@<TRIPOS>MOLECULE
MUR
   34    34     1     0     0
SMALL
bcc


@<TRIPOS>ATOM
      1 C1         -0.1350   -0.0820    0.0240 c3        1 MUR      0.306900
      2 O1         -0.5510    0.1490   -1.2920 oh        1 MUR     -0.588800
      3 C2          1.4130   -0.1990    0.1270 c3        1 MUR      0.085500
      4 N2          1.9720   -1.3050   -0.6140 n8        1 MUR     -0.906800
      5 C3          1.7780   -0.2580    1.6260 c3        1 MUR      0.109100
      6 O3          3.1880   -0.1340    1.8170 os        1 MUR     -0.437600
      7 C4          1.1810    0.9630    2.3550 c3        1 MUR      0.117100
      8 O4          1.3730    0.8370    3.7520 oh        1 MUR     -0.590800
      9 C5         -0.3340    1.0350    2.1150 c3        1 MUR      0.111100
     10 O5         -0.6030    1.0690    0.7130 os        1 MUR     -0.457600
     11 C6         -0.9200    2.3290    2.6880 c3        1 MUR      0.140400
     12 O6         -2.3270    2.3250    2.6170 oh        1 MUR     -0.590800
     13 C7          3.9330   -1.3500    1.7030 c3        1 MUR      0.065100
     14 C8          4.7430   -1.3280    0.4190 c         1 MUR      0.633100
     15 O8          5.4150   -2.2670   -0.0080 o         1 MUR     -0.504000
     16 O9          4.7940   -0.2020   -0.3400 oh        1 MUR     -0.569100
     17 C9          4.8630   -1.4240    2.9020 c3        1 MUR     -0.105100
     18 H1         -0.6570   -1.0150    0.3730 h2        1 MUR      0.078700
     19 HO1        -0.4010    1.0830   -1.4980 ho        1 MUR      0.427000
     20 H2          1.8580    0.7520   -0.2950 h1        1 MUR      0.078700
     21 HN21        4.1770    0.4580    0.0130 ho        1 MUR      0.437000
     22 HN22        1.9110   -1.1320   -1.5990 hn        1 MUR      0.367300
     23 H3          1.4000   -1.2060    2.0970 h1        1 MUR      0.064700
     24 H4          1.6800    1.9000    1.9810 h1        1 MUR      0.061700
     25 HO4         2.3280    0.7620    3.8910 ho        1 MUR      0.423000
     26 H5         -0.8420    0.1430    2.5740 h1        1 MUR      0.073700
     27 H61        -0.6720    2.3890    3.7820 h1        1 MUR      0.065200
     28 H62        -0.5000    3.2150    2.1420 h1        1 MUR      0.065200
     29 HO6        -2.5650    2.2450    1.6840 ho        1 MUR      0.411000
     30 H7          3.2570   -2.2500    1.6740 h1        1 MUR      0.085700
     31 H91         5.4670   -0.4890    2.9860 hc        1 MUR      0.058700
     32 H92         4.2670   -1.5490    3.8360 hc        1 MUR      0.058700
     33 H93         5.5510   -2.2950    2.7780 hc        1 MUR      0.058700
     34 H23         1.4970   -2.1600   -0.3990 hn        1 MUR      0.367300
@<TRIPOS>BOND
     1    1    2 1   
     2    1    3 1   
     3    1   10 1   
     4    1   18 1   
     5    2   19 1   
     6    3    4 1   
     7    3    5 1   
     8    3   20 1   
     9    4   22 1   
    10    4   34 1   
    11    5    6 1   
    12    5    7 1   
    13    5   23 1   
    14    6   13 1   
    15    7    8 1   
    16    7    9 1   
    17    7   24 1   
    18    8   25 1   
    19    9   10 1   
    20    9   11 1   
    21    9   26 1   
    22   11   12 1   
    23   11   27 1   
    24   11   28 1   
    25   12   29 1   
    26   13   14 1   
    27   13   17 1   
    28   13   30 1   
    29   14   15 2   
    30   14   16 1   
    31   16   21 1   
    32   17   31 1   
    33   17   32 1   
    34   17   33 1   
@<TRIPOS>SUBSTRUCTURE
     1 MUR         1 TEMP              0 ****  ****    0 ROOT
