@<TRIPOS>MOLECULE
MUR
   34    34     1     0     0
SMALL
bcc


@<TRIPOS>ATOM
      1 C1         -0.1450   -0.0620    0.0370 c3        1 MUR      0.306900
      2 O1         -0.5670    0.1750   -1.2760 oh        1 MUR     -0.588800
      3 C2          1.4030   -0.1960    0.1290 c3        1 MUR      0.085500
      4 N2          1.9450   -1.3070   -0.6170 n3        1 MUR     -0.906800
      5 C3          1.7780   -0.2610    1.6250 c3        1 MUR      0.109100
      6 O3          3.1900   -0.1520    1.8070 os        1 MUR     -0.437600
      7 C4          1.1990    0.9660    2.3600 c3        1 MUR      0.117100
      8 O4          1.3990    0.8360    3.7560 oh        1 MUR     -0.590800
      9 C5         -0.3170    1.0550    2.1310 c3        1 MUR      0.111100
     10 O5         -0.5960    1.0930    0.7300 os        1 MUR     -0.457600
     11 C6         -0.8850    2.3540    2.7090 c3        1 MUR      0.140400
     12 O6         -2.2930    2.3640    2.6480 oh        1 MUR     -0.590800
     13 C7          3.9210   -1.3760    1.6850 c3        1 MUR      0.065100
     14 C8          4.7220   -1.3610    0.3960 c         1 MUR      0.633100
     15 O8          5.3810   -2.3060   -0.0370 o         1 MUR     -0.504000
     16 O9          4.7800   -0.2340   -0.3620 oh        1 MUR     -0.569100
     17 C9          4.8600   -1.4610    2.8770 c3        1 MUR     -0.105100
     18 H1         -0.6750   -0.9900    0.3890 h2        1 MUR      0.078700
     19 HO1        -0.4090    1.1080   -1.4820 ho        1 MUR      0.427000
     20 H2          1.8550    0.7510   -0.2950 h1        1 MUR      0.078700
     21 HN21        1.8790   -1.1320   -1.6010 hn        1 MUR      0.367300
     22 HN22        4.1730    0.4320   -0.0040 ho        1 MUR      0.437000
     23 H3          1.3930   -1.2050    2.0980 h1        1 MUR      0.064700
     24 H4          1.7050    1.8980    1.9830 h1        1 MUR      0.061700
     25 HO4         2.3540    0.7510    3.8880 ho        1 MUR      0.423000
     26 H5         -0.8320    0.1680    2.5920 h1        1 MUR      0.073700
     27 H61        -0.6290    2.4100    3.8010 h1        1 MUR      0.065200
     28 H62        -0.4590    3.2360    2.1610 h1        1 MUR      0.065200
     29 HO6        -2.5380    2.2890    1.7170 ho        1 MUR      0.411000
     30 H7          3.2360   -2.2680    1.6610 h1        1 MUR      0.085700
     31 H91         5.5370   -2.3390    2.7480 hc        1 MUR      0.058700
     32 H92         5.4740   -0.5320    2.9580 hc        1 MUR      0.058700
     33 H93         4.2690   -1.5800    3.8160 hc        1 MUR      0.058700
     34 H23         1.4620   -2.1570   -0.4000 hn        1 MUR      0.367300
@<TRIPOS>BOND
     1    1    2 1   
     2    1    3 1   
     3    1   10 1   
     4    1   18 1   
     5    2   19 1   
     6    3    4 1   
     7    3    5 1   
     8    3   20 1   
     9    4   21 1   
    10    4   34 1   
    11    5    6 1   
    12    5    7 1   
    13    5   23 1   
    14    6   13 1   
    15    7    8 1   
    16    7    9 1   
    17    7   24 1   
    18    8   25 1   
    19    9   10 1   
    20    9   11 1   
    21    9   26 1   
    22   11   12 1   
    23   11   27 1   
    24   11   28 1   
    25   12   29 1   
    26   13   14 1   
    27   13   17 1   
    28   13   30 1   
    29   14   15 2   
    30   14   16 1   
    31   16   22 1   
    32   17   31 1   
    33   17   32 1   
    34   17   33 1   
@<TRIPOS>SUBSTRUCTURE
     1 MUR         1 TEMP              0 ****  ****    0 ROOT
