@<TRIPOS>MOLECULE
MUR
   33    33     1     0     0
SMALL
bcc


@<TRIPOS>ATOM
      1 C1         -1.8530   -0.2110   -1.4530 c3        1 MUR      0.331900
      2 O1         -2.3110   -0.0270   -2.7400 oh        1 MUR     -0.589800
      3 C2         -0.3550   -0.2350   -1.4720 c3        1 MUR      0.118500
      4 N2          0.1000   -1.4450   -2.1880 n3        1 MUR     -0.928800
      5 C3          0.2240   -0.2440   -0.1070 c3        1 MUR      0.112100
      6 O3          1.6480   -0.0810   -0.2090 os        1 MUR     -0.415600
      7 C4         -0.3280    0.8580    0.7520 c3        1 MUR      0.108100
      8 O4          0.1390    0.6740    2.0980 oh        1 MUR     -0.617800
      9 C5         -1.8420    0.8830    0.7570 c3        1 MUR      0.115100
     10 O5         -2.4020    0.8910   -0.5800 os        1 MUR     -0.479600
     11 C6         -2.3070    2.1150    1.4840 c3        1 MUR      0.139400
     12 O6         -3.7160    2.2220    1.3740 oh        1 MUR     -0.612800
     13 C7          2.3950   -1.1570    0.3310 c3        1 MUR      0.000100
     14 C8          3.1160   -1.8940   -0.8020 c         1 MUR      0.924600
     15 O8          3.0450   -3.1440   -0.8820 o         1 MUR     -0.826800
     16 O9          3.6950   -1.2470   -1.6940 o         1 MUR     -0.826800
     17 C9          3.4050   -0.6230    1.3070 c3        1 MUR     -0.095100
     18 H1         -2.1860   -1.0870   -1.1140 h2        1 MUR      0.083700
     19 HO1        -3.1470   -0.2930   -2.7930 ho        1 MUR      0.407000
     20 H2         -0.0420    0.5320   -1.9330 h1        1 MUR      0.031700
     21 HN21       -0.5500   -2.0530   -2.1890 hn        1 MUR      0.385800
     22 HN22        0.3210   -1.2210   -3.0750 hn        1 MUR      0.385800
     23 H3          0.0230   -1.1400    0.3330 h1        1 MUR      0.057700
     24 H4          0.0060    1.7260    0.4130 h1        1 MUR      0.057700
     25 HO4         0.3500    1.4710    2.4540 ho        1 MUR      0.431000
     26 H5         -2.1650    0.1040    1.2240 h1        1 MUR      0.057700
     27 H61        -1.8710    2.9350    1.0720 h1        1 MUR      0.056200
     28 H62        -2.0530    2.0500    2.4460 h1        1 MUR      0.056200
     29 HO6        -3.9950    2.9110    1.8390 ho        1 MUR      0.412000
     30 H7          1.7870   -1.7820    0.7950 h1        1 MUR      0.035700
     31 H91         3.0000   -0.5640    2.2000 hc        1 MUR      0.029033
     32 H92         3.7010    0.2910    1.0140 hc        1 MUR      0.029033
     33 H93         4.1670   -1.2150    1.3370 hc        1 MUR      0.029033
@<TRIPOS>BOND
     1    1    2 1   
     2    1    3 1   
     3    1   10 1   
     4    1   18 1   
     5    2   19 1   
     6    3    4 1   
     7    3    5 1   
     8    3   20 1   
     9    4   21 1   
    10    4   22 1   
    11    5    6 1   
    12    5    7 1   
    13    5   23 1   
    14    6   13 1   
    15    7    8 1   
    16    7    9 1   
    17    7   24 1   
    18    8   25 1   
    19    9   10 1   
    20    9   11 1   
    21    9   26 1   
    22   11   12 1   
    23   11   27 1   
    24   11   28 1   
    25   12   29 1   
    26   13   14 1   
    27   13   17 1   
    28   13   30 1   
    29   14   15 1   
    30   14   16 1   
    31   17   31 1   
    32   17   32 1   
    33   17   33 1   
@<TRIPOS>SUBSTRUCTURE
     1 MUR         1 TEMP              0 ****  ****    0 ROOT
