@<TRIPOS>MOLECULE
MUR
   33    33     1     0     0
SMALL
bcc


@<TRIPOS>ATOM
      1 C1         -1.7130    0.2280   -1.7140 c3        1 MUR      0.337900
      2 O1         -2.8510   -0.4950   -2.1160 oh        1 MUR     -0.592800
      3 C2         -1.3310   -0.2160   -0.2760 c3        1 MUR      0.152500
      4 N2         -2.2950    0.2890    0.6790 n3        1 MUR     -0.931800
      5 C3          0.0990    0.2980    0.0110 c3        1 MUR      0.107100
      6 O3          0.5710   -0.2620    1.2260 os        1 MUR     -0.413600
      7 C4          1.0510   -0.2130   -1.0850 c3        1 MUR      0.108100
      8 O4          2.3630    0.2890   -0.8850 oh        1 MUR     -0.619800
      9 C5          0.5680    0.2780   -2.4540 c3        1 MUR      0.119100
     10 O5         -0.7610   -0.1770   -2.7000 os        1 MUR     -0.489600
     11 C6          1.4270   -0.3020   -3.5790 c3        1 MUR      0.137400
     12 O6          1.0290    0.1870   -4.8440 oh        1 MUR     -0.610800
     13 C7          0.5730    0.6340    2.3500 c3        1 MUR     -0.000900
     14 C8         -0.0660   -0.1370    3.5480 c         1 MUR      0.925600
     15 O8         -1.2990   -0.3960    3.4540 o         1 MUR     -0.826300
     16 O9          0.6610   -0.4080    4.5370 o         1 MUR     -0.826300
     17 C9          2.0010    1.0540    2.6160 c3        1 MUR     -0.096100
     18 H1         -1.8790    1.3390   -1.7920 h2        1 MUR      0.040700
     19 HO1        -2.9210   -0.4110   -3.0760 ho        1 MUR      0.406000
     20 H2         -1.2850   -1.3480   -0.2850 h1        1 MUR      0.048700
     21 HN21       -3.1260   -0.2670    0.6310 hn        1 MUR      0.387300
     22 HN22       -1.9150    0.2410    1.6160 hn        1 MUR      0.387300
     23 H3          0.1190    1.4220    0.0310 h1        1 MUR      0.055700
     24 H4          1.0810   -1.3380   -1.0640 h1        1 MUR      0.060700
     25 HO4         2.5400    0.2020    0.0650 ho        1 MUR      0.433000
     26 H5          0.5870    1.4020   -2.4920 h1        1 MUR      0.055700
     27 H61         2.4890    0.0340   -3.4430 h1        1 MUR      0.058200
     28 H62         1.3690   -1.4230   -3.5660 h1        1 MUR      0.058200
     29 HO6         0.0830    0.0090   -4.9270 ho        1 MUR      0.407000
     30 H7         -0.0670    1.5340    2.1460 h1        1 MUR      0.034700
     31 H91         2.6360    0.1500    2.7750 hc        1 MUR      0.029033
     32 H92         2.4130    1.6440    1.7620 hc        1 MUR      0.029033
     33 H93         2.0310    1.6690    3.5460 hc        1 MUR      0.029033
@<TRIPOS>BOND
     1    1    2 1   
     2    1    3 1   
     3    1   10 1   
     4    1   18 1   
     5    2   19 1   
     6    3    4 1   
     7    3    5 1   
     8    3   20 1   
     9    4   21 1   
    10    4   22 1   
    11    5    6 1   
    12    5    7 1   
    13    5   23 1   
    14    6   13 1   
    15    7    8 1   
    16    7    9 1   
    17    7   24 1   
    18    8   25 1   
    19    9   10 1   
    20    9   11 1   
    21    9   26 1   
    22   11   12 1   
    23   11   27 1   
    24   11   28 1   
    25   12   29 1   
    26   13   14 1   
    27   13   17 1   
    28   13   30 1   
    29   14   15 1   
    30   14   16 1   
    31   17   31 1   
    32   17   32 1   
    33   17   33 1   
@<TRIPOS>SUBSTRUCTURE
     1 MUR         1 TEMP              0 ****  ****    0 ROOT
