@<TRIPOS>MOLECULE
MUR
   34    34     1     0     0
SMALL
bcc


@<TRIPOS>ATOM
      1 C1         -0.1480   -0.0890    0.0430 c3        1 MUR      0.306900
      2 O1         -0.5760    0.1340   -1.2710 oh        1 MUR     -0.588800
      3 C2          1.4020   -0.2070    0.1310 c3        1 MUR      0.085500
      4 N2          1.9530   -1.3170   -0.6090 n3        1 MUR     -0.906800
      5 C3          1.7820   -0.2570    1.6260 c3        1 MUR      0.109100
      6 O3          3.1930   -0.1320    1.8030 os        1 MUR     -0.437600
      7 C4          1.1920    0.9690    2.3540 c3        1 MUR      0.117100
      8 O4          1.3980    0.8510    3.7500 oh        1 MUR     -0.590800
      9 C5         -0.3250    1.0400    2.1290 c3        1 MUR      0.111100
     10 O5         -0.6080    1.0660    0.7290 os        1 MUR     -0.457600
     11 C6         -0.9050    2.3380    2.7000 c3        1 MUR      0.140400
     12 O6         -2.3130    2.3330    2.6430 oh        1 MUR     -0.590800
     13 C7          3.9360   -1.3490    1.6880 c3        1 MUR      0.065100
     14 C8          4.7330   -1.3350    0.3960 c         1 MUR      0.633100
     15 O8          5.4010   -2.2770   -0.0320 o         1 MUR     -0.504000
     16 O9          4.7780   -0.2130   -0.3700 oh        1 MUR     -0.569100
     17 C9          4.8790   -1.4160    2.8780 c3        1 MUR     -0.105100
     18 H1         -0.6670   -1.0210    0.4030 h2        1 MUR      0.078700
     19 HO1        -0.4280    1.0670   -1.4840 ho        1 MUR      0.427000
     20 H2          1.8430    0.7420   -0.3010 h1        1 MUR      0.078700
     21 HN21        4.1640    0.4490   -0.0140 ho        1 MUR      0.437000
     22 HN22        1.4800   -2.1710   -0.3840 hn        1 MUR      0.367300
     23 H3          1.4080   -1.2020    2.1070 h1        1 MUR      0.064700
     24 H4          1.6870    1.9040    1.9690 h1        1 MUR      0.061700
     25 HO4         2.3530    0.7770    3.8800 ho        1 MUR      0.423000
     26 H5         -0.8300    0.1510    2.5980 h1        1 MUR      0.073700
     27 H61        -0.4900    3.2200    2.1430 h1        1 MUR      0.065200
     28 H62        -0.6460    2.4040    3.7910 h1        1 MUR      0.065200
     29 HO6        -2.5610    2.2490    1.7130 ho        1 MUR      0.411000
     30 H7          3.2600   -2.2490    1.6720 h1        1 MUR      0.085700
     31 H91         5.5650   -2.2890    2.7530 hc        1 MUR      0.058700
     32 H92         5.4840   -0.4810    2.9510 hc        1 MUR      0.058700
     33 H93         4.2920   -1.5340    3.8200 hc        1 MUR      0.058700
     34 H23         1.8830   -1.1500   -1.5940 hn        1 MUR      0.367300
@<TRIPOS>BOND
     1    1    2 1   
     2    1    3 1   
     3    1   10 1   
     4    1   18 1   
     5    2   19 1   
     6    3    4 1   
     7    3    5 1   
     8    3   20 1   
     9    4   22 1   
    10    4   34 1   
    11    5    6 1   
    12    5    7 1   
    13    5   23 1   
    14    6   13 1   
    15    7    8 1   
    16    7    9 1   
    17    7   24 1   
    18    8   25 1   
    19    9   10 1   
    20    9   11 1   
    21    9   26 1   
    22   11   12 1   
    23   11   27 1   
    24   11   28 1   
    25   12   29 1   
    26   13   14 1   
    27   13   17 1   
    28   13   30 1   
    29   14   15 2   
    30   14   16 1   
    31   16   21 1   
    32   17   31 1   
    33   17   32 1   
    34   17   33 1   
@<TRIPOS>SUBSTRUCTURE
     1 MUR         1 TEMP              0 ****  ****    0 ROOT
