@<TRIPOS>MOLECULE
MUS
   57    59     1     0     0
SMALL
bcc


@<TRIPOS>ATOM
      1 O16        -0.0460    4.8060    0.0470 oh        1 MUS     -0.593800
      2 C16         1.1010    4.1600    0.5770 c3        1 MUS      0.096400
      3 C15         1.3550    2.9060   -0.2670 c3        1 MUS      0.105100
      4 O15         1.9830    3.2390   -1.4910 oh        1 MUS     -0.574800
      5 C14         2.2140    1.8950    0.5240 c3        1 MUS      0.119100
      6 O14         1.7600    1.7830    1.8590 oh        1 MUS     -0.604800
      7 C13         2.2200    0.5330   -0.2010 c3        1 MUS      0.123100
      8 O13         0.9670   -0.0500    0.1480 os        1 MUS     -0.469600
      9 C12         3.4220   -0.3310    0.2780 c3        1 MUS      0.073700
     10 N12         4.6690    0.2210   -0.2120 n         1 MUS     -0.539900
     11 C17         5.7560    0.4450    0.6150 c         1 MUS      0.654100
     12 C18         7.0850    0.6940   -0.0640 c3        1 MUS     -0.178100
     13 O17         5.6550    0.5070    1.8560 o         1 MUS     -0.609100
     14 C11         3.2030   -1.7850   -0.2190 c3        1 MUS      0.109100
     15 O11         4.2780   -2.5730    0.2800 oh        1 MUS     -0.612800
     16 C10         1.8630   -2.3070    0.2780 c3        1 MUS     -0.123400
     17 C9          0.7620   -1.3980   -0.2770 c3        1 MUS      0.219600
     18 C19         0.6140   -1.5990   -1.8280 c         1 MUS      0.904600
     19 O19         1.4070   -0.9460   -2.5580 o         1 MUS     -0.795300
     20 O20        -0.2390   -2.4320   -2.2120 o         1 MUS     -0.795300
     21 O9         -0.4050   -1.7190    0.4900 os        1 MUS     -0.309900
     22 C7         -1.5940   -1.1230    0.1700 ca        1 MUS      0.247100
     23 C6         -1.7530   -0.0870   -0.7800 ca        1 MUS     -0.185000
     24 C8         -2.6960   -1.5900    0.9070 ca        1 MUS     -0.216000
     25 C8A        -3.9460   -1.0050    0.6770 ca        1 MUS      0.178100
     26 C4A        -4.1280    0.0260   -0.2710 ca        1 MUS     -0.213800
     27 C5         -2.9990    0.4640   -0.9930 ca        1 MUS     -0.048000
     28 O1         -4.9850   -1.5030    1.4420 os        1 MUS     -0.326200
     29 C2         -6.2560   -0.9690    1.2640 c         1 MUS      0.729800
     30 O2         -7.0720   -1.5080    2.0190 o         1 MUS     -0.614500
     31 C3         -6.4740    0.0820    0.2920 cc        1 MUS     -0.314200
     32 C4         -5.4500    0.5700   -0.4550 cd        1 MUS      0.080600
     33 CM4        -5.6650    1.6430   -1.4540 c3        1 MUS     -0.072900
     34 H16        -0.3000    5.4760    0.6920 ho        1 MUS      0.388000
     35 H161        0.9270    3.8710    1.6480 h1        1 MUS      0.032200
     36 H162        1.9820    4.8540    0.5170 h1        1 MUS      0.032200
     37 H15         0.3780    2.4330   -0.5730 h1        1 MUS      0.113700
     38 H2          2.8550    3.5930   -1.2800 ho        1 MUS      0.384000
     39 H14         3.2640    2.2890    0.6170 h1        1 MUS      0.073700
     40 H1          0.9670    1.2280    1.8570 ho        1 MUS      0.426000
     41 H13         2.2500    0.6750   -1.3210 h1        1 MUS      0.119700
     42 H12         3.4430   -0.3280    1.4080 h1        1 MUS      0.104700
     43 H4          4.8560    0.0360   -1.1710 hn        1 MUS      0.303500
     44 H181        7.8370    0.9790    0.7100 hc        1 MUS      0.058033
     45 H182        7.4280   -0.2340   -0.5800 hc        1 MUS      0.058033
     46 H183        7.0030    1.5180   -0.8120 hc        1 MUS      0.058033
     47 H11         3.2130   -1.8060   -1.3500 h1        1 MUS      0.085700
     48 H7          4.0530   -3.4910    0.0870 ho        1 MUS      0.399000
     49 H101        1.6870   -3.3480   -0.0930 hc        1 MUS      0.064700
     50 H102        1.8360   -2.3180    1.3970 hc        1 MUS      0.064700
     51 H6         -0.8760    0.2550   -1.3570 ha        1 MUS      0.183000
     52 H8         -2.5810   -2.3990    1.6400 ha        1 MUS      0.163000
     53 H5         -3.1180    1.2620   -1.7430 ha        1 MUS      0.132000
     54 H3         -7.5050    0.4480    0.2030 ha        1 MUS      0.152000
     55 HM41       -5.3730    1.2800   -2.4720 hc        1 MUS      0.053367
     56 HM42       -6.7350    1.9630   -1.4820 hc        1 MUS      0.053367
     57 HM43       -5.0340    2.5320   -1.2020 hc        1 MUS      0.053367
@<TRIPOS>BOND
     1    1    2 1   
     2    1   34 1   
     3    2    3 1   
     4    2   35 1   
     5    2   36 1   
     6    3    4 1   
     7    3    5 1   
     8    3   37 1   
     9    4   38 1   
    10    5    6 1   
    11    5    7 1   
    12    5   39 1   
    13    6   40 1   
    14    7    8 1   
    15    7    9 1   
    16    7   41 1   
    17    8   17 1   
    18    9   10 1   
    19    9   14 1   
    20    9   42 1   
    21   10   11 1   
    22   10   43 1   
    23   11   12 1   
    24   11   13 2   
    25   12   44 1   
    26   12   45 1   
    27   12   46 1   
    28   14   15 1   
    29   14   16 1   
    30   14   47 1   
    31   15   48 1   
    32   16   17 1   
    33   16   49 1   
    34   16   50 1   
    35   17   18 1   
    36   17   21 1   
    37   18   19 1   
    38   18   20 1   
    39   21   22 1   
    40   22   23 ar  
    41   22   24 ar  
    42   23   27 ar  
    43   23   51 1   
    44   24   25 ar  
    45   24   52 1   
    46   25   26 ar  
    47   25   28 1   
    48   26   27 ar  
    49   26   32 1   
    50   27   53 1   
    51   28   29 1   
    52   29   30 2   
    53   29   31 1   
    54   31   32 2   
    55   31   54 1   
    56   32   33 1   
    57   33   55 1   
    58   33   56 1   
    59   33   57 1   
@<TRIPOS>SUBSTRUCTURE
     1 MUS         1 TEMP              0 ****  ****    0 ROOT
