@<TRIPOS>MOLECULE
MUS
   58    60     1     0     0
SMALL
bcc


@<TRIPOS>ATOM
      1 O16         2.2250   -0.3870   -2.4580 oh        1 MUS     -0.602800
      2 C16         2.7090    0.5980   -1.5660 c3        1 MUS      0.094400
      3 C15         2.9340   -0.0250   -0.1850 c3        1 MUS      0.073100
      4 O15         3.8140   -1.1410   -0.2710 oh        1 MUS     -0.654800
      5 C14         3.5860    0.9960    0.7690 c3        1 MUS      0.142100
      6 O14         2.7830    2.1510    0.8480 oh        1 MUS     -0.580800
      7 C13         3.8420    0.3270    2.1410 c3        1 MUS      0.124100
      8 O13         3.1500    1.0970    3.0990 os        1 MUS     -0.440600
      9 C12         5.3740    0.1910    2.3970 c3        1 MUS      0.115500
     10 N12         5.7520   -1.2260    2.0250 ny        1 MUS     -0.689800
     11 C17         7.2290   -1.4560    1.9900 c         1 MUS      0.566100
     12 C18         7.8670   -1.9750    3.2340 c3        1 MUS     -0.189100
     13 O17         7.7910   -1.2030    0.9290 o         1 MUS     -0.459100
     14 C11         5.8810    0.4970    3.8390 c3        1 MUS      0.130100
     15 O11         7.1940    1.0150    3.7300 oh        1 MUS     -0.620800
     16 C10         4.9510    1.3950    4.6290 c3        1 MUS     -0.119400
     17 C9          3.5300    0.8390    4.4600 c3        1 MUS      0.222600
     18 C19         3.4630   -0.6600    4.9200 c         1 MUS      0.912600
     19 O19         3.9040   -1.5330    4.1030 o         1 MUS     -0.802800
     20 O20         3.0480   -0.9010    6.0660 o         1 MUS     -0.802800
     21 O9          2.6800    1.7460    5.1390 os        1 MUS     -0.298900
     22 C7          1.3320    1.4640    5.2360 ca        1 MUS      0.210100
     23 C6          0.6760    0.4120    4.5690 ca        1 MUS     -0.195000
     24 C8          0.6220    2.3630    6.0440 ca        1 MUS     -0.188000
     25 C8A        -0.7630    2.1820    6.1720 ca        1 MUS      0.180100
     26 C4A        -1.4420    1.1270    5.5240 ca        1 MUS     -0.187800
     27 C5         -0.6890    0.2480    4.7260 ca        1 MUS     -0.048000
     28 O1         -1.4060    3.1060    6.9700 os        1 MUS     -0.325200
     29 C2         -2.7840    2.9850    7.1510 c         1 MUS      0.724800
     30 O2         -3.2120    3.8820    7.8770 o         1 MUS     -0.579500
     31 C3         -3.5050    1.9000    6.5110 cc        1 MUS     -0.281200
     32 C4         -2.8690    0.9980    5.7240 cd        1 MUS      0.061600
     33 CM4        -3.5980   -0.1140    5.0730 c3        1 MUS     -0.072900
     34 H16         1.2930   -0.5310   -2.2550 ho        1 MUS      0.407000
     35 H161        3.6840    0.9340   -2.0110 h1        1 MUS      0.074200
     36 H162        2.0100    1.4700   -1.4800 h1        1 MUS      0.074200
     37 H15         1.9530   -0.3800    0.2400 h1        1 MUS      0.055700
     38 H2          3.6160   -1.5950   -1.1020 ho        1 MUS      0.442000
     39 H14         4.5470    1.3600    0.3040 h1        1 MUS      0.074700
     40 H1          2.0820    2.0010    1.4980 ho        1 MUS      0.435000
     41 H13         3.3610   -0.7020    2.1510 h1        1 MUS      0.104700
     42 H12         5.9430    0.8690    1.6930 hx        1 MUS      0.094700
     43 H4          5.2930   -1.8450    2.7320 hn        1 MUS      0.493800
     44 H181        8.1770   -1.0940    3.8610 hc        1 MUS      0.110367
     45 H182        7.1830   -2.6230    3.8360 hc        1 MUS      0.110367
     46 H183        8.7810   -2.5570    2.9530 hc        1 MUS      0.110367
     47 H11         6.0020   -0.4690    4.4230 h1        1 MUS      0.111700
     48 H7          7.1410    1.9770    3.6600 ho        1 MUS      0.424000
     49 H101        4.9910    2.4520    4.2630 hc        1 MUS      0.085700
     50 H102        5.2340    1.3820    5.7130 hc        1 MUS      0.085700
     51 H6          1.2590   -0.2910    3.9550 ha        1 MUS      0.158000
     52 H8          1.1310    3.1810    6.5700 ha        1 MUS      0.171000
     53 H5         -1.1970   -0.5880    4.2210 ha        1 MUS      0.135000
     54 H3         -4.5860    1.8620    6.7110 ha        1 MUS      0.164000
     55 HM41       -3.1830   -1.0960    5.4160 hc        1 MUS      0.056367
     56 HM42       -4.6870   -0.0840    5.3190 hc        1 MUS      0.056367
     57 HM43       -3.4830   -0.0510    3.9620 hc        1 MUS      0.056367
     58 H122        5.3500   -1.4240    1.0960 hn        1 MUS      0.493800
@<TRIPOS>BOND
     1    1    2 1   
     2    1   34 1   
     3    2    3 1   
     4    2   35 1   
     5    2   36 1   
     6    3    4 1   
     7    3    5 1   
     8    3   37 1   
     9    4   38 1   
    10    5    6 1   
    11    5    7 1   
    12    5   39 1   
    13    6   40 1   
    14    7    8 1   
    15    7    9 1   
    16    7   41 1   
    17    8   17 1   
    18    9   10 1   
    19    9   14 1   
    20    9   42 1   
    21   10   11 1   
    22   10   43 1   
    23   10   58 1   
    24   11   12 1   
    25   11   13 2   
    26   12   44 1   
    27   12   45 1   
    28   12   46 1   
    29   14   15 1   
    30   14   16 1   
    31   14   47 1   
    32   15   48 1   
    33   16   17 1   
    34   16   49 1   
    35   16   50 1   
    36   17   18 1   
    37   17   21 1   
    38   18   19 1   
    39   18   20 1   
    40   21   22 1   
    41   22   23 ar  
    42   22   24 ar  
    43   23   27 ar  
    44   23   51 1   
    45   24   25 ar  
    46   24   52 1   
    47   25   26 ar  
    48   25   28 1   
    49   26   27 ar  
    50   26   32 1   
    51   27   53 1   
    52   28   29 1   
    53   29   30 2   
    54   29   31 1   
    55   31   32 2   
    56   31   54 1   
    57   32   33 1   
    58   33   55 1   
    59   33   56 1   
    60   33   57 1   
@<TRIPOS>SUBSTRUCTURE
     1 MUS         1 TEMP              0 ****  ****    0 ROOT
