@<TRIPOS>MOLECULE
MUS
   58    60     1     0     0
SMALL
bcc


@<TRIPOS>ATOM
      1 O16         2.2290   -0.4830   -2.4450 oh        1 MUS     -0.602800
      2 C16         2.7130    0.5160   -1.5700 c3        1 MUS      0.094400
      3 C15         2.9360   -0.0830   -0.1780 c3        1 MUS      0.073100
      4 O15         3.8140   -1.2020   -0.2430 oh        1 MUS     -0.654800
      5 C14         3.5880    0.9540    0.7590 c3        1 MUS      0.142100
      6 O14         2.7870    2.1100    0.8180 oh        1 MUS     -0.580800
      7 C13         3.8430    0.3080    2.1430 c3        1 MUS      0.124100
      8 O13         3.1510    1.0940    3.0870 os        1 MUS     -0.440600
      9 C12         5.3750    0.1730    2.4030 c3        1 MUS      0.115500
     10 N12         5.7500   -1.2500    2.0550 n4        1 MUS     -0.689800
     11 C17         7.2280   -1.4830    2.0250 c         1 MUS      0.566100
     12 C18         7.8640   -1.9800    3.2780 c3        1 MUS     -0.189100
     13 O17         7.7900   -1.2490    0.9600 o         1 MUS     -0.459100
     14 C11         5.8810    0.5040    3.8390 c3        1 MUS      0.130100
     15 O11         7.1950    1.0190    3.7210 oh        1 MUS     -0.620800
     16 C10         4.9510    1.4170    4.6130 c3        1 MUS     -0.119400
     17 C9          3.5300    0.8600    4.4530 c3        1 MUS      0.222600
     18 C19         3.4610   -0.6300    4.9380 c         1 MUS      0.912600
     19 O19         3.9000   -1.5180    4.1370 o         1 MUS     -0.802800
     20 O20         3.0470   -0.8510    6.0890 o         1 MUS     -0.802800
     21 O9          2.6800    1.7800    5.1150 os        1 MUS     -0.298900
     22 C7          1.3320    1.5010    5.2170 ca        1 MUS      0.210100
     23 C6          0.6750    0.4370    4.5680 ca        1 MUS     -0.195000
     24 C8          0.6230    2.4140    6.0090 ca        1 MUS     -0.188000
     25 C8A        -0.7620    2.2370    6.1400 ca        1 MUS      0.180100
     26 C4A        -1.4420    1.1710    5.5100 ca        1 MUS     -0.187800
     27 C5         -0.6900    0.2780    4.7270 ca        1 MUS     -0.048000
     28 O1         -1.4050    3.1750    6.9210 os        1 MUS     -0.325200
     29 C2         -2.7830    3.0580    7.1040 c         1 MUS      0.724800
     30 O2         -3.2090    3.9690    7.8140 o         1 MUS     -0.579500
     31 C3         -3.5050    1.9620    6.4830 cc        1 MUS     -0.281200
     32 C4         -2.8690    1.0470    5.7130 cd        1 MUS      0.061600
     33 CM4        -3.5990   -0.0760    5.0810 c3        1 MUS     -0.072900
     34 H16         1.2970   -0.6230   -2.2400 ho        1 MUS      0.407000
     35 H161        2.0160    1.3900   -1.4990 h1        1 MUS      0.074200
     36 H162        3.6890    0.8430   -2.0190 h1        1 MUS      0.074200
     37 H15         1.9540   -0.4290    0.2520 h1        1 MUS      0.055700
     38 H2          3.6170   -1.6700   -1.0670 ho        1 MUS      0.442000
     39 H14         4.5500    1.3080    0.2890 h1        1 MUS      0.074700
     40 H1          2.0850    1.9720    1.4700 ho        1 MUS      0.435000
     41 H13         3.3600   -0.7210    2.1700 h1        1 MUS      0.104700
     42 H12         5.9440    0.8380    1.6860 hx        1 MUS      0.094700
     43 H4          5.3480   -1.4640    1.1300 hn        1 MUS      0.493800
     44 H181        7.1780   -2.6170    3.8910 hc        1 MUS      0.110367
     45 H182        8.1750   -1.0890    3.8910 hc        1 MUS      0.110367
     46 H183        8.7780   -2.5690    3.0090 hc        1 MUS      0.110367
     47 H11         6.0000   -0.4520    4.4400 h1        1 MUS      0.111700
     48 H7          7.1430    1.9790    3.6350 ho        1 MUS      0.424000
     49 H101        4.9930    2.4680    4.2280 hc        1 MUS      0.085700
     50 H102        5.2330    1.4230    5.6960 hc        1 MUS      0.085700
     51 H6          1.2580   -0.2770    3.9670 ha        1 MUS      0.158000
     52 H8          1.1330    3.2410    6.5200 ha        1 MUS      0.171000
     53 H5         -1.1980   -0.5670    4.2370 ha        1 MUS      0.135000
     54 H3         -4.5850    1.9290    6.6840 ha        1 MUS      0.164000
     55 HM41       -4.6880   -0.0400    5.3260 hc        1 MUS      0.056367
     56 HM42       -3.4840   -0.0330    3.9690 hc        1 MUS      0.056367
     57 HM43       -3.1850   -1.0520    5.4410 hc        1 MUS      0.056367
     58 H122        5.2910   -1.8550    2.7730 hn        1 MUS      0.493800
@<TRIPOS>BOND
     1    1    2 1   
     2    1   34 1   
     3    2    3 1   
     4    2   35 1   
     5    2   36 1   
     6    3    4 1   
     7    3    5 1   
     8    3   37 1   
     9    4   38 1   
    10    5    6 1   
    11    5    7 1   
    12    5   39 1   
    13    6   40 1   
    14    7    8 1   
    15    7    9 1   
    16    7   41 1   
    17    8   17 1   
    18    9   10 1   
    19    9   14 1   
    20    9   42 1   
    21   10   11 1   
    22   10   43 1   
    23   10   58 1   
    24   11   12 1   
    25   11   13 2   
    26   12   44 1   
    27   12   45 1   
    28   12   46 1   
    29   14   15 1   
    30   14   16 1   
    31   14   47 1   
    32   15   48 1   
    33   16   17 1   
    34   16   49 1   
    35   16   50 1   
    36   17   18 1   
    37   17   21 1   
    38   18   19 1   
    39   18   20 1   
    40   21   22 1   
    41   22   23 ar  
    42   22   24 ar  
    43   23   27 ar  
    44   23   51 1   
    45   24   25 ar  
    46   24   52 1   
    47   25   26 ar  
    48   25   28 1   
    49   26   27 ar  
    50   26   32 1   
    51   27   53 1   
    52   28   29 1   
    53   29   30 2   
    54   29   31 1   
    55   31   32 2   
    56   31   54 1   
    57   32   33 1   
    58   33   55 1   
    59   33   56 1   
    60   33   57 1   
@<TRIPOS>SUBSTRUCTURE
     1 MUS         1 TEMP              0 ****  ****    0 ROOT
