@<TRIPOS>MOLECULE
MUT
   84    79     1     0     0
SMALL
bcc


@<TRIPOS>ATOM
      1 O9          0.8140   -2.9820   -0.4120 o         1 MUT     -0.936500
      2 S8          2.2130   -3.0050   -0.8670 ss        1 MUT      2.847000
      3 O10         2.9350   -2.8040    0.4090 o         1 MUT     -0.936500
      4 C5          2.6380   -4.6060   -1.6200 c1        1 MUT     -0.867000
      5 C4          3.6820   -5.3440   -1.1240 c2        1 MUT      0.028000
      6 C3          3.9690   -6.5860   -1.6610 c1        1 MUT     -0.237000
      7 C2          3.1940   -7.0890   -2.7120 c1        1 MUT      0.144000
      8 O19         3.4280   -8.3780   -3.1940 os        1 MUT     -0.203000
      9 C18         4.3440   -8.4290   -4.2940 c3        1 MUT     -0.080000
     10 C7          2.1490   -6.3510   -3.2090 c1        1 MUT     -0.186000
     11 C6          1.8630   -5.1120   -2.6730 c1        1 MUT      0.007000
     12 N11         2.5680   -1.6050   -2.0830 n2        1 MUT     -0.822000
     13 C12         4.1940   -1.2660   -2.0640 c3        1 MUT     -0.019000
     14 C13         4.9430   -2.2800   -2.9540 c3        1 MUT     -0.124000
     15 C14         5.6550   -1.5340   -4.0940 c3        1 MUT     -0.209000
     16 C15         6.0090   -3.0490   -2.0920 c3        1 MUT     -0.209000
     17 C16         1.7100   -0.2400   -1.6260 c3        1 MUT     -0.006000
     18 C17         1.8820    0.0070   -0.1170 c3        1 MUT     -0.014000
     19 O18         2.8580    0.9630    0.0850 oh        1 MUT     -0.327000
     20 C19         0.5620    0.5010    0.4680 c3        1 MUT     -0.007000
     21 C32        -0.0960    1.4430   -0.5020 c3        1 MUT     -0.141000
     22 C38        -1.6300    1.2610   -0.4420 c2        1 MUT     -0.087000
     23 C33        -2.2340    0.1350   -1.0570 c2        1 MUT     -0.125000
     24 C34        -3.6170    0.0330   -1.1090 c1        1 MUT     -0.129000
     25 C35        -4.4070    1.0300   -0.5620 c1        1 MUT     -0.125000
     26 C36        -3.8040    2.1530    0.0510 c1        1 MUT     -0.125000
     27 C37        -2.4190    2.2560    0.1050 c1        1 MUT     -0.130000
     28 N20         0.8110    1.1840    1.7060 n         1 MUT     -0.349000
     29 C21        -0.2300    1.2830    2.6870 c2        1 MUT      0.293000
     30 O22        -0.7670    0.2820    3.0950 o         1 MUT     -0.363000
     31 C29        -0.5080    2.5720    3.3270 c3        1 MUT     -0.011000
     32 O28        -0.5590    3.5880    2.3400 os        1 MUT     -0.245000
     33 C26        -1.6160    4.4820    2.6800 c2        1 MUT      0.394000
     34 O27        -1.6990    5.6410    2.3490 o         1 MUT     -0.294000
     35 C25        -1.8880    2.5590    3.8800 c3        1 MUT     -0.054000
     36 N24        -2.4950    3.8070    3.5150 n         1 MUT     -0.279000
     37 C43        -3.8410    4.2470    3.8770 c2        1 MUT      0.074000
     38 C44        -4.1950    4.3660    5.2250 c2        1 MUT     -0.145000
     39 C45        -5.4230    4.9460    5.5790 c1        1 MUT     -0.115000
     40 C40        -6.2920    5.4060    4.5860 c1        1 MUT     -0.118000
     41 C42        -4.7180    4.7120    2.8750 c1        1 MUT     -0.110000
     42 C41        -5.9350    5.2870    3.2270 c1        1 MUT     -0.124000
     43 C46        -6.9050    5.8120    2.1100 c2        1 MUT      0.266000
     44 O45        -6.5740    5.7360    0.9080 o         1 MUT     -0.284000
     45 C47        -8.2010    6.4340    2.4860 c3        1 MUT     -0.266000
     46 H4          4.2390   -4.9820   -0.3690 ha        1 MUT      0.152000
     47 H3          4.6930   -7.0980   -1.3160 ha        1 MUT      0.146000
     48 H181        3.8870   -8.1060   -5.1220 h1        1 MUT      0.090000
     49 H182        5.1160   -7.8560   -4.1020 h1        1 MUT      0.090000
     50 H183        4.6450   -9.3490   -4.4240 h1        1 MUT      0.090000
     51 H7          1.6160   -6.6980   -3.9330 ha        1 MUT      0.159000
     52 H6          1.1320   -4.5960   -3.0220 ha        1 MUT      0.162000
     53 H121        4.5360   -1.3290   -1.1360 h1        1 MUT      0.108500
     54 H122        4.3460   -0.3280   -2.4200 h1        1 MUT      0.108500
     55 H13         4.3070   -2.9160   -3.3270 hc        1 MUT      0.086000
     56 H141        5.0390   -0.9400   -4.5180 hc        1 MUT      0.075667
     57 H142        6.4250   -1.0080   -3.7210 hc        1 MUT      0.075667
     58 H143        5.9950   -2.1920   -4.7600 hc        1 MUT      0.075667
     59 H151        5.5770   -3.4520   -1.3270 hc        1 MUT      0.075667
     60 H152        6.4440   -3.7770   -2.6580 hc        1 MUT      0.075667
     61 H153        6.6950   -2.4220   -1.7870 hc        1 MUT      0.075667
     62 H161        2.0420    0.5300   -2.1170 h1        1 MUT      0.100500
     63 H162        0.7910   -0.3670   -1.8230 h1        1 MUT      0.100500
     64 H17         2.1490   -0.8390    0.3310 h1        1 MUT      0.121000
     65 HO18        3.4280    0.6770    0.6720 ho        1 MUT      0.206000
     66 H19        -0.0100   -0.2380    0.6250 h1        1 MUT      0.128000
     67 H321        0.2230    1.2480   -1.4170 hc        1 MUT      0.105000
     68 H322        0.1310    2.3630   -0.2660 hc        1 MUT      0.105000
     69 H33        -1.6810   -0.5630   -1.4400 ha        1 MUT      0.130000
     70 H34        -4.0550   -0.7840   -1.5560 ha        1 MUT      0.132000
     71 H35        -5.3760    0.9590   -0.5980 ha        1 MUT      0.140000
     72 H36        -4.3680    2.8650    0.4420 ha        1 MUT      0.140000
     73 H37        -2.0010    3.0360    0.5290 ha        1 MUT      0.133000
     74 HN20        1.6230    1.4400    1.9070 hn        1 MUT      0.240000
     75 H29         0.2380    2.6190    3.9800 h1        1 MUT      0.151000
     76 H251       -1.8000    2.5670    4.8250 h1        1 MUT      0.127000
     77 H252       -2.3810    1.8510    3.3930 h1        1 MUT      0.127000
     78 H44        -3.5730    4.0340    5.9390 ha        1 MUT      0.141000
     79 H45        -5.6640    5.0260    6.4970 ha        1 MUT      0.140000
     80 H40        -7.1690    5.8200    4.8390 ha        1 MUT      0.138000
     81 H42        -4.4620    4.6260    1.8970 ha        1 MUT      0.185000
     82 H471       -8.7450    6.5570    1.6870 hc        1 MUT      0.105333
     83 H472       -8.6520    5.8770    3.0890 hc        1 MUT      0.105333
     84 H473       -8.0400    7.2830    2.8950 hc        1 MUT      0.105333
@<TRIPOS>BOND
     1    1    2 1   
     2    2    3 1   
     3    4    5 1   
     4    4   11 1   
     5    5    6 1   
     6    5   46 1   
     7    6   47 1   
     8    7    8 1   
     9    7   10 1   
    10    8    9 1   
    11    9   48 1   
    12    9   49 1   
    13    9   50 1   
    14   10   51 1   
    15   11   52 1   
    16   12   13 1   
    17   12   17 1   
    18   13   14 1   
    19   13   53 1   
    20   13   54 1   
    21   14   15 1   
    22   14   16 1   
    23   14   55 1   
    24   15   56 1   
    25   15   57 1   
    26   15   58 1   
    27   16   59 1   
    28   16   60 1   
    29   16   61 1   
    30   17   18 1   
    31   17   62 1   
    32   17   63 1   
    33   18   19 1   
    34   18   20 1   
    35   18   64 1   
    36   19   65 1   
    37   20   21 1   
    38   20   28 1   
    39   20   66 1   
    40   21   22 1   
    41   21   67 1   
    42   21   68 1   
    43   22   23 1   
    44   22   27 1   
    45   23   24 1   
    46   23   69 1   
    47   24   70 1   
    48   25   26 1   
    49   25   71 1   
    50   26   72 1   
    51   27   73 1   
    52   28   29 1   
    53   28   74 1   
    54   29   30 1   
    55   29   31 1   
    56   31   32 1   
    57   31   35 1   
    58   31   75 1   
    59   32   33 1   
    60   33   34 1   
    61   33   36 1   
    62   35   36 1   
    63   35   76 1   
    64   35   77 1   
    65   36   37 1   
    66   37   38 1   
    67   37   41 1   
    68   38   39 1   
    69   38   78 1   
    70   39   79 1   
    71   40   42 1   
    72   40   80 1   
    73   41   81 1   
    74   42   43 1   
    75   43   44 1   
    76   43   45 1   
    77   45   82 1   
    78   45   83 1   
    79   45   84 1   
@<TRIPOS>SUBSTRUCTURE
     1 MUT         1 TEMP              0 ****  ****    0 ROOT
