@<TRIPOS>MOLECULE
MUT
   84    87     1     0     0
SMALL
bcc


@<TRIPOS>ATOM
      1 O9         -4.2080   -0.8610   -2.7300 o         1 MUT     -0.659300
      2 S8         -5.2760   -1.7750   -2.9250 sy        1 MUT      1.507200
      3 O10        -6.5020   -1.4490   -2.3070 o         1 MUT     -0.659300
      4 C5         -5.5420   -1.9350   -4.5780 ca        1 MUT     -0.423500
      5 C4         -4.5060   -1.7280   -5.4960 ca        1 MUT      0.018000
      6 C3         -4.7170   -1.8290   -6.8660 ca        1 MUT     -0.210500
      7 C2         -6.0010   -2.1450   -7.3350 ca        1 MUT      0.190100
      8 O19        -6.3340   -2.2780   -8.6620 os        1 MUT     -0.319900
      9 C18        -5.2910   -2.0530   -9.6070 c3        1 MUT      0.109700
     10 C7         -7.0640   -2.3500   -6.4310 ca        1 MUT     -0.210500
     11 C6         -6.8210   -2.2410   -5.0720 ca        1 MUT      0.018000
     12 N11        -4.7840   -3.2660   -2.4750 n3        1 MUT     -0.806500
     13 C12        -5.7260   -4.3450   -2.3280 c3        1 MUT      0.236800
     14 C13        -6.0620   -4.7690   -0.8890 c3        1 MUT     -0.093700
     15 C14        -6.6930   -3.6410   -0.1050 c3        1 MUT     -0.090100
     16 C15        -6.9950   -5.9620   -0.9480 c3        1 MUT     -0.090100
     17 C16        -3.3890   -3.5740   -2.3090 c3        1 MUT      0.225800
     18 C17        -2.8950   -3.6640   -0.8440 c3        1 MUT      0.119100
     19 O18        -2.8000   -5.0520   -0.5560 oh        1 MUT     -0.614800
     20 C19        -1.5510   -2.9260   -0.6040 c3        1 MUT      0.070700
     21 C32        -1.7960   -1.4070   -0.6070 c3        1 MUT     -0.063100
     22 C38        -0.5550   -0.6450   -0.3020 ca        1 MUT     -0.088300
     23 C33        -0.0760   -0.5720    1.0120 ca        1 MUT     -0.126000
     24 C34         1.0800    0.1500    1.3000 ca        1 MUT     -0.126500
     25 C35         1.7680    0.8060    0.2780 ca        1 MUT     -0.130000
     26 C36         1.2940    0.7390   -1.0320 ca        1 MUT     -0.126500
     27 C37         0.1370    0.0180   -1.3220 ca        1 MUT     -0.126000
     28 N20        -0.5090   -3.3280   -1.5240 n         1 MUT     -0.536900
     29 C21         0.3380   -4.3670   -1.2360 c         1 MUT      0.650100
     30 O22         0.1710   -5.1060   -0.2410 o         1 MUT     -0.622100
     31 C29         1.4740   -4.6860   -2.2080 c3        1 MUT      0.053100
     32 O28         1.7800   -3.5670   -3.0690 os        1 MUT     -0.405900
     33 C26         3.1040   -3.1680   -2.8750 c         1 MUT      0.833600
     34 O27         3.4840   -2.2060   -3.5400 o         1 MUT     -0.581500
     35 C25         2.7940   -5.0060   -1.4570 c3        1 MUT      0.070000
     36 N24         3.7390   -4.0190   -1.9620 n         1 MUT     -0.388000
     37 C43         4.9830   -3.7870   -1.3510 ca        1 MUT      0.071600
     38 C44         5.7960   -2.6960   -1.7350 ca        1 MUT     -0.135000
     39 C45         7.0370   -2.5130   -1.1340 ca        1 MUT     -0.116000
     40 C40         7.4980   -3.3870   -0.1520 ca        1 MUT     -0.115000
     41 C42         5.4550   -4.6730   -0.3580 ca        1 MUT     -0.122000
     42 C41         6.7050   -4.4710    0.2370 ca        1 MUT     -0.147600
     43 C46         7.1520   -5.4310    1.2730 c         1 MUT      0.576700
     44 O45         6.4980   -6.4500    1.5320 o         1 MUT     -0.533100
     45 C47         8.4230   -5.1200    1.9960 c3        1 MUT     -0.197100
     46 H4         -3.5020   -1.4620   -5.1200 ha        1 MUT      0.153000
     47 H3         -3.8850   -1.6570   -7.5630 ha        1 MUT      0.152500
     48 H181       -4.9020   -1.0100   -9.5210 h1        1 MUT      0.051033
     49 H182       -5.8010   -2.2070  -10.5920 h1        1 MUT      0.051033
     50 H183       -4.4690   -2.7950   -9.4670 h1        1 MUT      0.051033
     51 H7         -8.0660   -2.5870   -6.8180 ha        1 MUT      0.152500
     52 H6         -7.6520   -2.3800   -4.3560 ha        1 MUT      0.153000
     53 H121       -5.3330   -5.2530   -2.8720 h1        1 MUT      0.044200
     54 H122       -6.6870   -4.0270   -2.8350 h1        1 MUT      0.044200
     55 H13        -5.1070   -5.0850   -0.3790 hc        1 MUT      0.077700
     56 H141       -7.5410   -3.1860   -0.6730 hc        1 MUT      0.036700
     57 H142       -7.0760   -4.0180    0.8740 hc        1 MUT      0.036700
     58 H143       -5.9460   -2.8360    0.0970 hc        1 MUT      0.036700
     59 H151       -7.9560   -5.6880   -1.4480 hc        1 MUT      0.036700
     60 H152       -7.2240   -6.3180    0.0850 hc        1 MUT      0.036700
     61 H153       -6.5250   -6.8020   -1.5150 hc        1 MUT      0.036700
     62 H161       -3.1630   -4.5670   -2.7990 h1        1 MUT      0.062700
     63 H162       -2.7960   -2.7750   -2.8430 h1        1 MUT      0.062700
     64 H17        -3.6480   -3.2210   -0.1300 h1        1 MUT      0.059700
     65 HO18       -2.0350   -5.2000    0.0180 ho        1 MUT      0.428000
     66 H19        -1.2130   -3.2150    0.4430 h1        1 MUT      0.073700
     67 H321       -2.2270   -1.0780   -1.5930 hc        1 MUT      0.083700
     68 H322       -2.5710   -1.1890    0.1760 hc        1 MUT      0.083700
     69 H33        -0.6190   -1.0860    1.8190 ha        1 MUT      0.133500
     70 H34         1.4490    0.2040    2.3340 ha        1 MUT      0.134000
     71 H35         2.6800    1.3760    0.5060 ha        1 MUT      0.132000
     72 H36         1.8330    1.2560   -1.8400 ha        1 MUT      0.134000
     73 H37        -0.2400   -0.0220   -2.3550 ha        1 MUT      0.133500
     74 HN20       -0.2680   -2.6930   -2.2520 hn        1 MUT      0.334500
     75 H29         1.1470   -5.5280   -2.8750 h1        1 MUT      0.111700
     76 H251        2.6590   -4.9260   -0.3430 h1        1 MUT      0.089200
     77 H252        3.1520   -6.0400   -1.7100 h1        1 MUT      0.089200
     78 H44         5.4570   -1.9880   -2.5110 ha        1 MUT      0.172000
     79 H45         7.6610   -1.6600   -1.4440 ha        1 MUT      0.142000
     80 H40         8.4830   -3.2190    0.3060 ha        1 MUT      0.139000
     81 H42         4.8600   -5.5430   -0.0330 ha        1 MUT      0.161000
     82 H471        8.3620   -4.1060    2.4630 hc        1 MUT      0.066367
     83 H472        9.2810   -5.1380    1.2800 hc        1 MUT      0.066367
     84 H473        8.6080   -5.8770    2.7970 hc        1 MUT      0.066367
@<TRIPOS>BOND
     1    1    2 2   
     2    2    3 2   
     3    2    4 1   
     4    2   12 1   
     5    4    5 ar  
     6    4   11 ar  
     7    5    6 ar  
     8    5   46 1   
     9    6    7 ar  
    10    6   47 1   
    11    7    8 1   
    12    7   10 ar  
    13    8    9 1   
    14    9   48 1   
    15    9   49 1   
    16    9   50 1   
    17   10   11 ar  
    18   10   51 1   
    19   11   52 1   
    20   12   13 1   
    21   12   17 1   
    22   13   14 1   
    23   13   53 1   
    24   13   54 1   
    25   14   15 1   
    26   14   16 1   
    27   14   55 1   
    28   15   56 1   
    29   15   57 1   
    30   15   58 1   
    31   16   59 1   
    32   16   60 1   
    33   16   61 1   
    34   17   18 1   
    35   17   62 1   
    36   17   63 1   
    37   18   19 1   
    38   18   20 1   
    39   18   64 1   
    40   19   65 1   
    41   20   21 1   
    42   20   28 1   
    43   20   66 1   
    44   21   22 1   
    45   21   67 1   
    46   21   68 1   
    47   22   23 ar  
    48   22   27 ar  
    49   23   24 ar  
    50   23   69 1   
    51   24   25 ar  
    52   24   70 1   
    53   25   26 ar  
    54   25   71 1   
    55   26   27 ar  
    56   26   72 1   
    57   27   73 1   
    58   28   29 1   
    59   28   74 1   
    60   29   30 2   
    61   29   31 1   
    62   31   32 1   
    63   31   35 1   
    64   31   75 1   
    65   32   33 1   
    66   33   34 2   
    67   33   36 1   
    68   35   36 1   
    69   35   76 1   
    70   35   77 1   
    71   36   37 1   
    72   37   38 ar  
    73   37   41 ar  
    74   38   39 ar  
    75   38   78 1   
    76   39   40 ar  
    77   39   79 1   
    78   40   42 ar  
    79   40   80 1   
    80   41   42 ar  
    81   41   81 1   
    82   42   43 1   
    83   43   44 2   
    84   43   45 1   
    85   45   82 1   
    86   45   83 1   
    87   45   84 1   
@<TRIPOS>SUBSTRUCTURE
     1 MUT         1 TEMP              0 ****  ****    0 ROOT
