@<TRIPOS>MOLECULE
MUU
   71    73     1     0     0
SMALL
bcc


@<TRIPOS>ATOM
      1 O10         1.6860    2.5950    0.3640 o         1 MUU     -0.650300
      2 S8          2.7550    1.9170   -0.2580 sy        1 MUU      1.503200
      3 O9          3.7660    2.7250   -0.8200 o         1 MUU     -0.650300
      4 C5          3.4440    0.8720    0.8860 ca        1 MUU     -0.343500
      5 C6          4.6960    0.3030    0.6600 ca        1 MUU     -0.039000
      6 C7          5.2740   -0.5300    1.6350 ca        1 MUU      0.097100
      7 O19         6.5100   -1.0480    1.2940 os        1 MUU     -0.324900
      8 C18         7.1670   -1.8130    2.2970 c3        1 MUU      0.111700
      9 C2          4.6060   -0.7920    2.8360 ca        1 MUU     -0.143000
     10 C3          3.3550   -0.2140    3.0550 ca        1 MUU     -0.121000
     11 C4          2.7790    0.6070    2.0910 ca        1 MUU     -0.063000
     12 N11         2.1750    0.8900   -1.3890 n3        1 MUU     -0.801500
     13 C12         2.6270    0.9470   -2.7590 c3        1 MUU      0.241800
     14 C13         3.7280   -0.0260   -3.1040 cx        1 MUU     -0.161700
     15 C15         5.1630    0.3910   -2.9140 cx        1 MUU     -0.129400
     16 C14         4.5930    0.2890   -4.2960 cx        1 MUU     -0.129400
     17 C16         1.1810   -0.0970   -1.0780 c3        1 MUU      0.202800
     18 C17        -0.2700    0.3390   -1.3760 c3        1 MUU      0.089100
     19 O18        -0.5340    0.3840   -2.7640 oh        1 MUU     -0.590800
     20 C19        -1.2750   -0.5870   -0.6270 c3        1 MUU      0.075700
     21 C32        -1.1070   -2.0420   -1.0990 c3        1 MUU     -0.049100
     22 C38        -2.0310   -3.0260   -0.4720 ca        1 MUU     -0.079300
     23 C33        -2.4420   -2.9160    0.8610 ca        1 MUU     -0.127000
     24 C34        -3.2660   -3.8900    1.4250 ca        1 MUU     -0.128500
     25 C35        -3.6880   -4.9810    0.6660 ca        1 MUU     -0.131000
     26 C36        -3.2860   -5.0940   -0.6650 ca        1 MUU     -0.128500
     27 C37        -2.4630   -4.1220   -1.2310 ca        1 MUU     -0.127000
     28 N20        -2.6250   -0.1030   -0.7830 n         1 MUU     -0.558900
     29 C21        -3.3830    0.3450    0.2800 c         1 MUU      0.665100
     30 O22        -2.9740    0.2410    1.4560 o         1 MUU     -0.629100
     31 C23        -4.7420    0.9310   -0.0520 c3        1 MUU     -0.142400
     32 C24        -5.3940    1.4910    1.1920 c3        1 MUU     -0.145400
     33 C25        -6.7770    2.0270    0.8720 c         1 MUU      0.657100
     34 O26        -7.2780    1.9300   -0.2670 o         1 MUU     -0.618100
     35 N27        -7.4640    2.6280    1.9070 n         1 MUU     -0.577900
     36 C28        -8.7700    3.1820    1.7580 c3        1 MUU      0.079300
     37 H6          5.2470    0.5030   -0.2770 ha        1 MUU      0.167000
     38 H181        7.3280   -1.2030    3.2190 h1        1 MUU      0.047033
     39 H182        6.5830   -2.7360    2.5330 h1        1 MUU      0.047033
     40 H183        8.1460   -2.0760    1.8220 h1        1 MUU      0.047033
     41 H2          5.0520   -1.4390    3.6040 ha        1 MUU      0.142000
     42 H3          2.8240   -0.4100    3.9990 ha        1 MUU      0.143000
     43 H4          1.7950    1.0730    2.2790 ha        1 MUU      0.164000
     44 H121        1.7460    0.7500   -3.4390 h1        1 MUU      0.069700
     45 H122        2.9880    1.9990   -2.9660 h1        1 MUU      0.069700
     46 H13         3.4590   -1.0830   -2.9150 hc        1 MUU      0.078700
     47 H151        5.3700    1.3950   -2.4930 hc        1 MUU      0.078200
     48 H152        5.8980   -0.3610   -2.5770 hc        1 MUU      0.078200
     49 H141        4.9120   -0.5410   -4.9520 hc        1 MUU      0.078200
     50 H142        4.4020    1.2150   -4.8670 hc        1 MUU      0.078200
     51 H161        1.4010   -1.0400   -1.6590 h1        1 MUU      0.054700
     52 H162        1.2540   -0.3420    0.0230 h1        1 MUU      0.054700
     53 H17        -0.4290    1.4060   -1.0360 h1        1 MUU      0.110700
     54 HO18       -0.3150   -0.4800   -3.1350 ho        1 MUU      0.396000
     55 H19        -1.0120   -0.5360    0.4740 h1        1 MUU      0.094700
     56 H321       -1.2250   -2.0870   -2.2150 hc        1 MUU      0.048200
     57 H322       -0.0540   -2.3570   -0.8560 hc        1 MUU      0.048200
     58 H33        -2.1380   -2.0470    1.4680 ha        1 MUU      0.139500
     59 H34        -3.5850   -3.7920    2.4730 ha        1 MUU      0.132000
     60 H35        -4.3370   -5.7480    1.1130 ha        1 MUU      0.131000
     61 H36        -3.6190   -5.9490   -1.2700 ha        1 MUU      0.132000
     62 H37        -2.1520   -4.2180   -2.2820 ha        1 MUU      0.139500
     63 HN20       -2.9340    0.0590   -1.7120 hn        1 MUU      0.321500
     64 H231       -4.6380    1.7410   -0.8220 hc        1 MUU      0.085200
     65 H232       -5.3940    0.1320   -0.4960 hc        1 MUU      0.085200
     66 H241       -5.4730    0.6860    1.9720 hc        1 MUU      0.080700
     67 H242       -4.7540    2.3080    1.6200 hc        1 MUU      0.080700
     68 HN27       -7.0330    2.6950    2.7960 hn        1 MUU      0.310500
     69 H281       -8.7530    4.2820    1.9860 h1        1 MUU      0.043700
     70 H282       -9.1360    3.0340    0.7060 h1        1 MUU      0.043700
     71 H283       -9.4850    2.6810    2.4660 h1        1 MUU      0.043700
@<TRIPOS>BOND
     1    1    2 2   
     2    2    3 2   
     3    2    4 1   
     4    2   12 1   
     5    4    5 ar  
     6    4   11 ar  
     7    5    6 ar  
     8    5   37 1   
     9    6    7 1   
    10    6    9 ar  
    11    7    8 1   
    12    8   38 1   
    13    8   39 1   
    14    8   40 1   
    15    9   10 ar  
    16    9   41 1   
    17   10   11 ar  
    18   10   42 1   
    19   11   43 1   
    20   12   13 1   
    21   12   17 1   
    22   13   14 1   
    23   13   44 1   
    24   13   45 1   
    25   14   15 1   
    26   14   16 1   
    27   14   46 1   
    28   15   16 1   
    29   15   47 1   
    30   15   48 1   
    31   16   49 1   
    32   16   50 1   
    33   17   18 1   
    34   17   51 1   
    35   17   52 1   
    36   18   19 1   
    37   18   20 1   
    38   18   53 1   
    39   19   54 1   
    40   20   21 1   
    41   20   28 1   
    42   20   55 1   
    43   21   22 1   
    44   21   56 1   
    45   21   57 1   
    46   22   23 ar  
    47   22   27 ar  
    48   23   24 ar  
    49   23   58 1   
    50   24   25 ar  
    51   24   59 1   
    52   25   26 ar  
    53   25   60 1   
    54   26   27 ar  
    55   26   61 1   
    56   27   62 1   
    57   28   29 1   
    58   28   63 1   
    59   29   30 2   
    60   29   31 1   
    61   31   32 1   
    62   31   64 1   
    63   31   65 1   
    64   32   33 1   
    65   32   66 1   
    66   32   67 1   
    67   33   34 2   
    68   33   35 1   
    69   35   36 1   
    70   35   68 1   
    71   36   69 1   
    72   36   70 1   
    73   36   71 1   
@<TRIPOS>SUBSTRUCTURE
     1 MUU         1 TEMP              0 ****  ****    0 ROOT
