@<TRIPOS>MOLECULE
MUU
   74    75     1     0     0
SMALL
bcc


@<TRIPOS>ATOM
      1 O10        -0.0490    0.0340   -0.9880 o         1 MUU     -0.448400
      2 S8          1.1810   -0.3640   -0.5540 s4        1 MUU      1.683300
      3 O9          1.7360    0.2250    0.5350 o         1 MUU     -0.448400
      4 C5          1.7920   -1.6610   -1.1380 ca        1 MUU     -0.585500
      5 C6          3.0210   -2.1710   -0.6510 ca        1 MUU     -0.018000
      6 C7          3.5370   -3.3840   -1.1260 ca        1 MUU      0.129100
      7 O19         4.7370   -3.7490   -0.5780 os        1 MUU     -0.303900
      8 C18         5.2660   -5.0250   -0.9570 c3        1 MUU      0.099700
      9 C2          2.8340   -4.1190   -2.0990 ca        1 MUU     -0.039000
     10 C3          1.6250   -3.6210   -2.5920 ca        1 MUU     -0.106000
     11 C4          1.1130   -2.4200   -2.1300 ca        1 MUU     -0.020000
     12 N11         2.1960    1.3010   -2.0600 n3        1 MUU     -0.909200
     13 C12         3.2940    2.0100   -1.3880 c3        1 MUU      0.138800
     14 C13         4.6020    1.2650   -1.3830 cx        1 MUU     -0.198700
     15 C15         5.0490    0.5410   -0.1370 cx        1 MUU     -0.109400
     16 C14         5.7080    1.8280   -0.5220 cx        1 MUU     -0.109400
     17 C16         1.2470    2.1920   -2.7310 c3        1 MUU      0.106800
     18 C17         0.4080    3.0960   -1.8040 c3        1 MUU      0.125100
     19 O18         1.1260    4.2340   -1.3610 oh        1 MUU     -0.627800
     20 C19        -0.8190    3.6610   -2.5880 c3        1 MUU      0.143500
     21 C32        -0.3990    4.2070   -3.9610 c3        1 MUU     -0.061100
     22 C38        -1.4640    4.9890   -4.6430 ca        1 MUU     -0.166300
     23 C33        -2.4060    4.3450   -5.4520 ca        1 MUU     -0.141500
     24 C34        -3.3400    5.0900   -6.1730 ca        1 MUU     -0.119500
     25 C35        -3.3390    6.4830   -6.0880 ca        1 MUU     -0.106000
     26 C36        -2.4030    7.1310   -5.2780 ca        1 MUU     -0.119500
     27 C37        -1.4660    6.3890   -4.5620 ca        1 MUU     -0.141500
     28 N20        -1.4970    4.7510   -1.7730 n4        1 MUU     -0.666800
     29 C21        -2.9990    4.6700   -1.7390 c         1 MUU      0.553100
     30 O22        -3.5070    3.5680   -1.5970 o         1 MUU     -0.402100
     31 C23        -3.7220    5.9830   -1.8770 c3        1 MUU     -0.166400
     32 C24        -5.2190    5.7960   -1.6720 c3        1 MUU     -0.152400
     33 C25        -5.9300    7.1040   -1.8890 c         1 MUU      0.535100
     34 O26        -5.4300    8.1610   -2.2410 o         1 MUU     -0.379100
     35 N27        -7.4220    7.1130   -1.6590 n4        1 MUU     -0.667800
     36 C28        -7.7610    7.5140   -0.2680 c3        1 MUU      0.077100
     37 H6          3.5930   -1.6150    0.1190 ha        1 MUU      0.193000
     38 H181        5.5000   -5.0380   -2.0490 h1        1 MUU      0.076033
     39 H182        6.2060   -5.0900   -0.3470 h1        1 MUU      0.076033
     40 H183        4.5570   -5.8410   -0.6810 h1        1 MUU      0.076033
     41 H2          3.2280   -5.0830   -2.4720 ha        1 MUU      0.193000
     42 H3          1.0710   -4.1990   -3.3550 ha        1 MUU      0.190000
     43 H4          0.1480   -2.0500   -2.5230 ha        1 MUU      0.165000
     44 H121        2.9630    2.1920   -0.3220 h1        1 MUU      0.072200
     45 H122        3.4810    3.0120   -1.8800 h1        1 MUU      0.072200
     46 H13         4.8860    0.8460   -2.3700 hc        1 MUU      0.099700
     47 H151        4.3820    0.5300    0.7460 hc        1 MUU      0.093700
     48 H152        5.6180   -0.4020   -0.2430 hc        1 MUU      0.093700
     49 H141        6.7410    1.8120   -0.9170 hc        1 MUU      0.093700
     50 H142        5.5130    2.7340    0.0800 hc        1 MUU      0.093700
     51 H161        0.5290    1.5350   -3.3030 h1        1 MUU      0.086700
     52 H162        1.7880    2.8630   -3.4630 h1        1 MUU      0.086700
     53 H17         0.0330    2.5050   -0.9180 h1        1 MUU      0.070700
     54 HO18        1.8690    3.9430   -0.8140 ho        1 MUU      0.456000
     55 H19        -1.5650    2.8190   -2.7130 hx        1 MUU      0.128700
     56 H321        0.5270    4.8360   -3.8400 hc        1 MUU      0.101700
     57 H322       -0.1260    3.3220   -4.6010 hc        1 MUU      0.101700
     58 H33        -2.3900    3.2480   -5.5540 ha        1 MUU      0.143500
     59 H34        -4.0540    4.5780   -6.8390 ha        1 MUU      0.168000
     60 H35        -4.0490    7.0740   -6.6900 ha        1 MUU      0.169000
     61 H36        -2.3750    8.2330   -5.2430 ha        1 MUU      0.168000
     62 H37        -0.6790    6.9150   -3.9970 ha        1 MUU      0.143500
     63 HN20       -1.2110    5.6610   -2.1680 hn        1 MUU      0.477800
     64 H231       -3.3240    6.7290   -1.1330 hc        1 MUU      0.134200
     65 H232       -3.5140    6.4000   -2.9120 hc        1 MUU      0.134200
     66 H241       -5.4250    5.4160   -0.6320 hc        1 MUU      0.126200
     67 H242       -5.6130    5.0270   -2.3970 hc        1 MUU      0.126200
     68 HN27       -7.8510    7.7960   -2.3090 hn        1 MUU      0.478300
     69 H281       -7.3420    8.5370   -0.0600 hx        1 MUU      0.125033
     70 H282       -7.3360    6.7690    0.4560 hx        1 MUU      0.125033
     71 H283       -8.8830    7.5450   -0.1580 hx        1 MUU      0.125033
     72 H111        2.5920    0.7090   -2.7810 hn        1 MUU      0.402800
     73 H202       -1.1410    4.7000   -0.8070 hn        1 MUU      0.477800
     74 H272       -7.8150    6.1860   -1.8580 hn        1 MUU      0.478300
@<TRIPOS>BOND
     1    1    2 1   
     2    2    3 1   
     3    2    4 1   
     4    4    5 ar  
     5    4   11 ar  
     6    5    6 ar  
     7    5   37 1   
     8    6    7 1   
     9    6    9 ar  
    10    7    8 1   
    11    8   38 1   
    12    8   39 1   
    13    8   40 1   
    14    9   10 ar  
    15    9   41 1   
    16   10   11 ar  
    17   10   42 1   
    18   11   43 1   
    19   12   13 1   
    20   12   17 1   
    21   12   72 1   
    22   13   14 1   
    23   13   44 1   
    24   13   45 1   
    25   14   15 1   
    26   14   16 1   
    27   14   46 1   
    28   15   16 1   
    29   15   47 1   
    30   15   48 1   
    31   16   49 1   
    32   16   50 1   
    33   17   18 1   
    34   17   51 1   
    35   17   52 1   
    36   18   19 1   
    37   18   20 1   
    38   18   53 1   
    39   19   54 1   
    40   20   21 1   
    41   20   28 1   
    42   20   55 1   
    43   21   22 1   
    44   21   56 1   
    45   21   57 1   
    46   22   23 ar  
    47   22   27 ar  
    48   23   24 ar  
    49   23   58 1   
    50   24   25 ar  
    51   24   59 1   
    52   25   26 ar  
    53   25   60 1   
    54   26   27 ar  
    55   26   61 1   
    56   27   62 1   
    57   28   29 1   
    58   28   63 1   
    59   28   73 1   
    60   29   30 2   
    61   29   31 1   
    62   31   32 1   
    63   31   64 1   
    64   31   65 1   
    65   32   33 1   
    66   32   66 1   
    67   32   67 1   
    68   33   34 2   
    69   33   35 1   
    70   35   36 1   
    71   35   68 1   
    72   35   74 1   
    73   36   69 1   
    74   36   70 1   
    75   36   71 1   
@<TRIPOS>SUBSTRUCTURE
     1 MUU         1 TEMP              0 ****  ****    0 ROOT
