@<TRIPOS>MOLECULE
MUU
   74    75     1     0     0
SMALL
bcc


@<TRIPOS>ATOM
      1 O10        -0.0480    0.0300   -0.9890 o         1 MUU     -0.448400
      2 S8          1.1830   -0.3680   -0.5570 s4        1 MUU      1.683300
      3 O9          1.7380    0.2200    0.5320 o         1 MUU     -0.448400
      4 C5          1.7940   -1.6630   -1.1440 ca        1 MUU     -0.585500
      5 C6          3.0240   -2.1730   -0.6590 ca        1 MUU     -0.018000
      6 C7          3.5410   -3.3850   -1.1360 ca        1 MUU      0.128100
      7 O19         4.7400   -3.7510   -0.5890 os        1 MUU     -0.303900
      8 C18         5.2710   -5.0260   -0.9710 c3        1 MUU      0.099700
      9 C2          2.8370   -4.1200   -2.1090 ca        1 MUU     -0.039000
     10 C3          1.6260   -3.6220   -2.6000 ca        1 MUU     -0.106000
     11 C4          1.1140   -2.4220   -2.1360 ca        1 MUU     -0.020000
     12 N11         2.1950    1.3000   -2.0630 n3        1 MUU     -0.909200
     13 C12         3.2940    2.0090   -1.3900 c3        1 MUU      0.138800
     14 C13         4.6030    1.2640   -1.3900 cx        1 MUU     -0.198700
     15 C15         5.0530    0.5390   -0.1450 cx        1 MUU     -0.109400
     16 C14         5.7090    1.8260   -0.5300 cx        1 MUU     -0.109400
     17 C16         1.2460    2.1930   -2.7310 c3        1 MUU      0.106800
     18 C17         0.4060    3.0930   -1.8030 c3        1 MUU      0.125100
     19 O18         1.1240    4.2300   -1.3560 oh        1 MUU     -0.627800
     20 C19        -0.8210    3.6610   -2.5860 c3        1 MUU      0.143500
     21 C32        -0.3990    4.2120   -3.9560 c3        1 MUU     -0.061100
     22 C38        -1.4630    4.9970   -4.6360 ca        1 MUU     -0.166300
     23 C33        -2.4050    4.3560   -5.4490 ca        1 MUU     -0.141500
     24 C34        -3.3370    5.1050   -6.1680 ca        1 MUU     -0.119500
     25 C35        -3.3360    6.4970   -6.0770 ca        1 MUU     -0.106000
     26 C36        -2.4020    7.1420   -5.2630 ca        1 MUU     -0.119500
     27 C37        -1.4650    6.3970   -4.5480 ca        1 MUU     -0.141500
     28 N20        -1.5000    4.7470   -1.7670 n4        1 MUU     -0.666800
     29 C21        -3.0020    4.6660   -1.7350 c         1 MUU      0.553100
     30 O22        -3.5100    3.5630   -1.6000 o         1 MUU     -0.402100
     31 C23        -3.7240    5.9800   -1.8690 c3        1 MUU     -0.166400
     32 C24        -5.2210    5.7920   -1.6680 c3        1 MUU     -0.152400
     33 C25        -5.9330    7.1010   -1.8780 c         1 MUU      0.535100
     34 O26        -5.4320    8.1600   -2.2220 o         1 MUU     -0.379100
     35 N27        -7.4250    7.1090   -1.6520 n4        1 MUU     -0.667800
     36 C28        -7.7680    7.4990   -0.2590 c3        1 MUU      0.077100
     37 H6          3.5960   -1.6180    0.1120 ha        1 MUU      0.193000
     38 H181        4.5620   -5.8430   -0.6950 h1        1 MUU      0.076033
     39 H182        6.2110   -5.0900   -0.3610 h1        1 MUU      0.076033
     40 H183        5.5030   -5.0370   -2.0630 h1        1 MUU      0.076033
     41 H2          3.2310   -5.0830   -2.4830 ha        1 MUU      0.193000
     42 H3          1.0730   -4.1990   -3.3630 ha        1 MUU      0.190000
     43 H4          0.1480   -2.0530   -2.5280 ha        1 MUU      0.165000
     44 H121        2.9650    2.1880   -0.3240 h1        1 MUU      0.072200
     45 H122        3.4790    3.0110   -1.8800 h1        1 MUU      0.072200
     46 H13         4.8840    0.8470   -2.3780 hc        1 MUU      0.099700
     47 H151        5.6210   -0.4040   -0.2550 hc        1 MUU      0.093700
     48 H152        4.3870    0.5250    0.7390 hc        1 MUU      0.093700
     49 H141        5.5160    2.7310    0.0740 hc        1 MUU      0.093700
     50 H142        6.7420    1.8120   -0.9270 hc        1 MUU      0.093700
     51 H161        0.5280    1.5370   -3.3060 h1        1 MUU      0.086700
     52 H162        1.7870    2.8660   -3.4620 h1        1 MUU      0.086700
     53 H17         0.0300    2.4990   -0.9190 h1        1 MUU      0.070700
     54 HO18        1.8670    3.9380   -0.8090 ho        1 MUU      0.456000
     55 H19        -1.5650    2.8190   -2.7140 hx        1 MUU      0.128700
     56 H321        0.5270    4.8400   -3.8310 hc        1 MUU      0.101700
     57 H322       -0.1260    3.3290   -4.6000 hc        1 MUU      0.101700
     58 H33        -2.3890    3.2600   -5.5560 ha        1 MUU      0.143500
     59 H34        -4.0510    4.5960   -6.8370 ha        1 MUU      0.168000
     60 H35        -4.0460    7.0910   -6.6770 ha        1 MUU      0.169000
     61 H36        -2.3740    8.2440   -5.2230 ha        1 MUU      0.168000
     62 H37        -0.6790    6.9200   -3.9800 ha        1 MUU      0.143500
     63 HN20       -1.1460    4.6920   -0.8000 hn        1 MUU      0.477800
     64 H231       -3.5150    6.4020   -2.9010 hc        1 MUU      0.134200
     65 H232       -3.3280    6.7220   -1.1200 hc        1 MUU      0.134200
     66 H241       -5.4290    5.4060   -0.6300 hc        1 MUU      0.126200
     67 H242       -5.6140    5.0270   -2.3970 hc        1 MUU      0.126200
     68 HN27       -7.8170    6.1820   -1.8590 hn        1 MUU      0.478300
     69 H281       -8.8900    7.5290   -0.1520 hx        1 MUU      0.125033
     70 H282       -7.3490    8.5210   -0.0430 hx        1 MUU      0.125033
     71 H283       -7.3450    6.7480    0.4600 hx        1 MUU      0.125033
     72 H111        2.5910    0.7090   -2.7850 hn        1 MUU      0.402800
     73 H202       -1.2130    5.6590   -2.1580 hn        1 MUU      0.477800
     74 H272       -7.8520    7.7960   -2.2980 hn        1 MUU      0.478300
@<TRIPOS>BOND
     1    1    2 1   
     2    2    3 1   
     3    2    4 1   
     4    4    5 ar  
     5    4   11 ar  
     6    5    6 ar  
     7    5   37 1   
     8    6    7 1   
     9    6    9 ar  
    10    7    8 1   
    11    8   38 1   
    12    8   39 1   
    13    8   40 1   
    14    9   10 ar  
    15    9   41 1   
    16   10   11 ar  
    17   10   42 1   
    18   11   43 1   
    19   12   13 1   
    20   12   17 1   
    21   12   72 1   
    22   13   14 1   
    23   13   44 1   
    24   13   45 1   
    25   14   15 1   
    26   14   16 1   
    27   14   46 1   
    28   15   16 1   
    29   15   47 1   
    30   15   48 1   
    31   16   49 1   
    32   16   50 1   
    33   17   18 1   
    34   17   51 1   
    35   17   52 1   
    36   18   19 1   
    37   18   20 1   
    38   18   53 1   
    39   19   54 1   
    40   20   21 1   
    41   20   28 1   
    42   20   55 1   
    43   21   22 1   
    44   21   56 1   
    45   21   57 1   
    46   22   23 ar  
    47   22   27 ar  
    48   23   24 ar  
    49   23   58 1   
    50   24   25 ar  
    51   24   59 1   
    52   25   26 ar  
    53   25   60 1   
    54   26   27 ar  
    55   26   61 1   
    56   27   62 1   
    57   28   29 1   
    58   28   63 1   
    59   28   73 1   
    60   29   30 2   
    61   29   31 1   
    62   31   32 1   
    63   31   64 1   
    64   31   65 1   
    65   32   33 1   
    66   32   66 1   
    67   32   67 1   
    68   33   34 2   
    69   33   35 1   
    70   35   36 1   
    71   35   68 1   
    72   35   74 1   
    73   36   69 1   
    74   36   70 1   
    75   36   71 1   
@<TRIPOS>SUBSTRUCTURE
     1 MUU         1 TEMP              0 ****  ****    0 ROOT
