@<TRIPOS>MOLECULE
MUU
   74    75     1     0     0
SMALL
bcc


@<TRIPOS>ATOM
      1 O10        -0.0480    0.0190   -1.0180 o         1 MUU     -0.448400
      2 S8          1.1820   -0.3810   -0.5840 s4        1 MUU      1.683300
      3 O9          1.7300    0.1950    0.5140 o         1 MUU     -0.448400
      4 C5          1.7980   -1.6690   -1.1820 ca        1 MUU     -0.585500
      5 C6          3.0270   -2.1810   -0.6970 ca        1 MUU     -0.018000
      6 C7          3.5490   -3.3870   -1.1850 ca        1 MUU      0.128100
      7 O19         4.7470   -3.7560   -0.6360 os        1 MUU     -0.303900
      8 C18         5.2820   -5.0250   -1.0290 c3        1 MUU      0.099700
      9 C2          2.8520   -4.1120   -2.1700 ca        1 MUU     -0.039000
     10 C3          1.6420   -3.6110   -2.6610 ca        1 MUU     -0.106000
     11 C4          1.1250   -2.4180   -2.1860 ca        1 MUU     -0.020000
     12 N11         2.1970    1.3050   -2.0660 n7        1 MUU     -0.909200
     13 C12         3.2920    2.0090   -1.3800 c3        1 MUU      0.138800
     14 C13         4.6010    1.2670   -1.3810 cx        1 MUU     -0.198700
     15 C15         5.0470    0.5290   -0.1420 cx        1 MUU     -0.109400
     16 C14         5.7030    1.8220   -0.5090 cx        1 MUU     -0.109400
     17 C16         1.2500    2.2030   -2.7290 c3        1 MUU      0.106800
     18 C17         0.4040    3.0920   -1.7950 c3        1 MUU      0.125100
     19 O18         1.1160    4.2250   -1.3320 oh        1 MUU     -0.627800
     20 C19        -0.8210    3.6660   -2.5780 c3        1 MUU      0.143500
     21 C32        -0.3940    4.2320   -3.9400 c3        1 MUU     -0.061100
     22 C38        -1.4560    5.0220   -4.6160 ca        1 MUU     -0.166300
     23 C33        -2.3920    4.3880   -5.4410 ca        1 MUU     -0.141500
     24 C34        -3.3230    5.1420   -6.1560 ca        1 MUU     -0.119500
     25 C35        -3.3260    6.5340   -6.0500 ca        1 MUU     -0.106000
     26 C36        -2.3970    7.1720   -5.2240 ca        1 MUU     -0.119500
     27 C37        -1.4620    6.4210   -4.5140 ca        1 MUU     -0.141500
     28 N20        -1.5060    4.7410   -1.7510 ny        1 MUU     -0.666800
     29 C21        -3.0080    4.6560   -1.7260 c         1 MUU      0.553100
     30 O22        -3.5150    3.5510   -1.6050 o         1 MUU     -0.402100
     31 C23        -3.7330    5.9700   -1.8490 c3        1 MUU     -0.166400
     32 C24        -5.2310    5.7770   -1.6560 c3        1 MUU     -0.152400
     33 C25        -5.9440    7.0860   -1.8550 c         1 MUU      0.535100
     34 O26        -5.4440    8.1490   -2.1870 o         1 MUU     -0.379100
     35 N27        -7.4370    7.0880   -1.6360 ny        1 MUU     -0.667800
     36 C28        -7.7860    7.4630   -0.2400 c3        1 MUU      0.077100
     37 H6          3.5940   -1.6340    0.0830 ha        1 MUU      0.193000
     38 H181        5.5200   -5.0240   -2.1200 h1        1 MUU      0.076033
     39 H182        4.5730   -5.8470   -0.7660 h1        1 MUU      0.076033
     40 H183        6.2190   -5.0950   -0.4160 h1        1 MUU      0.076033
     41 H2          3.2490   -5.0700   -2.5520 ha        1 MUU      0.193000
     42 H3          1.0940   -4.1810   -3.4340 ha        1 MUU      0.190000
     43 H4          0.1610   -2.0460   -2.5790 ha        1 MUU      0.165000
     44 H121        2.9560    2.1750   -0.3130 h1        1 MUU      0.072200
     45 H122        3.4770    3.0170   -1.8580 h1        1 MUU      0.072200
     46 H13         4.8890    0.8620   -2.3720 hc        1 MUU      0.099700
     47 H151        5.6180   -0.4110   -0.2590 hc        1 MUU      0.093700
     48 H152        4.3760    0.5040    0.7380 hc        1 MUU      0.093700
     49 H141        6.7380    1.8140   -0.9010 hc        1 MUU      0.093700
     50 H142        5.5040    2.7200    0.1040 hc        1 MUU      0.093700
     51 H161        1.7930    2.8850   -3.4500 h1        1 MUU      0.086700
     52 H162        0.5360    1.5520   -3.3140 h1        1 MUU      0.086700
     53 H17         0.0250    2.4870   -0.9200 h1        1 MUU      0.070700
     54 HO18        1.8580    3.9280   -0.7850 ho        1 MUU      0.456000
     55 H19        -1.5630    2.8230   -2.7190 hx        1 MUU      0.128700
     56 H321       -0.1160    3.3570   -4.5920 hc        1 MUU      0.101700
     57 H322        0.5300    4.8610   -3.8040 hc        1 MUU      0.101700
     58 H33        -2.3730    3.2930   -5.5600 ha        1 MUU      0.143500
     59 H34        -4.0320    4.6380   -6.8340 ha        1 MUU      0.168000
     60 H35        -4.0350    7.1320   -6.6470 ha        1 MUU      0.169000
     61 H36        -2.3720    8.2730   -5.1730 ha        1 MUU      0.168000
     62 H37        -0.6800    6.9400   -3.9360 ha        1 MUU      0.143500
     63 HN20       -1.1560    4.6760   -0.7830 hn        1 MUU      0.477800
     64 H231       -3.3410    6.7050   -1.0900 hc        1 MUU      0.134200
     65 H232       -3.5200    6.4030   -2.8760 hc        1 MUU      0.134200
     66 H241       -5.6190    5.0190   -2.3960 hc        1 MUU      0.126200
     67 H242       -5.4420    5.3790   -0.6230 hc        1 MUU      0.126200
     68 HN27       -7.8630    7.7810   -2.2760 hn        1 MUU      0.478300
     69 H281       -7.3640    6.7070    0.4730 hx        1 MUU      0.125033
     70 H282       -7.3700    8.4840   -0.0120 hx        1 MUU      0.125033
     71 H283       -8.9080    7.4900   -0.1370 hx        1 MUU      0.125033
     72 H111        2.5990    0.7240   -2.7920 hn        1 MUU      0.402800
     73 H202       -1.2190    5.6570   -2.1300 hn        1 MUU      0.477800
     74 H272       -7.8270    6.1630   -1.8530 hn        1 MUU      0.478300
@<TRIPOS>BOND
     1    1    2 1   
     2    2    3 1   
     3    2    4 1   
     4    4    5 ar  
     5    4   11 ar  
     6    5    6 ar  
     7    5   37 1   
     8    6    7 1   
     9    6    9 ar  
    10    7    8 1   
    11    8   38 1   
    12    8   39 1   
    13    8   40 1   
    14    9   10 ar  
    15    9   41 1   
    16   10   11 ar  
    17   10   42 1   
    18   11   43 1   
    19   12   13 1   
    20   12   17 1   
    21   12   72 1   
    22   13   14 1   
    23   13   44 1   
    24   13   45 1   
    25   14   15 1   
    26   14   16 1   
    27   14   46 1   
    28   15   16 1   
    29   15   47 1   
    30   15   48 1   
    31   16   49 1   
    32   16   50 1   
    33   17   18 1   
    34   17   51 1   
    35   17   52 1   
    36   18   19 1   
    37   18   20 1   
    38   18   53 1   
    39   19   54 1   
    40   20   21 1   
    41   20   28 1   
    42   20   55 1   
    43   21   22 1   
    44   21   56 1   
    45   21   57 1   
    46   22   23 ar  
    47   22   27 ar  
    48   23   24 ar  
    49   23   58 1   
    50   24   25 ar  
    51   24   59 1   
    52   25   26 ar  
    53   25   60 1   
    54   26   27 ar  
    55   26   61 1   
    56   27   62 1   
    57   28   29 1   
    58   28   63 1   
    59   28   73 1   
    60   29   30 2   
    61   29   31 1   
    62   31   32 1   
    63   31   64 1   
    64   31   65 1   
    65   32   33 1   
    66   32   66 1   
    67   32   67 1   
    68   33   34 2   
    69   33   35 1   
    70   35   36 1   
    71   35   68 1   
    72   35   74 1   
    73   36   69 1   
    74   36   70 1   
    75   36   71 1   
@<TRIPOS>SUBSTRUCTURE
     1 MUU         1 TEMP              0 ****  ****    0 ROOT
