@<TRIPOS>MOLECULE
MUV
   67    68     1     0     0
SMALL
bcc


@<TRIPOS>ATOM
      1 O26         1.3100   -1.6360    0.1310 o         1 MUV     -0.379100
      2 C25         1.7700   -0.5100    0.0260 c         1 MUV      0.535100
      3 N27         2.2120    0.1540    1.3080 ny        1 MUV     -0.667800
      4 C28         1.0930    0.8800    1.9640 c3        1 MUV      0.077100
      5 C24         1.9540    0.2760   -1.2430 c3        1 MUV     -0.152400
      6 C23         1.4120   -0.5170   -2.4240 c3        1 MUV     -0.166400
      7 C21         1.6360    0.2290   -3.7120 c         1 MUV      0.554100
      8 O22         2.2380    1.2830   -3.8510 o         1 MUV     -0.407100
      9 N20         1.0410   -0.4030   -4.9410 ny        1 MUV     -0.666800
     10 C19         1.9530   -0.4020   -6.1570 c3        1 MUV      0.141500
     11 C32         2.5860   -1.7890   -6.3490 c3        1 MUV     -0.062100
     12 C38         3.1500   -2.3650   -5.1000 ca        1 MUV     -0.166300
     13 C37         2.3990   -3.2810   -4.3490 ca        1 MUV     -0.142000
     14 C36         2.9610   -3.8990   -3.2330 ca        1 MUV     -0.119500
     15 C35         4.2780   -3.6160   -2.8650 ca        1 MUV     -0.107000
     16 C34         5.0300   -2.7070   -3.6110 ca        1 MUV     -0.119500
     17 C33         4.4680   -2.0820   -4.7240 ca        1 MUV     -0.142000
     18 C17         1.1480    0.0260   -7.4260 c3        1 MUV      0.124100
     19 O18        -0.0170   -0.7780   -7.4110 oh        1 MUV     -0.631800
     20 C16         2.0060   -0.2100   -8.6840 c3        1 MUV      0.095800
     21 N11         1.6450    0.5610   -9.8740 n7        1 MUV     -0.901200
     22 C12         0.3510    0.2130  -10.4750 c3        1 MUV      0.142800
     23 C13        -0.8310    0.9870   -9.9440 cx        1 MUV     -0.221700
     24 C14        -1.9390    1.3370  -10.9090 cx        1 MUV     -0.108400
     25 C15        -2.1670    0.2820   -9.8760 cx        1 MUV     -0.108400
     26 S8          2.2160    2.9790   -9.6520 s4        1 MUV      1.599200
     27 O9          1.2000    3.1900   -8.7740 o         1 MUV     -0.436400
     28 O10         3.4330    2.5690   -9.2190 o         1 MUV     -0.436400
     29 C5          2.0430    3.4710  -11.0910 cc        1 MUV     -0.330700
     30 O4          3.1330    3.3130  -12.0050 os        1 MUV     -0.279800
     31 C3          2.7680    3.8920  -13.1840 cc        1 MUV      0.480600
     32 C2          1.4650    4.4220  -13.1010 cd        1 MUV     -0.284300
     33 C1          1.0060    4.1590  -11.7970 cd        1 MUV      0.045700
     34 HN27        2.5510   -0.5770    1.9570 hn        1 MUV      0.478300
     35 H281        0.2560    0.1600    2.1810 hx        1 MUV      0.125033
     36 H282        1.4610    1.3230    2.9330 hx        1 MUV      0.125033
     37 H283        0.7290    1.7020    1.2920 hx        1 MUV      0.125033
     38 H241        3.0490    0.4960   -1.3980 hc        1 MUV      0.125700
     39 H242        1.4200    1.2650   -1.1600 hc        1 MUV      0.125700
     40 H231        1.9310   -1.5230   -2.4940 hc        1 MUV      0.134700
     41 H232        0.3130   -0.7200   -2.2780 hc        1 MUV      0.134700
     42 HN20        0.7900   -1.3840   -4.7390 hn        1 MUV      0.478800
     43 H19         2.7570    0.3720   -5.9750 hx        1 MUV      0.122700
     44 H321        3.4110   -1.6780   -7.1070 hc        1 MUV      0.103200
     45 H322        1.8170   -2.4850   -6.7870 hc        1 MUV      0.103200
     46 H37         1.3910   -3.5780   -4.6800 ha        1 MUV      0.144500
     47 H36         2.3810   -4.6490   -2.6700 ha        1 MUV      0.168000
     48 H35         4.7360   -4.1420   -2.0100 ha        1 MUV      0.169000
     49 H34         6.0810   -2.5090   -3.3440 ha        1 MUV      0.168000
     50 H33         5.0810   -1.3950   -5.3290 ha        1 MUV      0.144500
     51 H17         0.8610    1.1150   -7.3380 h1        1 MUV      0.074700
     52 HO18       -0.5490   -0.5720   -8.1960 ho        1 MUV      0.464000
     53 H161        3.0720    0.0750   -8.4380 h1        1 MUV      0.090200
     54 H162        1.9730   -1.3200   -8.9050 h1        1 MUV      0.090200
     55 H121        0.4330    0.4070  -11.5860 h1        1 MUV      0.078200
     56 H122        0.1490   -0.8940  -10.3580 h1        1 MUV      0.078200
     57 H13        -0.5970    1.7200   -9.1460 hc        1 MUV      0.089700
     58 H141       -1.8470    1.0350  -11.9700 hc        1 MUV      0.094200
     59 H142       -2.4470    2.3140  -10.8020 hc        1 MUV      0.094200
     60 H151       -2.2380   -0.7740  -10.1970 hc        1 MUV      0.094200
     61 H152       -2.8400    0.4990   -9.0250 hc        1 MUV      0.094200
     62 H3          3.5290    3.8520  -13.9790 h4        1 MUV      0.124100
     63 H2          0.9250    4.9440  -13.8980 ha        1 MUV      0.232000
     64 H1          0.0300    4.4390  -11.3820 ha        1 MUV      0.212000
     65 H272        2.9840    0.8040    1.1200 hn        1 MUV      0.478300
     66 H202        0.1750    0.1010   -5.1870 hn        1 MUV      0.478800
     67 H111        2.3560    0.3350  -10.5620 hn        1 MUV      0.400800
@<TRIPOS>BOND
     1    1    2 2   
     2    2    3 1   
     3    2    5 1   
     4    3    4 1   
     5    3   34 1   
     6    3   65 1   
     7    4   35 1   
     8    4   36 1   
     9    4   37 1   
    10    5    6 1   
    11    5   38 1   
    12    5   39 1   
    13    6    7 1   
    14    6   40 1   
    15    6   41 1   
    16    7    8 2   
    17    7    9 1   
    18    9   10 1   
    19    9   42 1   
    20    9   66 1   
    21   10   11 1   
    22   10   18 1   
    23   10   43 1   
    24   11   12 1   
    25   11   44 1   
    26   11   45 1   
    27   12   13 ar  
    28   12   17 ar  
    29   13   14 ar  
    30   13   46 1   
    31   14   15 ar  
    32   14   47 1   
    33   15   16 ar  
    34   15   48 1   
    35   16   17 ar  
    36   16   49 1   
    37   17   50 1   
    38   18   19 1   
    39   18   20 1   
    40   18   51 1   
    41   19   52 1   
    42   20   21 1   
    43   20   53 1   
    44   20   54 1   
    45   21   22 1   
    46   21   67 1   
    47   22   23 1   
    48   22   55 1   
    49   22   56 1   
    50   23   24 1   
    51   23   25 1   
    52   23   57 1   
    53   24   25 1   
    54   24   58 1   
    55   24   59 1   
    56   25   60 1   
    57   25   61 1   
    58   26   27 1   
    59   26   28 1   
    60   26   29 1   
    61   29   30 1   
    62   29   33 2   
    63   30   31 1   
    64   31   32 2   
    65   31   62 1   
    66   32   33 1   
    67   32   63 1   
    68   33   64 1   
@<TRIPOS>SUBSTRUCTURE
     1 MUV         1 TEMP              0 ****  ****    0 ROOT
