@<TRIPOS>MOLECULE
MUV
   67    68     1     0     0
SMALL
bcc


@<TRIPOS>ATOM
      1 O26         1.3060   -1.6240    0.1340 o         1 MUV     -0.379100
      2 C25         1.7430   -0.4890    0.0290 c         1 MUV      0.535100
      3 N27         2.1620    0.1880    1.3120 n4        1 MUV     -0.667800
      4 C28         1.0240    0.8920    1.9580 c3        1 MUV      0.077100
      5 C24         1.9180    0.2980   -1.2410 c3        1 MUV     -0.152400
      6 C23         1.4010   -0.5100   -2.4230 c3        1 MUV     -0.166400
      7 C21         1.6170    0.2370   -3.7110 c         1 MUV      0.554100
      8 O22         2.1970    1.3050   -3.8490 o         1 MUV     -0.407100
      9 N20         1.0440   -0.4100   -4.9420 n4        1 MUV     -0.666800
     10 C19         1.9650   -0.3930   -6.1520 c3        1 MUV      0.141500
     11 C32         2.6290   -1.7660   -6.3370 c3        1 MUV     -0.062100
     12 C38         3.1970   -2.3260   -5.0830 ca        1 MUV     -0.166300
     13 C37         2.4620   -3.2560   -4.3340 ca        1 MUV     -0.142000
     14 C36         3.0300   -3.8590   -3.2130 ca        1 MUV     -0.119500
     15 C35         4.3380   -3.5460   -2.8370 ca        1 MUV     -0.107000
     16 C34         5.0740   -2.6230   -3.5800 ca        1 MUV     -0.119500
     17 C33         4.5060   -2.0130   -4.6990 ca        1 MUV     -0.142000
     18 C17         1.1580    0.0150   -7.4280 c3        1 MUV      0.124100
     19 O18         0.0110   -0.8160   -7.4190 oh        1 MUV     -0.631800
     20 C16         2.0300   -0.2060   -8.6790 c3        1 MUV      0.095800
     21 N11         1.6600    0.5540   -9.8740 n3        1 MUV     -0.901200
     22 C12         0.3790    0.1760  -10.4830 c3        1 MUV      0.142800
     23 C13        -0.8240    0.9240   -9.9620 cx        1 MUV     -0.221700
     24 C14        -1.9330    1.2470  -10.9350 cx        1 MUV     -0.108400
     25 C15        -2.1450    0.1900   -9.9010 cx        1 MUV     -0.108400
     26 S8          2.1750    2.9850   -9.6550 s4        1 MUV      1.599200
     27 O9          1.1490    3.1750   -8.7840 o         1 MUV     -0.436400
     28 O10         3.3980    2.6030   -9.2120 o         1 MUV     -0.436400
     29 C5          2.0010    3.4690  -11.0960 cc        1 MUV     -0.330700
     30 O4          3.1000    3.3340  -12.0020 os        1 MUV     -0.279800
     31 C3          2.7300    3.9010  -13.1850 cc        1 MUV      0.480600
     32 C2          1.4160    4.4020  -13.1120 cd        1 MUV     -0.284300
     33 C1          0.9540    4.1320  -11.8100 cd        1 MUV      0.045700
     34 HN27        2.9220    0.8540    1.1280 hn        1 MUV      0.478300
     35 H281        0.6470    1.7050    1.2820 hx        1 MUV      0.125033
     36 H282        0.2000    0.1560    2.1730 hx        1 MUV      0.125033
     37 H283        1.3760    1.3450    2.9290 hx        1 MUV      0.125033
     38 H241        1.3620    1.2750   -1.1640 hc        1 MUV      0.125700
     39 H242        3.0090    0.5410   -1.3890 hc        1 MUV      0.125700
     40 H231        0.3060   -0.7360   -2.2840 hc        1 MUV      0.134700
     41 H232        1.9430   -1.5050   -2.4870 hc        1 MUV      0.134700
     42 HN20        0.8140   -1.3960   -4.7390 hn        1 MUV      0.478800
     43 H19         2.7500    0.4000   -5.9680 hx        1 MUV      0.122700
     44 H321        3.4560   -1.6390   -7.0900 hc        1 MUV      0.103200
     45 H322        1.8780   -2.4800   -6.7780 hc        1 MUV      0.103200
     46 H37         1.4630   -3.5770   -4.6710 ha        1 MUV      0.144500
     47 H36         2.4630   -4.6200   -2.6510 ha        1 MUV      0.168000
     48 H35         4.8020   -4.0600   -1.9780 ha        1 MUV      0.169000
     49 H34         6.1200   -2.4010   -3.3070 ha        1 MUV      0.168000
     50 H33         5.1080   -1.3140   -5.3020 ha        1 MUV      0.144500
     51 H17         0.8470    1.0970   -7.3450 h1        1 MUV      0.074700
     52 HO18       -0.5200   -0.6240   -8.2080 ho        1 MUV      0.464000
     53 H161        3.0880    0.1030   -8.4270 h1        1 MUV      0.090200
     54 H162        2.0230   -1.3160   -8.8980 h1        1 MUV      0.090200
     55 H121        0.2000   -0.9350  -10.3640 h1        1 MUV      0.078200
     56 H122        0.4640    0.3690  -11.5940 h1        1 MUV      0.078200
     57 H13        -0.6120    1.6650   -9.1640 hc        1 MUV      0.089700
     58 H141       -1.8270    0.9450  -11.9940 hc        1 MUV      0.094200
     59 H142       -2.4640    2.2120  -10.8340 hc        1 MUV      0.094200
     60 H151       -2.1900   -0.8680  -10.2200 hc        1 MUV      0.094200
     61 H152       -2.8280    0.3940   -9.0550 hc        1 MUV      0.094200
     62 H3          3.4980    3.8770  -13.9750 h4        1 MUV      0.124100
     63 H2          0.8690    4.9100  -13.9140 ha        1 MUV      0.232000
     64 H1         -0.0310    4.3910  -11.4020 ha        1 MUV      0.212000
     65 H272        2.5120   -0.5340    1.9660 hn        1 MUV      0.478300
     66 H202        0.1700    0.0730   -5.1960 hn        1 MUV      0.478800
     67 H111        2.3800    0.3430  -10.5570 hn        1 MUV      0.400800
@<TRIPOS>BOND
     1    1    2 2   
     2    2    3 1   
     3    2    5 1   
     4    3    4 1   
     5    3   34 1   
     6    3   65 1   
     7    4   35 1   
     8    4   36 1   
     9    4   37 1   
    10    5    6 1   
    11    5   38 1   
    12    5   39 1   
    13    6    7 1   
    14    6   40 1   
    15    6   41 1   
    16    7    8 2   
    17    7    9 1   
    18    9   10 1   
    19    9   42 1   
    20    9   66 1   
    21   10   11 1   
    22   10   18 1   
    23   10   43 1   
    24   11   12 1   
    25   11   44 1   
    26   11   45 1   
    27   12   13 ar  
    28   12   17 ar  
    29   13   14 ar  
    30   13   46 1   
    31   14   15 ar  
    32   14   47 1   
    33   15   16 ar  
    34   15   48 1   
    35   16   17 ar  
    36   16   49 1   
    37   17   50 1   
    38   18   19 1   
    39   18   20 1   
    40   18   51 1   
    41   19   52 1   
    42   20   21 1   
    43   20   53 1   
    44   20   54 1   
    45   21   22 1   
    46   21   67 1   
    47   22   23 1   
    48   22   55 1   
    49   22   56 1   
    50   23   24 1   
    51   23   25 1   
    52   23   57 1   
    53   24   25 1   
    54   24   58 1   
    55   24   59 1   
    56   25   60 1   
    57   25   61 1   
    58   26   27 1   
    59   26   28 1   
    60   26   29 1   
    61   29   30 1   
    62   29   33 2   
    63   30   31 1   
    64   31   32 2   
    65   31   62 1   
    66   32   33 1   
    67   32   63 1   
    68   33   64 1   
@<TRIPOS>SUBSTRUCTURE
     1 MUV         1 TEMP              0 ****  ****    0 ROOT
