@<TRIPOS>MOLECULE
MUV
   64    66     1     0     0
SMALL
bcc


@<TRIPOS>ATOM
      1 O26         6.2970   -1.7410    2.0500 o         1 MUV     -0.617100
      2 C25         5.8050   -0.8040    2.7120 c         1 MUV      0.657100
      3 N27         6.4080   -0.3530    3.8690 n         1 MUV     -0.578900
      4 C28         7.6100   -0.9160    4.3920 c3        1 MUV      0.080300
      5 C24         4.5300   -0.1000    2.2890 c3        1 MUV     -0.144400
      6 C23         3.9310   -0.7720    1.0730 c3        1 MUV     -0.143400
      7 C21         2.7040   -0.0160    0.6000 c         1 MUV      0.666100
      8 O22         2.3720    1.0840    1.0920 o         1 MUV     -0.634100
      9 N20         1.9810   -0.5890   -0.4250 n         1 MUV     -0.559900
     10 C19         0.7490   -0.0260   -0.9230 c3        1 MUV      0.080700
     11 C32         0.8130    0.2790   -2.4290 c3        1 MUV     -0.051100
     12 C38         1.8230    1.2900   -2.8420 ca        1 MUV     -0.079300
     13 C37         2.2820    1.2580   -4.1680 ca        1 MUV     -0.129500
     14 C36         3.1930    2.2050   -4.6270 ca        1 MUV     -0.128500
     15 C35         3.6610    3.1990   -3.7660 ca        1 MUV     -0.132000
     16 C34         3.2140    3.2340   -2.4460 ca        1 MUV     -0.128500
     17 C33         2.3010    2.2850   -1.9840 ca        1 MUV     -0.129500
     18 C17        -0.4530   -0.9790   -0.6310 c3        1 MUV      0.086100
     19 O18        -0.4800   -2.0610   -1.5360 oh        1 MUV     -0.590800
     20 C16        -1.7600   -0.1550   -0.6260 c3        1 MUV      0.191800
     21 N11        -2.9520   -0.9010   -0.3260 n3        1 MUV     -0.800500
     22 C12        -3.8990   -1.0870   -1.3980 c3        1 MUV      0.246800
     23 C13        -3.4000   -1.8950   -2.5710 cx        1 MUV     -0.147700
     24 C14        -4.2410   -1.8980   -3.8200 cx        1 MUV     -0.132900
     25 C15        -2.9180   -1.1920   -3.8140 cx        1 MUV     -0.132900
     26 S8         -3.2760   -1.4070    1.1880 sy        1 MUV      1.458800
     27 O9         -4.3170   -2.3580    1.1860 o         1 MUV     -0.640800
     28 O10        -2.0940   -1.7630    1.8560 o         1 MUV     -0.640800
     29 C5         -3.9080   -0.0170    1.9200 cc        1 MUV     -0.062400
     30 O4         -3.1070    1.1340    1.9940 os        1 MUV     -0.314800
     31 C3         -3.8330    2.0910    2.6780 cc        1 MUV      0.301600
     32 C2         -5.0730    1.5900    3.0400 cd        1 MUV     -0.295300
     33 C1         -5.1200    0.2380    2.5510 cd        1 MUV     -0.098300
     34 HN27        5.9870    0.3880    4.3740 hn        1 MUV      0.310500
     35 H281        7.9750   -1.7410    3.7230 h1        1 MUV      0.044033
     36 H282        8.4060   -0.1270    4.4660 h1        1 MUV      0.044033
     37 H283        7.4260   -1.3350    5.4190 h1        1 MUV      0.044033
     38 H241        3.7860   -0.1080    3.1290 hc        1 MUV      0.080700
     39 H242        4.7550    0.9750    2.0530 hc        1 MUV      0.080700
     40 H231        4.6900   -0.8070    0.2460 hc        1 MUV      0.085200
     41 H232        3.6620   -1.8330    1.3230 hc        1 MUV      0.085200
     42 HN20        2.2330   -1.4840   -0.7690 hn        1 MUV      0.321500
     43 H19         0.5550    0.9370   -0.3600 h1        1 MUV      0.092700
     44 H321        1.0040   -0.6790   -2.9870 hc        1 MUV      0.052200
     45 H322       -0.2000    0.6520   -2.7450 hc        1 MUV      0.052200
     46 H37         1.9190    0.4750   -4.8520 ha        1 MUV      0.140500
     47 H36         3.5460    2.1680   -5.6680 ha        1 MUV      0.131500
     48 H35         4.3810    3.9470   -4.1270 ha        1 MUV      0.130000
     49 H34         3.5840    4.0100   -1.7600 ha        1 MUV      0.131500
     50 H33         1.9780    2.3210   -0.9300 ha        1 MUV      0.140500
     51 H17        -0.3160   -1.4720    0.3800 h1        1 MUV      0.119700
     52 HO18       -0.8490   -1.7390   -2.3700 ho        1 MUV      0.401000
     53 H161       -1.6440    0.6590    0.1510 h1        1 MUV      0.062200
     54 H162       -1.8800    0.3410   -1.6310 h1        1 MUV      0.062200
     55 H121       -4.8050   -1.6220   -0.9800 h1        1 MUV      0.059200
     56 H122       -4.2370   -0.0740   -1.7690 h1        1 MUV      0.059200
     57 H13        -2.8920   -2.8350   -2.2730 hc        1 MUV      0.104700
     58 H141       -4.3480   -2.8410   -4.3850 hc        1 MUV      0.073200
     59 H142       -5.1680   -1.2980   -3.8420 hc        1 MUV      0.073200
     60 H151       -2.9010   -0.0880   -3.8360 hc        1 MUV      0.073200
     61 H152       -2.0760   -1.6280   -4.3810 hc        1 MUV      0.073200
     62 H3         -3.3180    3.0400    2.8120 h4        1 MUV      0.063100
     63 H2         -5.8620    2.1010    3.5850 ha        1 MUV      0.172000
     64 H1         -5.9520   -0.4580    2.6620 ha        1 MUV      0.180000
@<TRIPOS>BOND
     1    1    2 2   
     2    2    3 1   
     3    2    5 1   
     4    3    4 1   
     5    3   34 1   
     6    4   35 1   
     7    4   36 1   
     8    4   37 1   
     9    5    6 1   
    10    5   38 1   
    11    5   39 1   
    12    6    7 1   
    13    6   40 1   
    14    6   41 1   
    15    7    8 2   
    16    7    9 1   
    17    9   10 1   
    18    9   42 1   
    19   10   11 1   
    20   10   18 1   
    21   10   43 1   
    22   11   12 1   
    23   11   44 1   
    24   11   45 1   
    25   12   13 ar  
    26   12   17 ar  
    27   13   14 ar  
    28   13   46 1   
    29   14   15 ar  
    30   14   47 1   
    31   15   16 ar  
    32   15   48 1   
    33   16   17 ar  
    34   16   49 1   
    35   17   50 1   
    36   18   19 1   
    37   18   20 1   
    38   18   51 1   
    39   19   52 1   
    40   20   21 1   
    41   20   53 1   
    42   20   54 1   
    43   21   22 1   
    44   21   26 1   
    45   22   23 1   
    46   22   55 1   
    47   22   56 1   
    48   23   24 1   
    49   23   25 1   
    50   23   57 1   
    51   24   25 1   
    52   24   58 1   
    53   24   59 1   
    54   25   60 1   
    55   25   61 1   
    56   26   27 2   
    57   26   28 2   
    58   26   29 1   
    59   29   30 1   
    60   29   33 2   
    61   30   31 1   
    62   31   32 2   
    63   31   62 1   
    64   32   33 1   
    65   32   63 1   
    66   33   64 1   
@<TRIPOS>SUBSTRUCTURE
     1 MUV         1 TEMP              0 ****  ****    0 ROOT
