@<TRIPOS>MOLECULE
MUW
   95    96     1     0     0
SMALL
bcc


@<TRIPOS>ATOM
      1 O9          2.2970   -0.8810    1.2870 o         1 MUW     -0.404900
      2 S7          1.6730   -2.0120    0.8840 s4        1 MUW      1.643300
      3 O8          2.2990   -3.1520    0.4930 o         1 MUW     -0.404900
      4 C1          0.1690   -2.2090    1.3910 ca        1 MUW     -0.527500
      5 C2         -0.4870   -3.4550    1.2720 ca        1 MUW      0.039500
      6 C3         -1.7500   -3.6660    1.8190 ca        1 MUW     -0.126000
      7 C4         -2.4040   -2.6300    2.4980 ca        1 MUW     -0.034300
      8 C15        -3.8020   -2.8390    3.0050 c3        1 MUW      0.133100
      9 N45        -3.9130   -2.8630    4.4920 n4        1 MUW     -0.837600
     10 C5         -1.7800   -1.3810    2.6180 ca        1 MUW     -0.126000
     11 C6         -0.5200   -1.1740    2.0670 ca        1 MUW      0.039500
     12 N10         1.7590   -1.3570   -1.4600 n3        1 MUW     -0.902200
     13 C11         0.7890   -0.4400   -2.0760 c3        1 MUW      0.107800
     14 C12        -0.1970    0.2340   -1.1130 c3        1 MUW     -0.070700
     15 C13         0.4500    1.3650   -0.3430 c3        1 MUW     -0.108100
     16 C14        -1.3670    0.7600   -1.9250 c3        1 MUW     -0.108100
     17 C16         3.1760   -1.0450   -1.7660 c3        1 MUW      0.144500
     18 C22         3.6160    0.3570   -1.2950 c3        1 MUW      0.120400
     19 O23         3.2890    1.2930   -2.3050 oh        1 MUW     -0.616800
     20 C17         3.5430   -1.2590   -3.2470 c3        1 MUW     -0.091400
     21 C18         5.0310   -1.0840   -3.4870 c3        1 MUW     -0.075400
     22 C19         5.3810   -1.3390   -4.9460 c3        1 MUW     -0.103400
     23 C20         6.8670   -1.0590   -5.1500 c3        1 MUW      0.107800
     24 N21         7.3110   -1.2350   -6.5750 n4        1 MUW     -0.659800
     25 C39         8.7710   -0.9950   -6.7530 c         1 MUW      0.529100
     26 O40         9.4810   -0.9240   -5.7590 o         1 MUW     -0.389100
     27 C37         9.3410   -0.8240   -8.1710 c3        1 MUW      0.068500
     28 N38        10.4790   -1.7910   -8.3710 n4        1 MUW     -0.648800
     29 C41        10.0730   -3.2160   -8.1240 c         1 MUW      0.644100
     30 O42        10.9760   -4.0680   -8.6050 os        1 MUW     -0.352900
     31 C44        10.7160   -5.4920   -8.4170 c3        1 MUW      0.133700
     32 O43         9.0240   -3.4750   -7.5360 o         1 MUW     -0.513000
     33 C30         8.3160   -0.9060   -9.3330 c3        1 MUW      0.044900
     34 C24         7.3300    0.2150   -9.2310 ca        1 MUW     -0.188800
     35 C25         5.9600   -0.0920   -9.2910 ca        1 MUW     -0.137750
     36 C26         5.0120    0.9300   -9.3210 ca        1 MUW     -0.100500
     37 C27         5.4180    2.2660   -9.2890 ca        1 MUW     -0.075000
     38 C28         6.7770    2.5770   -9.2280 ca        1 MUW     -0.100500
     39 C29         7.7290    1.5570   -9.2060 ca        1 MUW     -0.137750
     40 C31         9.0300   -0.9120  -10.6520 ca        1 MUW     -0.188800
     41 C32        10.0800   -0.0240  -10.9340 ca        1 MUW     -0.137750
     42 C33        10.6790   -0.0210  -12.1910 ca        1 MUW     -0.100500
     43 C34        10.2330   -0.8990  -13.1840 ca        1 MUW     -0.075000
     44 C35         9.1870   -1.7800  -12.9110 ca        1 MUW     -0.100500
     45 C36         8.5870   -1.7890  -11.6510 ca        1 MUW     -0.137750
     46 H2          0.0170   -4.2930    0.7490 ha        1 MUW      0.194000
     47 H3         -2.2300   -4.6560    1.7000 ha        1 MUW      0.185500
     48 H151       -4.4640   -2.0010    2.6210 hx        1 MUW      0.142700
     49 H152       -4.2200   -3.8180    2.6150 hx        1 MUW      0.142700
     50 H451       -4.9050   -2.9600    4.7580 hn        1 MUW      0.477800
     51 H452       -3.3910   -3.6560    4.8850 hn        1 MUW      0.477800
     52 H5         -2.2880   -0.5420    3.1260 ha        1 MUW      0.185500
     53 H6         -0.0450   -0.1740    2.1620 ha        1 MUW      0.194000
     54 H111        0.1870   -1.0150   -2.8400 h1        1 MUW      0.091200
     55 H112        1.3290    0.3820   -2.6360 h1        1 MUW      0.091200
     56 H12        -0.5930   -0.5290   -0.3840 hc        1 MUW      0.001700
     57 H131        1.0410    2.0210   -1.0300 hc        1 MUW      0.055533
     58 H132        1.1390    0.9770    0.4470 hc        1 MUW      0.055533
     59 H133       -0.3300    1.9970    0.1500 hc        1 MUW      0.055533
     60 H141       -2.1020    1.2670   -1.2530 hc        1 MUW      0.055533
     61 H142       -1.8870   -0.0710   -2.4580 hc        1 MUW      0.055533
     62 H143       -1.0150    1.5040   -2.6810 hc        1 MUW      0.055533
     63 H16         3.7750   -1.7900   -1.1520 h1        1 MUW      0.070700
     64 H221        3.1250    0.6350   -0.3230 h1        1 MUW      0.058700
     65 H222        4.7310    0.3410   -1.1430 h1        1 MUW      0.058700
     66 HO23        3.4090    2.1750   -1.9270 ho        1 MUW      0.437000
     67 H171        2.9780   -0.5180   -3.8740 hc        1 MUW      0.068200
     68 H172        3.2360   -2.2910   -3.5640 hc        1 MUW      0.068200
     69 H181        5.6100   -1.7860   -2.8310 hc        1 MUW      0.067200
     70 H182        5.3240   -0.0340   -3.2160 hc        1 MUW      0.067200
     71 H191        4.7600   -0.6710   -5.5990 hc        1 MUW      0.073200
     72 H192        5.1420   -2.4030   -5.2110 hc        1 MUW      0.073200
     73 H201        7.1070    0.0040   -4.8540 hx        1 MUW      0.119700
     74 H202        7.4850   -1.7540   -4.5090 hx        1 MUW      0.119700
     75 HN21        7.1190   -2.2040   -6.8790 hn        1 MUW      0.488800
     76 H37         9.8020    0.2220   -8.1850 hx        1 MUW      0.172700
     77 HN38       11.2620   -1.5600   -7.7390 hn        1 MUW      0.512800
     78 H441       11.6220   -5.9390   -8.9100 h1        1 MUW      0.107033
     79 H442       10.6720   -5.7150   -7.3250 h1        1 MUW      0.107033
     80 H443        9.7690   -5.7630   -8.9410 h1        1 MUW      0.107033
     81 H30         7.7670   -1.8920   -9.2360 hc        1 MUW      0.069700
     82 H25         5.6290   -1.1380   -9.3930 ha        1 MUW      0.135000
     83 H26         3.9410    0.6820   -9.4050 ha        1 MUW      0.174250
     84 H27         4.6680    3.0740   -9.3390 ha        1 MUW      0.181000
     85 H28         7.1030    3.6320   -9.2280 ha        1 MUW      0.174250
     86 H29         8.7970    1.8270   -9.2190 ha        1 MUW      0.135000
     87 H32        10.4080    0.7180  -10.1900 ha        1 MUW      0.135000
     88 H33        11.4960    0.6880  -12.4110 ha        1 MUW      0.174250
     89 H34        10.7000   -0.8840  -14.1850 ha        1 MUW      0.181000
     90 H35         8.8220   -2.4640  -13.6970 ha        1 MUW      0.174250
     91 H36         7.7460   -2.4740  -11.4590 ha        1 MUW      0.135000
     92 H453       -3.5470   -1.9950    4.9010 hn        1 MUW      0.477800
     93 H101        1.5900   -2.2790   -1.8450 hn        1 MUW      0.382800
     94 H212        6.7770   -0.5890   -7.1900 hn        1 MUW      0.488800
     95 H382       10.8070   -1.6990   -9.3620 hn        1 MUW      0.512800
@<TRIPOS>BOND
     1    1    2 1   
     2    2    3 1   
     3    2    4 1   
     4    4    5 ar  
     5    4   11 ar  
     6    5    6 ar  
     7    5   46 1   
     8    6    7 ar  
     9    6   47 1   
    10    7    8 1   
    11    7   10 ar  
    12    8    9 1   
    13    8   48 1   
    14    8   49 1   
    15    9   50 1   
    16    9   51 1   
    17    9   92 1   
    18   10   11 ar  
    19   10   52 1   
    20   11   53 1   
    21   12   13 1   
    22   12   17 1   
    23   12   93 1   
    24   13   14 1   
    25   13   54 1   
    26   13   55 1   
    27   14   15 1   
    28   14   16 1   
    29   14   56 1   
    30   15   57 1   
    31   15   58 1   
    32   15   59 1   
    33   16   60 1   
    34   16   61 1   
    35   16   62 1   
    36   17   18 1   
    37   17   20 1   
    38   17   63 1   
    39   18   19 1   
    40   18   64 1   
    41   18   65 1   
    42   19   66 1   
    43   20   21 1   
    44   20   67 1   
    45   20   68 1   
    46   21   22 1   
    47   21   69 1   
    48   21   70 1   
    49   22   23 1   
    50   22   71 1   
    51   22   72 1   
    52   23   24 1   
    53   23   73 1   
    54   23   74 1   
    55   24   25 1   
    56   24   75 1   
    57   24   94 1   
    58   25   26 2   
    59   25   27 1   
    60   27   28 1   
    61   27   33 1   
    62   27   76 1   
    63   28   29 1   
    64   28   77 1   
    65   28   95 1   
    66   29   30 1   
    67   29   32 2   
    68   30   31 1   
    69   31   78 1   
    70   31   79 1   
    71   31   80 1   
    72   33   34 1   
    73   33   40 1   
    74   33   81 1   
    75   34   35 ar  
    76   34   39 ar  
    77   35   36 ar  
    78   35   82 1   
    79   36   37 ar  
    80   36   83 1   
    81   37   38 ar  
    82   37   84 1   
    83   38   39 ar  
    84   38   85 1   
    85   39   86 1   
    86   40   41 ar  
    87   40   45 ar  
    88   41   42 ar  
    89   41   87 1   
    90   42   43 ar  
    91   42   88 1   
    92   43   44 ar  
    93   43   89 1   
    94   44   45 ar  
    95   44   90 1   
    96   45   91 1   
@<TRIPOS>SUBSTRUCTURE
     1 MUW         1 TEMP              0 ****  ****    0 ROOT
