@<TRIPOS>MOLECULE
MUW
   95    96     1     0     0
SMALL
bcc


@<TRIPOS>ATOM
      1 O9          2.6300   -1.8000    1.1740 o         1 MUW     -0.413900
      2 S7          1.4800   -2.3360    0.6860 s4        1 MUW      1.631300
      3 O8          1.3870   -3.5590    0.1030 o         1 MUW     -0.413900
      4 C1          0.1360   -1.7780    1.3650 ca        1 MUW     -0.513500
      5 C2         -1.0630   -2.5280    1.3300 ca        1 MUW      0.034000
      6 C3         -2.1980   -2.1120    2.0190 ca        1 MUW     -0.124500
      7 C4         -2.1740   -0.9250    2.7620 ca        1 MUW     -0.041300
      8 C15        -3.4170   -0.4240    3.4380 c3        1 MUW      0.135100
      9 N45        -3.8150   -1.2140    4.6390 n4        1 MUW     -0.837600
     10 C5         -1.0020   -0.1600    2.8050 ca        1 MUW     -0.124500
     11 C6          0.1320   -0.5820    2.1140 ca        1 MUW      0.034000
     12 N10         1.6810   -1.2040   -1.3330 n3        1 MUW     -0.914200
     13 C11         0.9330   -1.9420   -2.3580 c3        1 MUW      0.096800
     14 C12        -0.5930   -1.8720   -2.1910 c3        1 MUW     -0.067700
     15 C13        -1.1200   -0.4760   -2.4430 c3        1 MUW     -0.107100
     16 C14        -1.2220   -2.8600   -3.1550 c3        1 MUW     -0.107100
     17 C16         3.1310   -1.0340   -1.6170 c3        1 MUW      0.153500
     18 C22         3.6800    0.2020   -0.8590 c3        1 MUW      0.107400
     19 O23         2.9320    1.3260   -1.2860 oh        1 MUW     -0.623800
     20 C17         3.5160   -0.9490   -3.1040 c3        1 MUW     -0.095400
     21 C18         5.0190   -0.8880   -3.3130 c3        1 MUW     -0.075400
     22 C19         5.3720   -1.0930   -4.7810 c3        1 MUW     -0.104400
     23 C20         6.8790   -0.9310   -4.9530 c3        1 MUW      0.107800
     24 N21         7.3320   -1.0890   -6.3770 n4        1 MUW     -0.659800
     25 C39         8.8120   -0.9710   -6.5230 c         1 MUW      0.530100
     26 O40         9.5050   -1.0000   -5.5140 o         1 MUW     -0.388100
     27 C37         9.4220   -0.7980   -7.9230 c3        1 MUW      0.068500
     28 N38        10.4730   -1.8530   -8.1450 n4        1 MUW     -0.649800
     29 C41         9.9380   -3.2450   -7.9580 c         1 MUW      0.645100
     30 O42        10.7710   -4.1550   -8.4600 os        1 MUW     -0.352900
     31 C44        10.3840   -5.5570   -8.3310 c3        1 MUW      0.134700
     32 O43         8.8610   -3.4310   -7.3940 o         1 MUW     -0.515000
     33 C30         8.4150   -0.7440   -9.1030 c3        1 MUW      0.044900
     34 C24         7.5290    0.4560   -8.9700 ca        1 MUW     -0.188800
     35 C25         6.1380    0.2740   -9.0640 ca        1 MUW     -0.138000
     36 C26         5.2850    1.3760   -9.0680 ca        1 MUW     -0.100750
     37 C27         5.8060    2.6680   -8.9780 ca        1 MUW     -0.074500
     38 C28         7.1860    2.8560   -8.8840 ca        1 MUW     -0.100750
     39 C29         8.0440    1.7560   -8.8870 ca        1 MUW     -0.138000
     40 C31         9.1500   -0.7600  -10.4110 ca        1 MUW     -0.188800
     41 C32        10.2800    0.0410  -10.6390 ca        1 MUW     -0.138000
     42 C33        10.9000    0.0400  -11.8860 ca        1 MUW     -0.100750
     43 C34        10.3970   -0.7540  -12.9210 ca        1 MUW     -0.074500
     44 C35         9.2730   -1.5490  -12.7000 ca        1 MUW     -0.100750
     45 C36         8.6500   -1.5540  -11.4510 ca        1 MUW     -0.138000
     46 H2         -1.1000   -3.4750    0.7520 ha        1 MUW      0.191500
     47 H3         -3.1180   -2.7200    1.9530 ha        1 MUW      0.184000
     48 H151       -3.2800    0.6520    3.7670 hx        1 MUW      0.141200
     49 H152       -4.2800   -0.4550    2.7010 hx        1 MUW      0.141200
     50 H451       -3.9560   -2.2020    4.3970 hn        1 MUW      0.477133
     51 H452       -4.6980   -0.8390    5.0170 hn        1 MUW      0.477133
     52 H5         -0.9650    0.7860    3.3760 ha        1 MUW      0.184000
     53 H6          1.0540    0.0300    2.1750 ha        1 MUW      0.191500
     54 H111        1.2680   -3.0190   -2.3170 h1        1 MUW      0.087200
     55 H112        1.1550   -1.5440   -3.3910 h1        1 MUW      0.087200
     56 H12        -0.8640   -2.1820   -1.1410 hc        1 MUW      0.009700
     57 H131       -2.2380   -0.4850   -2.4380 hc        1 MUW      0.057533
     58 H132       -0.7850   -0.1020   -3.4410 hc        1 MUW      0.057533
     59 H133       -0.7760    0.2410   -1.6600 hc        1 MUW      0.057533
     60 H141       -0.8530   -3.8950   -2.9610 hc        1 MUW      0.057533
     61 H142       -0.9820   -2.5860   -4.2110 hc        1 MUW      0.057533
     62 H143       -2.3330   -2.8500   -3.0380 hc        1 MUW      0.057533
     63 H16         3.6420   -1.9470   -1.1820 h1        1 MUW      0.075700
     64 H221        4.7700    0.3250   -1.0880 h1        1 MUW      0.060700
     65 H222        3.5670    0.0670    0.2520 h1        1 MUW      0.060700
     66 HO23        3.3760    2.1150   -0.9450 ho        1 MUW      0.444000
     67 H171        3.1310   -1.8560   -3.6430 hc        1 MUW      0.071700
     68 H172        3.0380   -0.0360   -3.5520 hc        1 MUW      0.071700
     69 H181        5.5240   -1.6750   -2.6920 hc        1 MUW      0.065200
     70 H182        5.4100    0.1120   -2.9850 hc        1 MUW      0.065200
     71 H191        5.0470   -2.1160   -5.1070 hc        1 MUW      0.074700
     72 H192        4.8200   -0.3390   -5.4040 hc        1 MUW      0.074700
     73 H201        7.4240   -1.7010   -4.3320 hx        1 MUW      0.120200
     74 H202        7.2040    0.0950   -4.6110 hx        1 MUW      0.120200
     75 HN21        6.8690   -0.3740   -6.9740 hn        1 MUW      0.489300
     76 H37         9.9730    0.2030   -7.8890 hx        1 MUW      0.172700
     77 HN38       10.8250   -1.7540   -9.1270 hn        1 MUW      0.512800
     78 H441       10.3020   -5.8160   -7.2490 h1        1 MUW      0.107033
     79 H442       11.2560   -6.0630   -8.8290 h1        1 MUW      0.107033
     80 H443        9.4260   -5.7240   -8.8780 h1        1 MUW      0.107033
     81 H30         7.7800   -1.6800   -9.0550 hc        1 MUW      0.068700
     82 H25         5.7190   -0.7340   -9.2130 ha        1 MUW      0.135000
     83 H26         4.1980    1.2280   -9.1800 ha        1 MUW      0.174750
     84 H27         5.1310    3.5410   -9.0100 ha        1 MUW      0.182000
     85 H28         7.6030    3.8770   -8.8390 ha        1 MUW      0.174750
     86 H29         9.1320    1.9300   -8.8730 ha        1 MUW      0.135000
     87 H32        10.6580    0.7210   -9.8610 ha        1 MUW      0.135000
     88 H33        11.7800    0.6820  -12.0650 ha        1 MUW      0.174750
     89 H34        10.8820   -0.7410  -13.9140 ha        1 MUW      0.182000
     90 H35         8.8630   -2.1660  -13.5190 ha        1 MUW      0.174750
     91 H36         7.7490   -2.1690  -11.3000 ha        1 MUW      0.135000
     92 H453       -3.0960   -1.1550    5.3710 hn        1 MUW      0.477133
     93 H101        1.2730   -0.2790   -1.2490 hn        1 MUW      0.419800
     94 H212        7.0630   -2.0250   -6.7230 hn        1 MUW      0.489300
     95 H382       11.2630   -1.7170   -7.4940 hn        1 MUW      0.512800
@<TRIPOS>BOND
     1    1    2 1   
     2    2    3 1   
     3    2    4 1   
     4    4    5 ar  
     5    4   11 ar  
     6    5    6 ar  
     7    5   46 1   
     8    6    7 ar  
     9    6   47 1   
    10    7    8 1   
    11    7   10 ar  
    12    8    9 1   
    13    8   48 1   
    14    8   49 1   
    15    9   50 1   
    16    9   51 1   
    17    9   92 1   
    18   10   11 ar  
    19   10   52 1   
    20   11   53 1   
    21   12   13 1   
    22   12   17 1   
    23   12   93 1   
    24   13   14 1   
    25   13   54 1   
    26   13   55 1   
    27   14   15 1   
    28   14   16 1   
    29   14   56 1   
    30   15   57 1   
    31   15   58 1   
    32   15   59 1   
    33   16   60 1   
    34   16   61 1   
    35   16   62 1   
    36   17   18 1   
    37   17   20 1   
    38   17   63 1   
    39   18   19 1   
    40   18   64 1   
    41   18   65 1   
    42   19   66 1   
    43   20   21 1   
    44   20   67 1   
    45   20   68 1   
    46   21   22 1   
    47   21   69 1   
    48   21   70 1   
    49   22   23 1   
    50   22   71 1   
    51   22   72 1   
    52   23   24 1   
    53   23   73 1   
    54   23   74 1   
    55   24   25 1   
    56   24   75 1   
    57   24   94 1   
    58   25   26 2   
    59   25   27 1   
    60   27   28 1   
    61   27   33 1   
    62   27   76 1   
    63   28   29 1   
    64   28   77 1   
    65   28   95 1   
    66   29   30 1   
    67   29   32 2   
    68   30   31 1   
    69   31   78 1   
    70   31   79 1   
    71   31   80 1   
    72   33   34 1   
    73   33   40 1   
    74   33   81 1   
    75   34   35 ar  
    76   34   39 ar  
    77   35   36 ar  
    78   35   82 1   
    79   36   37 ar  
    80   36   83 1   
    81   37   38 ar  
    82   37   84 1   
    83   38   39 ar  
    84   38   85 1   
    85   39   86 1   
    86   40   41 ar  
    87   40   45 ar  
    88   41   42 ar  
    89   41   87 1   
    90   42   43 ar  
    91   42   88 1   
    92   43   44 ar  
    93   43   89 1   
    94   44   45 ar  
    95   44   90 1   
    96   45   91 1   
@<TRIPOS>SUBSTRUCTURE
     1 MUW         1 TEMP              0 ****  ****    0 ROOT
