@<TRIPOS>MOLECULE
MUW
   95    96     1     0     0
SMALL
bcc


@<TRIPOS>ATOM
      1 O9          2.2990   -0.7470    1.2820 o         1 MUW     -0.404900
      2 S7          1.7010   -1.9050    0.9160 s4        1 MUW      1.643300
      3 O8          2.3530   -3.0420    0.5610 o         1 MUW     -0.404900
      4 C1          0.2030   -2.1190    1.4320 ca        1 MUW     -0.527500
      5 C2         -0.4250   -3.3830    1.3540 ca        1 MUW      0.039500
      6 C3         -1.6820   -3.6050    1.9090 ca        1 MUW     -0.126000
      7 C4         -2.3590   -2.5640    2.5560 ca        1 MUW     -0.034300
      8 C15        -3.7510   -2.7880    3.0720 c3        1 MUW      0.133100
      9 N45        -3.8600   -2.7660    4.5590 nz        1 MUW     -0.837600
     10 C5         -1.7640   -1.2980    2.6350 ca        1 MUW     -0.126000
     11 C6         -0.5090   -1.0790    2.0760 ca        1 MUW      0.039500
     12 N10         1.7700   -1.3230   -1.4480 n7        1 MUW     -0.902200
     13 C11         0.7790   -0.4490   -2.0910 c3        1 MUW      0.107800
     14 C12        -0.2210    0.2330   -1.1480 c3        1 MUW     -0.070700
     15 C13         0.4000    1.4030   -0.4160 c3        1 MUW     -0.108100
     16 C14        -1.4040    0.7060   -1.9750 c3        1 MUW     -0.108100
     17 C16         3.1790   -0.9890   -1.7660 c3        1 MUW      0.144500
     18 C22         3.5870    0.4380   -1.3410 c3        1 MUW      0.120400
     19 O23         3.2380    1.3330   -2.3800 oh        1 MUW     -0.616800
     20 C17         3.5500   -1.2420   -3.2400 c3        1 MUW     -0.091400
     21 C18         5.0330   -1.0400   -3.4880 c3        1 MUW     -0.075400
     22 C19         5.3880   -1.3340   -4.9380 c3        1 MUW     -0.103400
     23 C20         6.8670   -1.0250   -5.1540 c3        1 MUW      0.107800
     24 N21         7.3130   -1.2360   -6.5740 ny        1 MUW     -0.659800
     25 C39         8.7670   -0.9670   -6.7620 c         1 MUW      0.529100
     26 O40         9.4760   -0.8470   -5.7720 o         1 MUW     -0.389100
     27 C37         9.3310   -0.8280   -8.1850 c3        1 MUW      0.068500
     28 N38        10.4920   -1.7720   -8.3570 ny        1 MUW     -0.648800
     29 C41        10.1200   -3.1980   -8.0640 c         1 MUW      0.644100
     30 O42        11.0430   -4.0430   -8.5190 os        1 MUW     -0.352900
     31 C44        10.8180   -5.4660   -8.2850 c3        1 MUW      0.133700
     32 O43         9.0780   -3.4630   -7.4650 o         1 MUW     -0.513000
     33 C30         8.3070   -0.9710   -9.3420 c3        1 MUW      0.044900
     34 C24         7.2940    0.1290   -9.2740 ca        1 MUW     -0.188800
     35 C25         5.9310   -0.2130   -9.3220 ca        1 MUW     -0.137750
     36 C26         4.9590    0.7830   -9.3820 ca        1 MUW     -0.100500
     37 C27         5.3320    2.1300   -9.3930 ca        1 MUW     -0.075000
     38 C28         6.6840    2.4750   -9.3450 ca        1 MUW     -0.100500
     39 C29         7.6600    1.4800   -9.2930 ca        1 MUW     -0.137750
     40 C31         9.0190   -1.0010  -10.6620 ca        1 MUW     -0.188800
     41 C32        10.0470   -0.0970  -10.9730 ca        1 MUW     -0.137750
     42 C33        10.6450   -0.1200  -12.2310 ca        1 MUW     -0.100500
     43 C34        10.2190   -1.0390  -13.1950 ca        1 MUW     -0.075000
     44 C35         9.1950   -1.9360  -12.8930 ca        1 MUW     -0.100500
     45 C36         8.5970   -1.9200  -11.6320 ca        1 MUW     -0.137750
     46 H2          0.0980   -4.2260    0.8570 ha        1 MUW      0.194000
     47 H3         -2.1390   -4.6090    1.8230 ha        1 MUW      0.185500
     48 H151       -4.4320   -1.9780    2.6630 hx        1 MUW      0.142700
     49 H152       -4.1460   -3.7880    2.7160 hx        1 MUW      0.142700
     50 H451       -3.3190   -3.5340    4.9770 hn        1 MUW      0.477800
     51 H452       -4.8490   -2.8780    4.8300 hn        1 MUW      0.477800
     52 H5         -2.2900   -0.4550    3.1170 ha        1 MUW      0.185500
     53 H6         -0.0570   -0.0670    2.1370 ha        1 MUW      0.194000
     54 H111        0.1900   -1.0620   -2.8360 h1        1 MUW      0.091200
     55 H112        1.2990    0.3670   -2.6780 h1        1 MUW      0.091200
     56 H12        -0.5990   -0.5150   -0.3940 hc        1 MUW      0.001700
     57 H131       -0.3940    2.0320    0.0580 hc        1 MUW      0.055533
     58 H132        0.9760    2.0490   -1.1250 hc        1 MUW      0.055533
     59 H133        1.0980    1.0560    0.3850 hc        1 MUW      0.055533
     60 H141       -1.9060   -0.1530   -2.4800 hc        1 MUW      0.055533
     61 H142       -2.1500    1.2170   -1.3190 hc        1 MUW      0.055533
     62 H143       -1.0700    1.4340   -2.7550 hc        1 MUW      0.055533
     63 H16         3.7960   -1.6990   -1.1290 h1        1 MUW      0.070700
     64 H221        3.0910    0.7350   -0.3770 h1        1 MUW      0.058700
     65 H222        4.7020    0.4520   -1.1900 h1        1 MUW      0.058700
     66 HO23        3.3380    2.2290   -2.0300 ho        1 MUW      0.437000
     67 H171        3.2660   -2.2900   -3.5220 hc        1 MUW      0.068200
     68 H172        2.9670   -0.5350   -3.8890 hc        1 MUW      0.068200
     69 H181        5.6290   -1.7070   -2.8110 hc        1 MUW      0.067200
     70 H182        5.3020    0.0250   -3.2510 hc        1 MUW      0.067200
     71 H191        4.7500   -0.7020   -5.6120 hc        1 MUW      0.073200
     72 H192        5.1740   -2.4110   -5.1690 hc        1 MUW      0.073200
     73 H201        7.0820    0.0520   -4.8920 hx        1 MUW      0.119700
     74 H202        7.5010   -1.6850   -4.4920 hx        1 MUW      0.119700
     75 HN21        7.1440   -2.2190   -6.8450 hn        1 MUW      0.488800
     76 H37         9.7660    0.2290   -8.2340 hx        1 MUW      0.172700
     77 HN38       10.8160   -1.7040   -9.3510 hn        1 MUW      0.512800
     78 H441       11.7350   -5.9070   -8.7650 h1        1 MUW      0.107033
     79 H442        9.8780   -5.7770   -8.7980 h1        1 MUW      0.107033
     80 H443       10.7800   -5.6550   -7.1870 h1        1 MUW      0.107033
     81 H30         7.7820   -1.9660   -9.2130 hc        1 MUW      0.069700
     82 H25         5.6260   -1.2690   -9.3910 ha        1 MUW      0.135000
     83 H26         3.8940    0.5080   -9.4570 ha        1 MUW      0.174250
     84 H27         4.5630    2.9170   -9.4680 ha        1 MUW      0.181000
     85 H28         6.9840    3.5370   -9.3790 ha        1 MUW      0.174250
     86 H29         8.7210    1.7750   -9.3160 ha        1 MUW      0.135000
     87 H32        10.3570    0.6760  -10.2540 ha        1 MUW      0.135000
     88 H33        11.4440    0.6010  -12.4750 ha        1 MUW      0.174250
     89 H34        10.6840   -1.0440  -14.1970 ha        1 MUW      0.181000
     90 H35         8.8460   -2.6530  -13.6560 ha        1 MUW      0.174250
     91 H36         7.7730   -2.6190  -11.4170 ha        1 MUW      0.135000
     92 H453       -3.5140   -1.8770    4.9390 hn        1 MUW      0.477800
     93 H101        1.6220   -2.2600   -1.8030 hn        1 MUW      0.382800
     94 H212        6.7620   -0.6230   -7.2080 hn        1 MUW      0.488800
     95 H382       11.2700   -1.5030   -7.7340 hn        1 MUW      0.512800
@<TRIPOS>BOND
     1    1    2 1   
     2    2    3 1   
     3    2    4 1   
     4    4    5 ar  
     5    4   11 ar  
     6    5    6 ar  
     7    5   46 1   
     8    6    7 ar  
     9    6   47 1   
    10    7    8 1   
    11    7   10 ar  
    12    8    9 1   
    13    8   48 1   
    14    8   49 1   
    15    9   50 1   
    16    9   51 1   
    17    9   92 1   
    18   10   11 ar  
    19   10   52 1   
    20   11   53 1   
    21   12   13 1   
    22   12   17 1   
    23   12   93 1   
    24   13   14 1   
    25   13   54 1   
    26   13   55 1   
    27   14   15 1   
    28   14   16 1   
    29   14   56 1   
    30   15   57 1   
    31   15   58 1   
    32   15   59 1   
    33   16   60 1   
    34   16   61 1   
    35   16   62 1   
    36   17   18 1   
    37   17   20 1   
    38   17   63 1   
    39   18   19 1   
    40   18   64 1   
    41   18   65 1   
    42   19   66 1   
    43   20   21 1   
    44   20   67 1   
    45   20   68 1   
    46   21   22 1   
    47   21   69 1   
    48   21   70 1   
    49   22   23 1   
    50   22   71 1   
    51   22   72 1   
    52   23   24 1   
    53   23   73 1   
    54   23   74 1   
    55   24   25 1   
    56   24   75 1   
    57   24   94 1   
    58   25   26 2   
    59   25   27 1   
    60   27   28 1   
    61   27   33 1   
    62   27   76 1   
    63   28   29 1   
    64   28   77 1   
    65   28   95 1   
    66   29   30 1   
    67   29   32 2   
    68   30   31 1   
    69   31   78 1   
    70   31   79 1   
    71   31   80 1   
    72   33   34 1   
    73   33   40 1   
    74   33   81 1   
    75   34   35 ar  
    76   34   39 ar  
    77   35   36 ar  
    78   35   82 1   
    79   36   37 ar  
    80   36   83 1   
    81   37   38 ar  
    82   37   84 1   
    83   38   39 ar  
    84   38   85 1   
    85   39   86 1   
    86   40   41 ar  
    87   40   45 ar  
    88   41   42 ar  
    89   41   87 1   
    90   42   43 ar  
    91   42   88 1   
    92   43   44 ar  
    93   43   89 1   
    94   44   45 ar  
    95   44   90 1   
    96   45   91 1   
@<TRIPOS>SUBSTRUCTURE
     1 MUW         1 TEMP              0 ****  ****    0 ROOT
