@<TRIPOS>MOLECULE
MUW
   91    93     1     0     0
SMALL
bcc


@<TRIPOS>ATOM
      1 O9         -5.9610    1.5620    0.6630 o         1 MUW     -0.656300
      2 S7         -4.9370    1.2060   -0.2400 sy        1 MUW      1.500200
      3 O8         -5.1280    1.6400   -1.5760 o         1 MUW     -0.656300
      4 C1         -3.4800    1.8280    0.3310 ca        1 MUW     -0.391500
      5 C2         -2.5580    2.4100   -0.5480 ca        1 MUW     -0.020000
      6 C3         -1.3510    2.9350   -0.0910 ca        1 MUW     -0.154500
      7 C4         -1.0390    2.8890    1.2710 ca        1 MUW     -0.009300
      8 C15         0.2420    3.4220    1.8430 c3        1 MUW      0.195100
      9 N45         1.2780    3.7470    0.8940 n3        1 MUW     -0.921800
     10 C5         -1.9710    2.3380    2.1650 ca        1 MUW     -0.154500
     11 C6         -3.1720    1.8210    1.6980 ca        1 MUW     -0.020000
     12 N10        -4.6990   -0.4180   -0.2250 n3        1 MUW     -0.796500
     13 C11        -4.4980   -1.1470    1.0020 c3        1 MUW      0.210800
     14 C12        -5.6450   -1.0920    2.0290 c3        1 MUW     -0.096700
     15 C13        -6.9140   -1.7070    1.4830 c3        1 MUW     -0.086100
     16 C14        -5.1940   -1.8220    3.2780 c3        1 MUW     -0.086100
     17 C16        -4.5550   -1.1620   -1.4610 c3        1 MUW      0.233500
     18 C22        -5.6170   -2.2730   -1.6390 c3        1 MUW      0.118400
     19 O23        -5.1980   -3.4270   -0.9290 oh        1 MUW     -0.606800
     20 C17        -3.1610   -1.7760   -1.6830 c3        1 MUW     -0.086400
     21 C18        -2.1690   -0.7520   -2.1880 c3        1 MUW     -0.082400
     22 C19        -0.7530   -1.2850   -2.1360 c3        1 MUW     -0.104400
     23 C20         0.2060   -0.2740   -2.7670 c3        1 MUW      0.073000
     24 N21         1.5940   -0.4680   -2.4300 n         1 MUW     -0.541900
     25 C39         2.2940    0.4760   -1.7060 c         1 MUW      0.617100
     26 O40         1.8290    1.6100   -1.4760 o         1 MUW     -0.609100
     27 C37         3.7410    0.1060   -1.2730 c3        1 MUW      0.045700
     28 N38         4.6230    1.2510   -1.2660 n         1 MUW     -0.490900
     29 C41         4.4040    2.3130   -0.3900 c         1 MUW      0.744100
     30 O42         5.0100    3.4740   -0.8280 os        1 MUW     -0.441900
     31 C44         4.9190    4.5880    0.0620 c3        1 MUW      0.134700
     32 O43         3.8320    2.3250    0.7120 o         1 MUW     -0.591000
     33 C30         3.6760   -0.6310    0.0890 c3        1 MUW      0.019900
     34 C24         2.8310   -1.8660   -0.0150 ca        1 MUW     -0.079300
     35 C25         1.6620   -1.9660    0.7510 ca        1 MUW     -0.121000
     36 C26         0.8770   -3.1170    0.6920 ca        1 MUW     -0.129250
     37 C27         1.2530   -4.1810   -0.1270 ca        1 MUW     -0.125500
     38 C28         2.4160   -4.0890   -0.8910 ca        1 MUW     -0.129250
     39 C29         3.2010   -2.9390   -0.8360 ca        1 MUW     -0.121000
     40 C31         5.0380   -0.9710    0.6190 ca        1 MUW     -0.079300
     41 C32         6.0650   -1.4500   -0.2010 ca        1 MUW     -0.121000
     42 C33         7.3110   -1.7680    0.3400 ca        1 MUW     -0.129250
     43 C34         7.5430   -1.6130    1.7060 ca        1 MUW     -0.125500
     44 C35         6.5260   -1.1310    2.5290 ca        1 MUW     -0.129250
     45 C36         5.2820   -0.8100    1.9910 ca        1 MUW     -0.121000
     46 H2         -2.8030    2.4650   -1.6250 ha        1 MUW      0.149500
     47 H3         -0.6530    3.3830   -0.8170 ha        1 MUW      0.151500
     48 H151       -0.0090    4.3770    2.3970 h1        1 MUW      0.037700
     49 H152        0.5920    2.6780    2.6240 h1        1 MUW      0.037700
     50 H451        2.1610    3.8100    1.3670 hn        1 MUW      0.370300
     51 H452        1.3560    3.0500    0.1760 hn        1 MUW      0.370300
     52 H5         -1.7470    2.3190    3.2430 ha        1 MUW      0.151500
     53 H6         -3.9060    1.4080    2.4130 ha        1 MUW      0.149500
     54 H111       -4.3130   -2.2360    0.7650 h1        1 MUW      0.055200
     55 H112       -3.5660   -0.7470    1.5040 h1        1 MUW      0.055200
     56 H12        -5.8590   -0.0180    2.3000 hc        1 MUW      0.078700
     57 H131       -7.6600   -1.8470    2.3020 hc        1 MUW      0.034533
     58 H132       -7.3650   -1.0390    0.7090 hc        1 MUW      0.034533
     59 H133       -6.7010   -2.7010    1.0180 hc        1 MUW      0.034533
     60 H141       -4.2630   -1.3620    3.6880 hc        1 MUW      0.034533
     61 H142       -5.9900   -1.7680    4.0600 hc        1 MUW      0.034533
     62 H143       -4.9900   -2.8970    3.0550 hc        1 MUW      0.034533
     63 H16        -4.7450   -0.4310   -2.3120 h1        1 MUW      0.086700
     64 H221       -6.6210   -1.9300   -1.2760 h1        1 MUW      0.035700
     65 H222       -5.6850   -2.5230   -2.7330 h1        1 MUW      0.035700
     66 HO23       -5.9670   -4.0050   -0.8620 ho        1 MUW      0.403000
     67 H171       -2.7870   -2.2460   -0.7370 hc        1 MUW      0.056200
     68 H172       -3.2610   -2.6020   -2.4360 hc        1 MUW      0.056200
     69 H181       -2.4270   -0.4640   -3.2420 hc        1 MUW      0.045700
     70 H182       -2.2320    0.1810   -1.5660 hc        1 MUW      0.045700
     71 H191       -0.4690   -1.4880   -1.0680 hc        1 MUW      0.048200
     72 H192       -0.6910   -2.2600   -2.6850 hc        1 MUW      0.048200
     73 H201        0.1180   -0.3460   -3.8900 h1        1 MUW      0.065200
     74 H202       -0.1010    0.7700   -2.4650 h1        1 MUW      0.065200
     75 HN21        1.9090   -1.4110   -2.3840 hn        1 MUW      0.311500
     76 H37         4.1780   -0.6050   -2.0410 h1        1 MUW      0.076700
     77 HN38        4.9420    1.5300   -2.1720 hn        1 MUW      0.317500
     78 H441        5.4920    5.3870   -0.4700 h1        1 MUW      0.055367
     79 H442        3.8490    4.8750    0.2030 h1        1 MUW      0.055367
     80 H443        5.3850    4.3330    1.0440 h1        1 MUW      0.055367
     81 H30         3.1880    0.0860    0.8200 hc        1 MUW      0.104700
     82 H25         1.3610   -1.1320    1.4050 ha        1 MUW      0.134000
     83 H26        -0.0390   -3.1850    1.2980 ha        1 MUW      0.134500
     84 H27         0.6360   -5.0910   -0.1680 ha        1 MUW      0.134500
     85 H28         2.7200   -4.9290   -1.5330 ha        1 MUW      0.134500
     86 H29         4.1310   -2.8830   -1.4230 ha        1 MUW      0.134000
     87 H32         5.9050   -1.5700   -1.2820 ha        1 MUW      0.134000
     88 H33         8.1110   -2.1410   -0.3150 ha        1 MUW      0.134500
     89 H34         8.5250   -1.8650    2.1310 ha        1 MUW      0.134500
     90 H35         6.7050   -1.0010    3.6070 ha        1 MUW      0.134500
     91 H36         4.4880   -0.4190    2.6450 ha        1 MUW      0.134000
@<TRIPOS>BOND
     1    1    2 2   
     2    2    3 2   
     3    2    4 1   
     4    2   12 1   
     5    4    5 ar  
     6    4   11 ar  
     7    5    6 ar  
     8    5   46 1   
     9    6    7 ar  
    10    6   47 1   
    11    7    8 1   
    12    7   10 ar  
    13    8    9 1   
    14    8   48 1   
    15    8   49 1   
    16    9   50 1   
    17    9   51 1   
    18   10   11 ar  
    19   10   52 1   
    20   11   53 1   
    21   12   13 1   
    22   12   17 1   
    23   13   14 1   
    24   13   54 1   
    25   13   55 1   
    26   14   15 1   
    27   14   16 1   
    28   14   56 1   
    29   15   57 1   
    30   15   58 1   
    31   15   59 1   
    32   16   60 1   
    33   16   61 1   
    34   16   62 1   
    35   17   18 1   
    36   17   20 1   
    37   17   63 1   
    38   18   19 1   
    39   18   64 1   
    40   18   65 1   
    41   19   66 1   
    42   20   21 1   
    43   20   67 1   
    44   20   68 1   
    45   21   22 1   
    46   21   69 1   
    47   21   70 1   
    48   22   23 1   
    49   22   71 1   
    50   22   72 1   
    51   23   24 1   
    52   23   73 1   
    53   23   74 1   
    54   24   25 1   
    55   24   75 1   
    56   25   26 2   
    57   25   27 1   
    58   27   28 1   
    59   27   33 1   
    60   27   76 1   
    61   28   29 1   
    62   28   77 1   
    63   29   30 1   
    64   29   32 2   
    65   30   31 1   
    66   31   78 1   
    67   31   79 1   
    68   31   80 1   
    69   33   34 1   
    70   33   40 1   
    71   33   81 1   
    72   34   35 ar  
    73   34   39 ar  
    74   35   36 ar  
    75   35   82 1   
    76   36   37 ar  
    77   36   83 1   
    78   37   38 ar  
    79   37   84 1   
    80   38   39 ar  
    81   38   85 1   
    82   39   86 1   
    83   40   41 ar  
    84   40   45 ar  
    85   41   42 ar  
    86   41   87 1   
    87   42   43 ar  
    88   42   88 1   
    89   43   44 ar  
    90   43   89 1   
    91   44   45 ar  
    92   44   90 1   
    93   45   91 1   
@<TRIPOS>SUBSTRUCTURE
     1 MUW         1 TEMP              0 ****  ****    0 ROOT
