@<TRIPOS>MOLECULE
MUX
   24    24     1     0     0
SMALL
bcc


@<TRIPOS>ATOM
      1 O16         1.2140   -0.9270    0.7310 o         1 MUX     -1.043000
      2 O15         3.4270   -0.1160    0.7350 o         1 MUX     -1.043000
      3 O14         2.5840   -1.2410   -1.1550 o         1 MUX     -1.043000
      4 C17         0.8640    0.6840   -2.7960 c2        1 MUX     -0.410000
      5 C11         1.1250    1.4370   -1.6830 c2        1 MUX      0.255000
      6 C10        -0.7830    3.0860   -1.7010 c1        1 MUX      0.106000
      7 C02        -1.4820    2.3700   -5.2800 c2        1 MUX      0.072000
      8 C03        -1.1180    1.6510   -6.3800 c2        1 MUX     -0.326000
      9 C04        -0.1400    0.6000   -6.2670 c2        1 MUX      0.341000
     10 O05         0.2890   -0.1760   -7.1280 o         1 MUX     -0.346000
     11 O06         0.4670    0.3690   -5.0370 os        1 MUX     -0.186000
     12 C07         0.1110    1.1130   -3.9280 c2        1 MUX      0.242000
     13 C08        -0.8840    2.0850   -4.0070 c2        1 MUX     -0.224000
     14 C09        -1.3670    2.8000   -2.8500 c2        1 MUX     -0.372000
     15 O12         1.7820    1.0340   -0.6280 os        1 MUX     -0.641000
     16 S13         2.3360   -0.5590    0.0190 s6        1 MUX      2.897000
     17 H17         1.3100   -0.3290   -2.8680 ha        1 MUX      0.200000
     18 H10         0.8460    2.5310   -1.6010 h4        1 MUX      0.137000
     19 H012       -3.4390    3.1440   -4.8840 hc        1 MUX      0.085667
     20 H013       -2.1170    4.3890   -4.9280 hc        1 MUX      0.085667
     21 H011       -2.7330    3.6590   -6.4720 hc        1 MUX      0.085667
     22 H03        -1.5370    1.8290   -7.3770 ha        1 MUX      0.148000
     23 H09        -2.4150    3.1690   -2.9250 ha        1 MUX      0.167000
     24 C01        -2.4940    3.4480   -5.4010 c3        1 MUX     -0.189000
@<TRIPOS>BOND
     1    1   16 1   
     2    2   16 1   
     3    3   16 1   
     4    4    5 1   
     5    4   12 1   
     6    4   17 1   
     7    5   15 1   
     8    5   18 1   
     9    6   14 1   
    10    7    8 1   
    11    7   13 1   
    12    7   24 1   
    13    8    9 1   
    14    8   22 1   
    15    9   10 1   
    16    9   11 1   
    17   11   12 1   
    18   12   13 1   
    19   13   14 1   
    20   14   23 1   
    21   15   16 1   
    22   19   24 1   
    23   20   24 1   
    24   21   24 1   
@<TRIPOS>SUBSTRUCTURE
     1 MUX         1 TEMP              0 ****  ****    0 ROOT
