@<TRIPOS>MOLECULE
MUX
   24    24     1     0     0
SMALL
bcc


@<TRIPOS>ATOM
      1 O16         1.1340   -0.8670    0.7890 o         1 MUX     -1.043000
      2 O15         3.3800   -0.1550    0.7600 o         1 MUX     -1.043000
      3 O14         2.4780   -1.2940   -1.0940 o         1 MUX     -1.043000
      4 C17         0.8310    0.6580   -2.7800 c2        1 MUX     -0.410000
      5 C11         1.1340    1.4310   -1.6890 c2        1 MUX      0.255000
      6 C10        -0.6990    3.1620   -1.7430 c1        1 MUX      0.106000
      7 C02        -1.4550    2.3770   -5.2970 c2        1 MUX      0.072000
      8 C03        -1.1310    1.6110   -6.3770 c2        1 MUX     -0.326000
      9 C04        -0.2000    0.5210   -6.2400 c2        1 MUX      0.341000
     10 O05         0.1870   -0.2970   -7.0810 o         1 MUX     -0.346000
     11 O06         0.4050    0.2990   -5.0080 os        1 MUX     -0.186000
     12 C07         0.0900    1.0890   -3.9180 c2        1 MUX      0.242000
     13 C08        -0.8610    2.1010   -4.0190 c2        1 MUX     -0.224000
     14 C09        -1.3030    2.8700   -2.8810 c2        1 MUX     -0.372000
     15 O12         1.7800    1.0280   -0.6280 os        1 MUX     -0.641000
     16 S13         2.2670   -0.5700    0.0610 s6        1 MUX      2.897000
     17 H17         1.2320   -0.3750   -2.8250 ha        1 MUX      0.200000
     18 H10         0.9050    2.5380   -1.6380 h4        1 MUX      0.137000
     19 H012       -3.3730    3.2490   -4.9100 hc        1 MUX      0.085667
     20 H013       -1.9970    4.4310   -4.9990 hc        1 MUX      0.085667
     21 H011       -2.6560    3.6860   -6.5170 hc        1 MUX      0.085667
     22 H03        -1.5490    1.7790   -7.3770 ha        1 MUX      0.148000
     23 H09        -2.3340    3.2830   -2.9600 ha        1 MUX      0.167000
     24 C01        -2.4190    3.4950   -5.4410 c3        1 MUX     -0.189000
@<TRIPOS>BOND
     1    1   16 1   
     2    2   16 1   
     3    3   16 1   
     4    4    5 1   
     5    4   12 1   
     6    4   17 1   
     7    5   15 1   
     8    5   18 1   
     9    6   14 1   
    10    7    8 1   
    11    7   13 1   
    12    7   24 1   
    13    8    9 1   
    14    8   22 1   
    15    9   10 1   
    16    9   11 1   
    17   11   12 1   
    18   12   13 1   
    19   13   14 1   
    20   14   23 1   
    21   15   16 1   
    22   19   24 1   
    23   20   24 1   
    24   21   24 1   
@<TRIPOS>SUBSTRUCTURE
     1 MUX         1 TEMP              0 ****  ****    0 ROOT
