@<TRIPOS>MOLECULE
MV1
   62    61     1     0     0
SMALL
bcc


@<TRIPOS>ATOM
      1 C           0.5870    2.1000    0.4630 c         1 MV1      0.536100
      2 N           3.6390    0.2860   -0.9310 n4        1 MV1     -0.684800
      3 C1          5.3280   -1.8640   -3.0110 c3        1 MV1     -0.084000
      4 C2          6.6560   -2.6510   -3.0740 c3        1 MV1      0.142400
      5 O2          6.3590   -3.9010   -3.6630 oh        1 MV1     -0.588800
      6 C3          4.8030   -1.6760   -4.4250 c3        1 MV1     -0.111600
      7 C4          4.3290   -2.6350   -2.1690 c3        1 MV1     -0.111600
      8 C5          5.6350   -0.4850   -2.3840 c3        1 MV1      0.098100
      9 C6          4.3560    0.3450   -2.2910 c         1 MV1      0.563100
     10 C8          2.4430    1.1560   -0.8590 c3        1 MV1      0.098800
     11 C9          1.7390    1.1280    0.5010 c3        1 MV1     -0.178400
     12 N15        -0.2520    2.2080    1.7040 n4        1 MV1     -0.675800
     13 C16        -1.4540    1.3030    1.6400 c3        1 MV1      0.109800
     14 C17        -2.3400    1.4400    2.8710 c3        1 MV1     -0.112400
     15 C18        -3.5260    0.5010    2.7320 c3        1 MV1     -0.078400
     16 C19        -4.4300    0.6100    3.9430 c3        1 MV1     -0.080400
     17 C20        -5.6160   -0.3240    3.8140 c3        1 MV1     -0.079400
     18 C21        -6.5220   -0.2190    5.0220 c3        1 MV1     -0.079400
     19 C22        -7.7080   -1.1520    4.8960 c3        1 MV1     -0.079400
     20 C23        -8.6160   -1.0490    6.1040 c3        1 MV1     -0.079400
     21 C24        -9.7980   -1.9760    5.9830 c3        1 MV1     -0.095100
     22 O25         0.2720    2.8140   -0.4770 o         1 MV1     -0.370100
     23 O5'         6.1540   -0.5780   -1.0680 oh        1 MV1     -0.640800
     24 O6'         3.8340    1.0310   -3.1460 o         1 MV1     -0.378100
     25 HN          3.3930   -0.7010   -0.7650 hn        1 MV1      0.474300
     26 H2          7.0560   -2.8150   -2.0360 h1        1 MV1      0.037700
     27 H2A         7.4060   -2.0840   -3.6870 h1        1 MV1      0.037700
     28 HO2         7.2010   -4.3120   -3.9000 ho        1 MV1      0.439000
     29 H3          4.6580   -2.6830   -4.8960 hc        1 MV1      0.061867
     30 H3A         3.8260   -1.1370   -4.4240 hc        1 MV1      0.061867
     31 H3B         5.5330   -1.1030   -5.0470 hc        1 MV1      0.061867
     32 H4          4.3100   -3.7040   -2.5110 hc        1 MV1      0.061867
     33 H4A         4.6250   -2.6200   -1.0920 hc        1 MV1      0.061867
     34 H4B         3.2990   -2.2210   -2.2910 hc        1 MV1      0.061867
     35 H5          6.3390    0.0970   -3.0520 h1        1 MV1      0.128700
     36 H8          1.7230    0.8340   -1.6720 hx        1 MV1      0.138700
     37 H8A         2.7630    2.2150   -1.1040 hx        1 MV1      0.138700
     38 H9          1.3480    0.0970    0.7300 hc        1 MV1      0.117700
     39 H9A         2.4470    1.4250    1.3250 hc        1 MV1      0.117700
     40 HN15       -0.5910    3.1810    1.7950 hn        1 MV1      0.473800
     41 H16        -1.0800    0.2440    1.5450 hx        1 MV1      0.110200
     42 H16A       -2.0360    1.5780    0.7120 hx        1 MV1      0.110200
     43 H17        -2.7140    2.4940    2.9740 hc        1 MV1      0.076700
     44 H17A       -1.7680    1.1810    3.8020 hc        1 MV1      0.076700
     45 H18        -4.1070    0.7560    1.8060 hc        1 MV1      0.057700
     46 H18A       -3.1650   -0.5560    2.6260 hc        1 MV1      0.057700
     47 H19        -3.8530    0.3580    4.8710 hc        1 MV1      0.052200
     48 H19A       -4.7940    1.6660    4.0500 hc        1 MV1      0.052200
     49 H20        -6.1960   -0.0730    2.8870 hc        1 MV1      0.046200
     50 H20A       -5.2550   -1.3810    3.7050 hc        1 MV1      0.046200
     51 H21        -5.9440   -0.4700    5.9510 hc        1 MV1      0.045200
     52 H21A       -6.8850    0.8370    5.1320 hc        1 MV1      0.045200
     53 H22        -7.3480   -2.2090    4.7870 hc        1 MV1      0.042700
     54 H22A       -8.2880   -0.9020    3.9690 hc        1 MV1      0.042700
     55 H23        -8.9750    0.0080    6.2130 hc        1 MV1      0.041700
     56 H23A       -8.0350   -1.2980    7.0310 hc        1 MV1      0.041700
     57 H24       -10.4050   -1.7270    5.0790 hc        1 MV1      0.039367
     58 H24A       -9.4620   -3.0380    5.8990 hc        1 MV1      0.039367
     59 H24B      -10.4540   -1.8840    6.8830 hc        1 MV1      0.039367
     60 HO5'        7.0590   -0.9210   -1.1300 ho        1 MV1      0.478000
     61 HN3         4.3340    0.5550   -0.2190 hn        1 MV1      0.474300
     62 H152        0.3010    1.9810    2.5370 hn        1 MV1      0.473800
@<TRIPOS>BOND
     1    1   11 1   
     2    1   12 1   
     3    1   22 2   
     4    2    9 1   
     5    2   10 1   
     6    2   25 1   
     7    2   61 1   
     8    3    4 1   
     9    3    6 1   
    10    3    7 1   
    11    3    8 1   
    12    4    5 1   
    13    4   26 1   
    14    4   27 1   
    15    5   28 1   
    16    6   29 1   
    17    6   30 1   
    18    6   31 1   
    19    7   32 1   
    20    7   33 1   
    21    7   34 1   
    22    8    9 1   
    23    8   23 1   
    24    8   35 1   
    25    9   24 2   
    26   10   11 1   
    27   10   36 1   
    28   10   37 1   
    29   11   38 1   
    30   11   39 1   
    31   12   13 1   
    32   12   40 1   
    33   12   62 1   
    34   13   14 1   
    35   13   41 1   
    36   13   42 1   
    37   14   15 1   
    38   14   43 1   
    39   14   44 1   
    40   15   16 1   
    41   15   45 1   
    42   15   46 1   
    43   16   17 1   
    44   16   47 1   
    45   16   48 1   
    46   17   18 1   
    47   17   49 1   
    48   17   50 1   
    49   18   19 1   
    50   18   51 1   
    51   18   52 1   
    52   19   20 1   
    53   19   53 1   
    54   19   54 1   
    55   20   21 1   
    56   20   55 1   
    57   20   56 1   
    58   21   57 1   
    59   21   58 1   
    60   21   59 1   
    61   23   60 1   
@<TRIPOS>SUBSTRUCTURE
     1 MV1         1 TEMP              0 ****  ****    0 ROOT
