@<TRIPOS>MOLECULE
MV1
   62    61     1     0     0
SMALL
bcc


@<TRIPOS>ATOM
      1 C           0.5580    2.0930    0.4380 c         1 MV1      0.536100
      2 N           3.6280    0.3070   -0.9520 n4        1 MV1     -0.684800
      3 C1          5.3460   -1.8470   -3.0040 c3        1 MV1     -0.084000
      4 C2          6.6900   -2.6060   -3.0620 c3        1 MV1      0.142400
      5 O2          6.4150   -3.8740   -3.6230 oh        1 MV1     -0.588800
      6 C3          4.8040   -1.7000   -4.4160 c3        1 MV1     -0.111600
      7 C4          4.3710   -2.6230   -2.1380 c3        1 MV1     -0.111600
      8 C5          5.6280   -0.4500   -2.4070 c3        1 MV1      0.098100
      9 C6          4.3320    0.3540   -2.3190 c         1 MV1      0.563100
     10 C8          2.4170    1.1570   -0.8850 c3        1 MV1      0.098800
     11 C9          1.7230    1.1380    0.4800 c3        1 MV1     -0.178400
     12 N15        -0.2770    2.2030    1.6810 n4        1 MV1     -0.675800
     13 C16        -1.4730    1.2890    1.6280 c3        1 MV1      0.109800
     14 C17        -2.3560    1.4290    2.8610 c3        1 MV1     -0.112400
     15 C18        -3.5370    0.4840    2.7310 c3        1 MV1     -0.078400
     16 C19        -4.4390    0.5970    3.9440 c3        1 MV1     -0.080400
     17 C20        -5.6220   -0.3420    3.8240 c3        1 MV1     -0.079400
     18 C21        -6.5250   -0.2340    5.0340 c3        1 MV1     -0.079400
     19 C22        -7.7090   -1.1700    4.9160 c3        1 MV1     -0.079400
     20 C23        -8.6140   -1.0640    6.1250 c3        1 MV1     -0.079400
     21 C24        -9.7940   -1.9930    6.0120 c3        1 MV1     -0.095100
     22 O25         0.2290    2.7920   -0.5080 o         1 MV1     -0.370100
     23 O5'         6.1600   -0.5040   -1.0940 oh        1 MV1     -0.640800
     24 O6'         3.7880    1.0120   -3.1820 o         1 MV1     -0.378100
     25 HN          4.3240    0.6010   -0.2510 hn        1 MV1      0.474300
     26 H2          7.4230   -2.0360   -3.6930 h1        1 MV1      0.038200
     27 H2A         7.1020   -2.7410   -2.0250 h1        1 MV1      0.038200
     28 HO2         7.2650   -4.2720   -3.8600 ho        1 MV1      0.439000
     29 H3          5.5160   -1.1240   -5.0560 hc        1 MV1      0.061867
     30 H3A         4.6770   -2.7180   -4.8650 hc        1 MV1      0.061867
     31 H3B         3.8160   -1.1810   -4.4170 hc        1 MV1      0.061867
     32 H4          4.3730   -3.6990   -2.4570 hc        1 MV1      0.061867
     33 H4A         3.3310   -2.2340   -2.2580 hc        1 MV1      0.061867
     34 H4B         4.6760   -2.5790   -1.0640 hc        1 MV1      0.061867
     35 H5          6.3140    0.1340   -3.0940 h1        1 MV1      0.128700
     36 H8          1.6980    0.8090   -1.6870 hx        1 MV1      0.138700
     37 H8A         2.7170    2.2170   -1.1490 hx        1 MV1      0.138700
     38 H9          1.3490    0.1040    0.7260 hc        1 MV1      0.117700
     39 H9A         2.4330    1.4560    1.2950 hc        1 MV1      0.117700
     40 HN15        0.2820    1.9840    2.5140 hn        1 MV1      0.473800
     41 H16        -2.0590    1.5550    0.7000 hx        1 MV1      0.110200
     42 H16A       -1.0930    0.2330    1.5390 hx        1 MV1      0.110200
     43 H17        -1.7800    1.1790    3.7920 hc        1 MV1      0.076200
     44 H17A       -2.7340    2.4820    2.9590 hc        1 MV1      0.076200
     45 H18        -3.1720   -0.5720    2.6320 hc        1 MV1      0.057700
     46 H18A       -4.1220    0.7310    1.8060 hc        1 MV1      0.057700
     47 H19        -3.8580    0.3520    4.8720 hc        1 MV1      0.052700
     48 H19A       -4.8060    1.6520    4.0470 hc        1 MV1      0.052700
     49 H20        -5.2580   -1.3980    3.7200 hc        1 MV1      0.046200
     50 H20A       -6.2050   -0.0980    2.8970 hc        1 MV1      0.046200
     51 H21        -5.9440   -0.4780    5.9620 hc        1 MV1      0.044700
     52 H21A       -6.8900    0.8220    5.1390 hc        1 MV1      0.044700
     53 H22        -8.2920   -0.9250    3.9890 hc        1 MV1      0.042700
     54 H22A       -7.3460   -2.2260    4.8100 hc        1 MV1      0.042700
     55 H23        -8.0300   -1.3070    7.0520 hc        1 MV1      0.041700
     56 H23A       -8.9750   -0.0070    6.2300 hc        1 MV1      0.041700
     57 H24       -10.4040   -1.7500    5.1080 hc        1 MV1      0.039367
     58 H24A      -10.4480   -1.8990    6.9130 hc        1 MV1      0.039367
     59 H24B       -9.4560   -3.0550    5.9310 hc        1 MV1      0.039367
     60 HO5'        7.0730   -0.8290   -1.1570 ho        1 MV1      0.478000
     61 HN3         3.4010   -0.6810   -0.7660 hn        1 MV1      0.474300
     62 H152       -0.6220    3.1740    1.7690 hn        1 MV1      0.473800
@<TRIPOS>BOND
     1    1   11 1   
     2    1   12 1   
     3    1   22 2   
     4    2    9 1   
     5    2   10 1   
     6    2   25 1   
     7    2   61 1   
     8    3    4 1   
     9    3    6 1   
    10    3    7 1   
    11    3    8 1   
    12    4    5 1   
    13    4   26 1   
    14    4   27 1   
    15    5   28 1   
    16    6   29 1   
    17    6   30 1   
    18    6   31 1   
    19    7   32 1   
    20    7   33 1   
    21    7   34 1   
    22    8    9 1   
    23    8   23 1   
    24    8   35 1   
    25    9   24 2   
    26   10   11 1   
    27   10   36 1   
    28   10   37 1   
    29   11   38 1   
    30   11   39 1   
    31   12   13 1   
    32   12   40 1   
    33   12   62 1   
    34   13   14 1   
    35   13   41 1   
    36   13   42 1   
    37   14   15 1   
    38   14   43 1   
    39   14   44 1   
    40   15   16 1   
    41   15   45 1   
    42   15   46 1   
    43   16   17 1   
    44   16   47 1   
    45   16   48 1   
    46   17   18 1   
    47   17   49 1   
    48   17   50 1   
    49   18   19 1   
    50   18   51 1   
    51   18   52 1   
    52   19   20 1   
    53   19   53 1   
    54   19   54 1   
    55   20   21 1   
    56   20   55 1   
    57   20   56 1   
    58   21   57 1   
    59   21   58 1   
    60   21   59 1   
    61   23   60 1   
@<TRIPOS>SUBSTRUCTURE
     1 MV1         1 TEMP              0 ****  ****    0 ROOT
