@<TRIPOS>MOLECULE
MV1
   60    59     1     0     0
SMALL
bcc


@<TRIPOS>ATOM
      1 C           0.1060   -1.0540    1.9930 c         1 MV1      0.657100
      2 N          -3.5820   -1.2780    1.0830 n         1 MV1     -0.564900
      3 C1         -6.0140    0.8940   -0.8790 c3        1 MV1     -0.062000
      4 C2         -7.4900    1.2140   -0.5760 c3        1 MV1      0.133400
      5 O2         -7.8920    2.2760   -1.4270 oh        1 MV1     -0.598800
      6 C3         -5.8960    0.4710   -2.3340 c3        1 MV1     -0.095600
      7 C4         -5.1670    2.1270   -0.6260 c3        1 MV1     -0.095600
      8 C5         -5.6060   -0.2730    0.0430 c3        1 MV1      0.075100
      9 C6         -4.1040   -0.6080   -0.0060 c         1 MV1      0.628100
     10 C8         -2.1920   -1.6230    1.1790 c3        1 MV1      0.096000
     11 C9         -1.3260   -0.5660    1.8710 c3        1 MV1     -0.186400
     12 N15         0.8330   -1.1850    0.8270 n         1 MV1     -0.566900
     13 C16         2.2290   -1.5240    0.8160 c3        1 MV1      0.084000
     14 C17         3.1530   -0.3880    0.3700 c3        1 MV1     -0.104400
     15 C18         4.5870   -0.8700    0.3440 c3        1 MV1     -0.077400
     16 C19         5.5260    0.2340   -0.0930 c3        1 MV1     -0.078400
     17 C20         6.9620   -0.2450   -0.1190 c3        1 MV1     -0.079400
     18 C21         7.9010    0.8580   -0.5570 c3        1 MV1     -0.079400
     19 C22         9.3360    0.3790   -0.5840 c3        1 MV1     -0.079400
     20 C23        10.2770    1.4810   -1.0220 c3        1 MV1     -0.080400
     21 C24        11.7080    1.0090   -1.0490 c3        1 MV1     -0.092100
     22 O25         0.5870   -1.3520    3.1040 o         1 MV1     -0.608100
     23 O5'        -6.0330   -0.0670    1.3800 oh        1 MV1     -0.598800
     24 O6'        -3.3950   -0.3680   -1.0030 o         1 MV1     -0.609100
     25 HN         -4.1380   -1.3570    1.9020 hn        1 MV1      0.323500
     26 H2         -8.1210    0.3050   -0.7670 h1        1 MV1      0.028200
     27 H2A        -7.6090    1.5250    0.4960 h1        1 MV1      0.028200
     28 HO2        -8.8300    2.4180   -1.2570 ho        1 MV1      0.403000
     29 H3         -6.2960    1.2840   -2.9880 hc        1 MV1      0.050033
     30 H3A        -4.8280    0.2810   -2.6020 hc        1 MV1      0.050033
     31 H3B        -6.4870   -0.4580   -2.5190 hc        1 MV1      0.050033
     32 H4         -5.2320    2.4430    0.4430 hc        1 MV1      0.050033
     33 H4A        -4.0990    1.9230   -0.8830 hc        1 MV1      0.050033
     34 H4B        -5.5380    2.9680   -1.2620 hc        1 MV1      0.050033
     35 H5         -6.1580   -1.2070   -0.2780 h1        1 MV1      0.098700
     36 H8         -2.1130   -2.5880    1.7580 h1        1 MV1      0.069200
     37 H8A        -1.7990   -1.7980    0.1360 h1        1 MV1      0.069200
     38 H9         -1.7030   -0.3660    2.9080 hc        1 MV1      0.073700
     39 H9A        -1.3560    0.3980    1.2990 hc        1 MV1      0.073700
     40 HN15        0.4480   -0.8290   -0.0150 hn        1 MV1      0.310500
     41 H16         2.5300   -1.8580    1.8500 h1        1 MV1      0.062200
     42 H16A        2.3680   -2.3960    0.1120 h1        1 MV1      0.062200
     43 H17         2.8590   -0.0270   -0.6510 hc        1 MV1      0.045200
     44 H17A        3.0590    0.4810    1.0720 hc        1 MV1      0.045200
     45 H18         4.8810   -1.2300    1.3660 hc        1 MV1      0.043200
     46 H18A        4.6810   -1.7420   -0.3550 hc        1 MV1      0.043200
     47 H19         5.2320    0.5960   -1.1140 hc        1 MV1      0.040700
     48 H19A        5.4330    1.1070    0.6060 hc        1 MV1      0.040700
     49 H20         7.2560   -0.6070    0.9010 hc        1 MV1      0.040200
     50 H20A        7.0540   -1.1180   -0.8190 hc        1 MV1      0.040200
     51 H21         7.6060    1.2200   -1.5780 hc        1 MV1      0.039200
     52 H21A        7.8080    1.7300    0.1420 hc        1 MV1      0.039200
     53 H22         9.6310    0.0170    0.4360 hc        1 MV1      0.039700
     54 H22A        9.4290   -0.4940   -1.2830 hc        1 MV1      0.039700
     55 H23         9.9800    1.8430   -2.0420 hc        1 MV1      0.038700
     56 H23A       10.1820    2.3530   -0.3220 hc        1 MV1      0.038700
     57 H24        12.3840    1.8360   -1.3750 hc        1 MV1      0.032700
     58 H24A       12.0300    0.6670   -0.0360 hc        1 MV1      0.032700
     59 H24B       11.8280    0.1550   -1.7600 hc        1 MV1      0.032700
     60 HO5'       -5.7270    0.8070    1.6540 ho        1 MV1      0.410000
@<TRIPOS>BOND
     1    1   11 1   
     2    1   12 1   
     3    1   22 2   
     4    2    9 1   
     5    2   10 1   
     6    2   25 1   
     7    3    4 1   
     8    3    6 1   
     9    3    7 1   
    10    3    8 1   
    11    4    5 1   
    12    4   26 1   
    13    4   27 1   
    14    5   28 1   
    15    6   29 1   
    16    6   30 1   
    17    6   31 1   
    18    7   32 1   
    19    7   33 1   
    20    7   34 1   
    21    8    9 1   
    22    8   23 1   
    23    8   35 1   
    24    9   24 2   
    25   10   11 1   
    26   10   36 1   
    27   10   37 1   
    28   11   38 1   
    29   11   39 1   
    30   12   13 1   
    31   12   40 1   
    32   13   14 1   
    33   13   41 1   
    34   13   42 1   
    35   14   15 1   
    36   14   43 1   
    37   14   44 1   
    38   15   16 1   
    39   15   45 1   
    40   15   46 1   
    41   16   17 1   
    42   16   47 1   
    43   16   48 1   
    44   17   18 1   
    45   17   49 1   
    46   17   50 1   
    47   18   19 1   
    48   18   51 1   
    49   18   52 1   
    50   19   20 1   
    51   19   53 1   
    52   19   54 1   
    53   20   21 1   
    54   20   55 1   
    55   20   56 1   
    56   21   57 1   
    57   21   58 1   
    58   21   59 1   
    59   23   60 1   
@<TRIPOS>SUBSTRUCTURE
     1 MV1         1 TEMP              0 ****  ****    0 ROOT
