@<TRIPOS>MOLECULE
MV1
   62    61     1     0     0
SMALL
bcc


@<TRIPOS>ATOM
      1 C           0.1080   -2.2380    0.2390 c         1 MV1      0.536100
      2 N           3.0280   -0.4300   -1.4220 ny        1 MV1     -0.684800
      3 C1          6.0930   -0.3470   -2.9670 c3        1 MV1     -0.085000
      4 C2          7.2710    0.6190   -3.2240 c3        1 MV1      0.142400
      5 O2          8.4530   -0.1480   -3.1230 oh        1 MV1     -0.588800
      6 C3          6.1140   -1.4380   -4.0260 c3        1 MV1     -0.111600
      7 C4          6.2330   -0.9480   -1.5810 c3        1 MV1     -0.111600
      8 C5          4.7870    0.4700   -3.0890 c3        1 MV1      0.098100
      9 C6          3.5780   -0.4340   -2.8580 c         1 MV1      0.563100
     10 C8          1.8480   -1.3070   -1.2410 c3        1 MV1      0.098800
     11 C9          1.2580   -1.2660    0.1720 c3        1 MV1     -0.178400
     12 N15        -0.6370   -2.3210    1.5390 ny        1 MV1     -0.675800
     13 C16        -1.8400   -1.4140    1.5470 c3        1 MV1      0.109800
     14 C17        -2.6340   -1.5260    2.8420 c3        1 MV1     -0.112400
     15 C18        -3.8260   -0.5880    2.7720 c3        1 MV1     -0.078400
     16 C19        -4.6390   -0.6730    4.0480 c3        1 MV1     -0.080400
     17 C20        -5.8320    0.2600    3.9880 c3        1 MV1     -0.079400
     18 C21        -6.6470    0.1790    5.2610 c3        1 MV1     -0.079400
     19 C22        -7.8400    1.1100    5.2040 c3        1 MV1     -0.079400
     20 C23        -8.6570    1.0320    6.4760 c3        1 MV1     -0.079400
     21 C24        -9.8460    1.9560    6.4240 c3        1 MV1     -0.095100
     22 O25        -0.2740   -2.9700   -0.6610 o         1 MV1     -0.370100
     23 O5'         4.6960    1.5170   -2.1370 oh        1 MV1     -0.640800
     24 O6'         3.0060   -1.1520   -3.6530 o         1 MV1     -0.378100
     25 HN          3.8020   -0.7160   -0.8050 hn        1 MV1      0.474300
     26 H2          7.2840    1.4270   -2.4430 h1        1 MV1      0.037700
     27 H2A         7.1730    1.0760   -4.2450 h1        1 MV1      0.037700
     28 HO2         9.1740    0.3880   -3.4850 ho        1 MV1      0.439000
     29 H3          5.2980   -2.1800   -3.8570 hc        1 MV1      0.061867
     30 H3A         6.0010   -1.0010   -5.0470 hc        1 MV1      0.061867
     31 H3B         7.0990   -1.9700   -3.9800 hc        1 MV1      0.061867
     32 H4          6.0370   -0.1780   -0.7950 hc        1 MV1      0.061867
     33 H4A         7.2820   -1.3230   -1.4480 hc        1 MV1      0.061867
     34 H4B         5.5420   -1.8150   -1.4480 hc        1 MV1      0.061867
     35 H5          4.6800    0.8760   -4.1410 h1        1 MV1      0.128700
     36 H8          2.1540   -2.3660   -1.5010 hx        1 MV1      0.139200
     37 H8A         1.0610   -0.9980   -1.9940 hx        1 MV1      0.139200
     38 H9          0.8890   -0.2320    0.4220 hc        1 MV1      0.117700
     39 H9A         2.0320   -1.5560    0.9380 hc        1 MV1      0.117700
     40 HN15       -0.0240   -2.0780    2.3250 hn        1 MV1      0.473800
     41 H16        -1.4740   -0.3580    1.4050 hx        1 MV1      0.110200
     42 H16A       -2.4890   -1.7060    0.6690 hx        1 MV1      0.110200
     43 H17        -1.9950   -1.2510    3.7240 hc        1 MV1      0.076700
     44 H17A       -2.9990   -2.5770    2.9930 hc        1 MV1      0.076700
     45 H18        -3.4740    0.4660    2.6200 hc        1 MV1      0.057700
     46 H18A       -4.4740   -0.8600    1.8970 hc        1 MV1      0.057700
     47 H19        -3.9960   -0.4040    4.9270 hc        1 MV1      0.052200
     48 H19A       -4.9940   -1.7260    4.2020 hc        1 MV1      0.052200
     49 H20        -5.4800    1.3140    3.8330 hc        1 MV1      0.046200
     50 H20A       -6.4780   -0.0090    3.1110 hc        1 MV1      0.046200
     51 H21        -6.0030    0.4480    6.1400 hc        1 MV1      0.045200
     52 H21A       -7.0000   -0.8740    5.4180 hc        1 MV1      0.045200
     53 H22        -8.4860    0.8420    4.3270 hc        1 MV1      0.042700
     54 H22A       -7.4890    2.1640    5.0480 hc        1 MV1      0.042700
     55 H23        -8.0100    1.2990    7.3540 hc        1 MV1      0.041700
     56 H23A       -9.0070   -0.0230    6.6320 hc        1 MV1      0.041700
     57 H24       -10.5170    1.6900    5.5720 hc        1 MV1      0.039367
     58 H24A      -10.4340    1.8830    7.3710 hc        1 MV1      0.039367
     59 H24B       -9.5180    3.0160    6.2950 hc        1 MV1      0.039367
     60 HO5'        5.3420    2.1980   -2.3820 ho        1 MV1      0.478000
     61 HN3         2.7990    0.5490   -1.1970 hn        1 MV1      0.474300
     62 H152       -0.9690   -3.2910    1.6750 hn        1 MV1      0.473800
@<TRIPOS>BOND
     1    1   11 1   
     2    1   12 1   
     3    1   22 2   
     4    2    9 1   
     5    2   10 1   
     6    2   25 1   
     7    2   61 1   
     8    3    4 1   
     9    3    6 1   
    10    3    7 1   
    11    3    8 1   
    12    4    5 1   
    13    4   26 1   
    14    4   27 1   
    15    5   28 1   
    16    6   29 1   
    17    6   30 1   
    18    6   31 1   
    19    7   32 1   
    20    7   33 1   
    21    7   34 1   
    22    8    9 1   
    23    8   23 1   
    24    8   35 1   
    25    9   24 2   
    26   10   11 1   
    27   10   36 1   
    28   10   37 1   
    29   11   38 1   
    30   11   39 1   
    31   12   13 1   
    32   12   40 1   
    33   12   62 1   
    34   13   14 1   
    35   13   41 1   
    36   13   42 1   
    37   14   15 1   
    38   14   43 1   
    39   14   44 1   
    40   15   16 1   
    41   15   45 1   
    42   15   46 1   
    43   16   17 1   
    44   16   47 1   
    45   16   48 1   
    46   17   18 1   
    47   17   49 1   
    48   17   50 1   
    49   18   19 1   
    50   18   51 1   
    51   18   52 1   
    52   19   20 1   
    53   19   53 1   
    54   19   54 1   
    55   20   21 1   
    56   20   55 1   
    57   20   56 1   
    58   21   57 1   
    59   21   58 1   
    60   21   59 1   
    61   23   60 1   
@<TRIPOS>SUBSTRUCTURE
     1 MV1         1 TEMP              0 ****  ****    0 ROOT
