@<TRIPOS>MOLECULE
MV2
   34    33     1     0     0
SMALL
bcc


@<TRIPOS>ATOM
      1 C          -0.0600    0.0670   -0.0890 c3        1 MV2      0.142400
      2 N          -2.4410   -0.0360    2.9030 n4        1 MV2     -0.669800
      3 O           1.3420    0.2560   -0.0970 oh        1 MV2     -0.590800
      4 C1         -4.9560    1.1900    4.8980 c3        1 MV2     -0.080000
      5 C2         -5.4220    1.1170    6.3660 c3        1 MV2      0.138400
      6 O2         -5.9630    2.3820    6.6910 oh        1 MV2     -0.587800
      7 C3         -6.1380    1.5730    4.0230 c3        1 MV2     -0.108600
      8 C4         -3.8490    2.2200    4.7760 c3        1 MV2     -0.108600
      9 C5         -4.4550   -0.2170    4.4990 c3        1 MV2      0.086100
     10 O5         -3.3900   -0.6730    5.3180 oh        1 MV2     -0.629800
     11 C6         -3.9320   -0.2100    3.0640 c         1 MV2      0.549100
     12 O6         -4.6000   -0.3300    2.0510 o         1 MV2     -0.398100
     13 C8         -1.9730   -0.0670    1.4880 c3        1 MV2      0.105800
     14 C9         -0.4680    0.1110    1.3800 c3        1 MV2     -0.120400
     15 H          -0.3250   -0.9250   -0.5430 h1        1 MV2      0.038700
     16 HA         -0.5690    0.8860   -0.6650 h1        1 MV2      0.038700
     17 HN         -2.1800    0.8580    3.3440 hn        1 MV2      0.472300
     18 HO          1.6270    0.2240   -1.0200 ho        1 MV2      0.429000
     19 H2         -4.5470    0.8980    7.0380 h1        1 MV2      0.033200
     20 H2A        -6.1990    0.3140    6.4820 h1        1 MV2      0.033200
     21 HO2        -6.3330    2.3100    7.5810 ho        1 MV2      0.428000
     22 H3         -6.9620    0.8260    4.1230 hc        1 MV2      0.060367
     23 H3A        -6.5270    2.5710    4.3500 hc        1 MV2      0.060367
     24 H3B        -5.8380    1.6380    2.9490 hc        1 MV2      0.060367
     25 H4         -2.9150    1.8540    5.2690 hc        1 MV2      0.060367
     26 H4A        -3.6450    2.4630    3.7050 hc        1 MV2      0.060367
     27 H4B        -4.1690    3.1650    5.2880 hc        1 MV2      0.060367
     28 H5         -5.3160   -0.9500    4.5230 h1        1 MV2      0.113700
     29 HO5        -3.7570   -0.8770    6.1910 ho        1 MV2      0.464000
     30 H8         -2.2880   -1.0560    1.0430 hx        1 MV2      0.112200
     31 H8A        -2.5100    0.7530    0.9290 hx        1 MV2      0.112200
     32 H9          0.0790   -0.7010    1.9290 hc        1 MV2      0.082200
     33 H9A        -0.1420    1.0940    1.8140 hc        1 MV2      0.082200
     34 HN3        -1.9810   -0.7850    3.4430 hn        1 MV2      0.472300
@<TRIPOS>BOND
     1    1    3 1   
     2    1   14 1   
     3    1   15 1   
     4    1   16 1   
     5    2   11 1   
     6    2   13 1   
     7    2   17 1   
     8    2   34 1   
     9    3   18 1   
    10    4    5 1   
    11    4    7 1   
    12    4    8 1   
    13    4    9 1   
    14    5    6 1   
    15    5   19 1   
    16    5   20 1   
    17    6   21 1   
    18    7   22 1   
    19    7   23 1   
    20    7   24 1   
    21    8   25 1   
    22    8   26 1   
    23    8   27 1   
    24    9   10 1   
    25    9   11 1   
    26    9   28 1   
    27   10   29 1   
    28   11   12 2   
    29   13   14 1   
    30   13   30 1   
    31   13   31 1   
    32   14   32 1   
    33   14   33 1   
@<TRIPOS>SUBSTRUCTURE
     1 MV2         1 TEMP              0 ****  ****    0 ROOT
