@<TRIPOS>MOLECULE
MV2
   33    32     1     0     0
SMALL
bcc


@<TRIPOS>ATOM
      1 C          -4.7180   -0.1910    0.4210 c3        1 MV2      0.133400
      2 N          -1.1010    0.0140   -0.6720 n         1 MV2     -0.563900
      3 O          -5.5720    0.7910    0.9870 oh        1 MV2     -0.601800
      4 C1          2.3250   -0.0540    0.2530 c3        1 MV2     -0.070000
      5 C2          3.5750    0.7360   -0.1730 c3        1 MV2      0.135400
      6 O2          4.4440    0.8180    0.9450 oh        1 MV2     -0.598800
      7 C3          2.7490   -1.4500    0.6790 c3        1 MV2     -0.093100
      8 C4          1.6420    0.6530    1.4110 c3        1 MV2     -0.093100
      9 C5          1.3890   -0.1420   -0.9710 c3        1 MV2      0.076100
     10 O5          1.2450    1.0990   -1.6370 oh        1 MV2     -0.596800
     11 C6          0.0320   -0.7670   -0.6020 c         1 MV2      0.634100
     12 O6         -0.0310   -1.9630   -0.2510 o         1 MV2     -0.611100
     13 C8         -2.4150   -0.5260   -0.4480 c3        1 MV2      0.089000
     14 C9         -3.3650    0.4690    0.2160 c3        1 MV2     -0.099400
     15 H          -4.6280   -1.0700    1.1150 h1        1 MV2      0.024700
     16 HA         -5.1400   -0.5440   -0.5580 h1        1 MV2      0.024700
     17 HN         -1.0440    0.9020   -1.1110 hn        1 MV2      0.313500
     18 HO         -6.4190    0.3590    1.1470 ho        1 MV2      0.402000
     19 H2          4.0830    0.2060   -1.0230 h1        1 MV2      0.027700
     20 H2A         3.2910    1.7710   -0.5030 h1        1 MV2      0.027700
     21 HO2         5.2540    1.2330    0.6280 ho        1 MV2      0.403000
     22 H3          3.4780   -1.3740    1.5230 hc        1 MV2      0.049533
     23 H3A         1.8640   -2.0460    1.0100 hc        1 MV2      0.049533
     24 H3B         3.2400   -1.9830   -0.1710 hc        1 MV2      0.049533
     25 H4          1.3130    1.6780    1.1150 hc        1 MV2      0.049533
     26 H4A         0.7510    0.0700    1.7480 hc        1 MV2      0.049533
     27 H4B         2.3580    0.7460    2.2640 hc        1 MV2      0.049533
     28 H5          1.8510   -0.8190   -1.7510 h1        1 MV2      0.104700
     29 HO5         1.1070    1.7830   -0.9680 ho        1 MV2      0.406000
     30 H8         -2.8620   -0.8510   -1.4330 h1        1 MV2      0.055700
     31 H8A        -2.3180   -1.4440    0.2020 h1        1 MV2      0.055700
     32 H9         -3.4940    1.3840   -0.4180 hc        1 MV2      0.060200
     33 H9A        -2.9630    0.8030    1.2080 hc        1 MV2      0.060200
@<TRIPOS>BOND
     1    1    3 1   
     2    1   14 1   
     3    1   15 1   
     4    1   16 1   
     5    2   11 1   
     6    2   13 1   
     7    2   17 1   
     8    3   18 1   
     9    4    5 1   
    10    4    7 1   
    11    4    8 1   
    12    4    9 1   
    13    5    6 1   
    14    5   19 1   
    15    5   20 1   
    16    6   21 1   
    17    7   22 1   
    18    7   23 1   
    19    7   24 1   
    20    8   25 1   
    21    8   26 1   
    22    8   27 1   
    23    9   10 1   
    24    9   11 1   
    25    9   28 1   
    26   10   29 1   
    27   11   12 2   
    28   13   14 1   
    29   13   30 1   
    30   13   31 1   
    31   14   32 1   
    32   14   33 1   
@<TRIPOS>SUBSTRUCTURE
     1 MV2         1 TEMP              0 ****  ****    0 ROOT
