@<TRIPOS>MOLECULE
MV2
   34    33     1     0     0
SMALL
bcc


@<TRIPOS>ATOM
      1 C          -0.0580    0.0780   -0.0880 c3        1 MV2      0.142400
      2 N          -2.4460   -0.0380    2.8970 ny        1 MV2     -0.669800
      3 O           1.3470    0.2530   -0.0900 oh        1 MV2     -0.590800
      4 C1         -4.9550    1.1880    4.9000 c3        1 MV2     -0.080000
      5 C2         -5.4250    1.1020    6.3670 c3        1 MV2      0.138400
      6 O2         -5.9550    2.3690    6.7050 oh        1 MV2     -0.587800
      7 C3         -6.1310    1.5930    4.0270 c3        1 MV2     -0.108600
      8 C4         -3.8370    2.2090    4.7930 c3        1 MV2     -0.108600
      9 C5         -4.4660   -0.2180    4.4870 c3        1 MV2      0.086100
     10 O5         -3.4070   -0.6950    5.3030 oh        1 MV2     -0.629800
     11 C6         -3.9400   -0.2000    3.0520 c         1 MV2      0.549100
     12 O6         -4.6060   -0.3010    2.0370 o         1 MV2     -0.398100
     13 C8         -1.9760   -0.0570    1.4820 c3        1 MV2      0.105800
     14 C9         -0.4680    0.1080    1.3810 c3        1 MV2     -0.120400
     15 H          -0.3310   -0.9070   -0.5550 h1        1 MV2      0.038700
     16 HA         -0.5570    0.9080   -0.6560 h1        1 MV2      0.038700
     17 HN         -2.1780    0.8490    3.3480 hn        1 MV2      0.472300
     18 HO          1.6330    0.2290   -1.0130 ho        1 MV2      0.429000
     19 H2         -4.5540    0.8670    7.0370 h1        1 MV2      0.033200
     20 H2A        -6.2090    0.3050    6.4710 h1        1 MV2      0.033200
     21 HO2        -6.3270    2.2900    7.5930 ho        1 MV2      0.428000
     22 H3         -6.5110    2.5900    4.3650 hc        1 MV2      0.060367
     23 H3A        -6.9620    0.8520    4.1170 hc        1 MV2      0.060367
     24 H3B        -5.8280    1.6680    2.9550 hc        1 MV2      0.060367
     25 H4         -4.1500    3.1510    5.3160 hc        1 MV2      0.060367
     26 H4A        -2.9080    1.8280    5.2840 hc        1 MV2      0.060367
     27 H4B        -3.6280    2.4630    3.7260 hc        1 MV2      0.060367
     28 H5         -5.3330   -0.9440    4.5000 h1        1 MV2      0.113700
     29 HO5        -3.7780   -0.9050    6.1720 ho        1 MV2      0.464000
     30 H8         -2.2980   -1.0370    1.0250 hx        1 MV2      0.112200
     31 H8A        -2.5030    0.7750    0.9320 hx        1 MV2      0.112200
     32 H9          0.0700   -0.7150    1.9210 hc        1 MV2      0.082200
     33 H9A        -0.1340    1.0830    1.8260 hc        1 MV2      0.082200
     34 HN3        -1.9950   -0.7970    3.4290 hn        1 MV2      0.472300
@<TRIPOS>BOND
     1    1    3 1   
     2    1   14 1   
     3    1   15 1   
     4    1   16 1   
     5    2   11 1   
     6    2   13 1   
     7    2   17 1   
     8    2   34 1   
     9    3   18 1   
    10    4    5 1   
    11    4    7 1   
    12    4    8 1   
    13    4    9 1   
    14    5    6 1   
    15    5   19 1   
    16    5   20 1   
    17    6   21 1   
    18    7   22 1   
    19    7   23 1   
    20    7   24 1   
    21    8   25 1   
    22    8   26 1   
    23    8   27 1   
    24    9   10 1   
    25    9   11 1   
    26    9   28 1   
    27   10   29 1   
    28   11   12 2   
    29   13   14 1   
    30   13   30 1   
    31   13   31 1   
    32   14   32 1   
    33   14   33 1   
@<TRIPOS>SUBSTRUCTURE
     1 MV2         1 TEMP              0 ****  ****    0 ROOT
