@<TRIPOS>MOLECULE
MV2
   34    33     1     0     0
SMALL
bcc


@<TRIPOS>ATOM
      1 C          -0.0600    0.0980   -0.0950 c3        1 MV2      0.142400
      2 N          -2.4450   -0.0320    2.8930 n4        1 MV2     -0.669800
      3 O           1.3440    0.2770   -0.0990 oh        1 MV2     -0.590800
      4 C1         -4.9550    1.1770    4.9050 c3        1 MV2     -0.080000
      5 C2         -5.4200    1.0830    6.3720 c3        1 MV2      0.138400
      6 O2         -5.9550    2.3460    6.7170 oh        1 MV2     -0.587800
      7 C3         -6.1350    1.5810    4.0370 c3        1 MV2     -0.108600
      8 C4         -3.8410    2.2030    4.8000 c3        1 MV2     -0.108600
      9 C5         -4.4620   -0.2260    4.4840 c3        1 MV2      0.086100
     10 O5         -3.4010   -0.7030    5.2960 oh        1 MV2     -0.629800
     11 C6         -3.9380   -0.1990    3.0490 c         1 MV2      0.549100
     12 O6         -4.6050   -0.2960    2.0340 o         1 MV2     -0.398100
     13 C8         -1.9760   -0.0450    1.4770 c3        1 MV2      0.105800
     14 C9         -0.4690    0.1250    1.3740 c3        1 MV2     -0.120400
     15 H          -0.3320   -0.8850   -0.5640 h1        1 MV2      0.038700
     16 HA         -0.5620    0.9290   -0.6610 h1        1 MV2      0.038700
     17 HN         -1.9900   -0.7910    3.4220 hn        1 MV2      0.472300
     18 HO          1.6290    0.2560   -1.0220 ho        1 MV2      0.429000
     19 H2         -4.5470    0.8480    7.0400 h1        1 MV2      0.033200
     20 H2A        -6.2020    0.2830    6.4750 h1        1 MV2      0.033200
     21 HO2        -6.3240    2.2620    7.6070 ho        1 MV2      0.428000
     22 H3         -6.5170    2.5760    4.3800 hc        1 MV2      0.060200
     23 H3A        -6.9630    0.8380    4.1260 hc        1 MV2      0.060200
     24 H3B        -5.8350    1.6610    2.9640 hc        1 MV2      0.060200
     25 H4         -4.1560    3.1410    5.3260 hc        1 MV2      0.060200
     26 H4A        -3.6360    2.4610    3.7330 hc        1 MV2      0.060200
     27 H4B        -2.9100    1.8240    5.2870 hc        1 MV2      0.060200
     28 H5         -5.3270   -0.9540    4.4950 h1        1 MV2      0.113700
     29 HO5        -3.7700   -0.9190    6.1650 ho        1 MV2      0.464000
     30 H8         -2.5070    0.7870    0.9300 hx        1 MV2      0.112200
     31 H8A        -2.2960   -1.0250    1.0180 hx        1 MV2      0.112200
     32 H9         -0.1370    1.0990    1.8220 hc        1 MV2      0.082200
     33 H9A         0.0720   -0.6980    1.9130 hc        1 MV2      0.082200
     34 HN3        -2.1790    0.8550    3.3460 hn        1 MV2      0.472300
@<TRIPOS>BOND
     1    1    3 1   
     2    1   14 1   
     3    1   15 1   
     4    1   16 1   
     5    2   11 1   
     6    2   13 1   
     7    2   17 1   
     8    2   34 1   
     9    3   18 1   
    10    4    5 1   
    11    4    7 1   
    12    4    8 1   
    13    4    9 1   
    14    5    6 1   
    15    5   19 1   
    16    5   20 1   
    17    6   21 1   
    18    7   22 1   
    19    7   23 1   
    20    7   24 1   
    21    8   25 1   
    22    8   26 1   
    23    8   27 1   
    24    9   10 1   
    25    9   11 1   
    26    9   28 1   
    27   10   29 1   
    28   11   12 2   
    29   13   14 1   
    30   13   30 1   
    31   13   31 1   
    32   14   32 1   
    33   14   33 1   
@<TRIPOS>SUBSTRUCTURE
     1 MV2         1 TEMP              0 ****  ****    0 ROOT
