@<TRIPOS>MOLECULE
MVA
   21    20     1     0     0
SMALL
bcc


@<TRIPOS>ATOM
      1 N          -0.1110   -1.7020   -0.0410 n3        1 MVA     -0.796200
      2 CN         -1.2110   -2.2780    0.6840 c3        1 MVA      0.149100
      3 CA          0.1530   -0.3050    0.2950 c3        1 MVA      0.049500
      4 CB          1.3970    0.2510   -0.4240 c3        1 MVA     -0.059700
      5 CG1         1.7200    1.6230    0.1350 c3        1 MVA     -0.084600
      6 CG2         2.6090   -0.6500   -0.3000 c3        1 MVA     -0.084600
      7 C          -1.0870    0.6060   -0.0270 c         1 MVA      0.925600
      8 O          -1.1050    1.2600   -1.1040 o         1 MVA     -0.840300
      9 OXT        -1.9950    0.6490    0.8520 o         1 MVA     -0.840300
     10 H           0.7190   -2.2410    0.1380 hn        1 MVA      0.312800
     11 HN1        -0.9980   -2.4440    1.7780 h1        1 MVA      0.023033
     12 HN2        -2.1050   -1.5990    0.6080 h1        1 MVA      0.023033
     13 HN3        -1.4540   -3.2730    0.2250 h1        1 MVA      0.023033
     14 HA          0.3340   -0.2040    1.4100 h1        1 MVA     -0.002300
     15 HB          1.1270    0.3670   -1.5120 hc        1 MVA      0.081700
     16 HG11        2.5720    2.0790   -0.4240 hc        1 MVA      0.019700
     17 HG12        0.8230    2.2840    0.0300 hc        1 MVA      0.019700
     18 HG13        1.9990    1.5580    1.2140 hc        1 MVA      0.019700
     19 HG21        2.5110   -1.5490   -0.9550 hc        1 MVA      0.019700
     20 HG22        3.5320   -0.1020   -0.6110 hc        1 MVA      0.019700
     21 HG23        2.7440   -0.9900    0.7550 hc        1 MVA      0.019700
@<TRIPOS>BOND
     1    1    2 1   
     2    1    3 1   
     3    1   10 1   
     4    2   11 1   
     5    2   12 1   
     6    2   13 1   
     7    3    4 1   
     8    3    7 1   
     9    3   14 1   
    10    4    5 1   
    11    4    6 1   
    12    4   15 1   
    13    5   16 1   
    14    5   17 1   
    15    5   18 1   
    16    6   19 1   
    17    6   20 1   
    18    6   21 1   
    19    7    8 1   
    20    7    9 1   
@<TRIPOS>SUBSTRUCTURE
     1 MVA         1 TEMP              0 ****  ****    0 ROOT
