@<TRIPOS>MOLECULE
MVB
   48    50     1     0     0
SMALL
bcc


@<TRIPOS>ATOM
      1 O1          0.1550   -0.0210    0.3360 oh        1 MVB     -0.589800
      2 C1          3.5630   -0.7150    1.6840 c         1 MVB      0.722600
      3 O2          4.3220   -0.6860    2.6560 o         1 MVB     -0.585500
      4 O3          4.1250   -1.3540    0.6120 os        1 MVB     -0.413900
      5 O5          7.9440   -1.3960   -1.7810 oh        1 MVB     -0.597800
      6 C7          3.5010   -1.2430   -0.6800 c3        1 MVB      0.148100
      7 C8          1.9860   -1.1910   -0.5980 c3        1 MVB     -0.116400
      8 C9          1.5740   -0.0210    0.2850 c3        1 MVB      0.143100
      9 C10         2.1630   -0.1910    1.6790 c3        1 MVB     -0.208400
     10 C11         4.8080   -3.1290   -4.7080 c3        1 MVB     -0.086100
     11 C12         3.9700   -2.4580   -1.4770 c3        1 MVB     -0.080400
     12 C13         5.4070   -2.2890   -1.9280 c3        1 MVB     -0.075400
     13 C14         5.9920   -3.5720   -2.4840 c3        1 MVB     -0.037700
     14 C15         5.1600   -4.1520   -3.6430 c3        1 MVB     -0.035500
     15 C16         5.8450   -5.3110   -4.2910 c2        1 MVB     -0.155200
     16 C17         7.1280   -5.6320   -4.0750 ce        1 MVB     -0.134000
     17 C18         7.9380   -4.8640   -3.1370 ce        1 MVB     -0.085200
     18 C19         7.4510   -3.4490   -2.9530 c3        1 MVB     -0.015500
     19 C20         8.4650   -2.6750   -2.1040 c3        1 MVB      0.150100
     20 C21         8.8950   -3.4670   -0.8750 c3        1 MVB     -0.114400
     21 C22         9.6390   -4.7100   -1.3240 c3        1 MVB     -0.042200
     22 C23         8.9290   -5.4150   -2.4180 c2        1 MVB     -0.161200
     23 HO1        -0.1050    0.7280    0.8850 ho        1 MVB      0.405000
     24 H7          3.8960   -0.2940   -1.1440 h1        1 MVB      0.058700
     25 H81         1.5810   -2.1450   -0.1730 hc        1 MVB      0.074700
     26 H82         1.5540   -1.0610   -1.6220 hc        1 MVB      0.074700
     27 H9          1.9320    0.9480   -0.1670 h1        1 MVB      0.043700
     28 H101        2.1470    0.7860    2.2310 hc        1 MVB      0.090700
     29 H102        1.5320   -0.9180    2.2610 hc        1 MVB      0.090700
     30 H111        4.1530   -2.3300   -4.2860 hc        1 MVB      0.036367
     31 H112        4.2610   -3.6250   -5.5460 hc        1 MVB      0.036367
     32 H113        5.7260   -2.6480   -5.1220 hc        1 MVB      0.036367
     33 H121        3.2880   -2.5820   -2.3590 hc        1 MVB      0.053700
     34 H122        3.8760   -3.3740   -0.8370 hc        1 MVB      0.053700
     35 H131        5.4890   -1.4680   -2.6850 hc        1 MVB      0.065700
     36 H132        6.0120   -1.9770   -1.0320 hc        1 MVB      0.065700
     37 H14         5.9690   -4.3330   -1.6490 hc        1 MVB      0.051700
     38 H15         4.1950   -4.5320   -3.1950 hc        1 MVB      0.051700
     39 H16         5.2190   -5.8960   -4.9840 ha        1 MVB      0.123000
     40 H17         7.6040   -6.4970   -4.5620 ha        1 MVB      0.128000
     41 H19         7.4390   -2.9340   -3.9570 hc        1 MVB      0.067700
     42 H20         9.3810   -2.5150   -2.7530 h1        1 MVB      0.030700
     43 H211        7.9910   -3.7450   -0.2750 hc        1 MVB      0.052700
     44 H212        9.5560   -2.8390   -0.2240 hc        1 MVB      0.052700
     45 H221       10.6710   -4.4310   -1.6740 hc        1 MVB      0.051200
     46 H222        9.7620   -5.4070   -0.4520 hc        1 MVB      0.051200
     47 H23         9.2470   -6.4540   -2.6010 ha        1 MVB      0.125000
     48 HO5         8.5570   -0.9980   -1.1510 ho        1 MVB      0.402000
@<TRIPOS>BOND
     1    1    8 1   
     2    1   23 1   
     3    2    3 2   
     4    2    4 1   
     5    2    9 1   
     6    4    6 1   
     7    5   19 1   
     8    5   48 1   
     9    6    7 1   
    10    6   11 1   
    11    6   24 1   
    12    7    8 1   
    13    7   25 1   
    14    7   26 1   
    15    8    9 1   
    16    8   27 1   
    17    9   28 1   
    18    9   29 1   
    19   10   14 1   
    20   10   30 1   
    21   10   31 1   
    22   10   32 1   
    23   11   12 1   
    24   11   33 1   
    25   11   34 1   
    26   12   13 1   
    27   12   35 1   
    28   12   36 1   
    29   13   14 1   
    30   13   18 1   
    31   13   37 1   
    32   14   15 1   
    33   14   38 1   
    34   15   16 2   
    35   15   39 1   
    36   16   17 1   
    37   16   40 1   
    38   17   18 1   
    39   17   22 2   
    40   18   19 1   
    41   18   41 1   
    42   19   20 1   
    43   19   42 1   
    44   20   21 1   
    45   20   43 1   
    46   20   44 1   
    47   21   22 1   
    48   21   45 1   
    49   21   46 1   
    50   22   47 1   
@<TRIPOS>SUBSTRUCTURE
     1 MVB         1 TEMP              0 ****  ****    0 ROOT
