@<TRIPOS>MOLECULE
MVB
   48    50     1     0     0
SMALL
bcc


@<TRIPOS>ATOM
      1 O1         -5.8320    1.2330   -0.2710 oh        1 MVB     -0.589800
      2 C1         -3.4990   -1.6330   -0.7830 c         1 MVB      0.722600
      3 O2         -3.3540   -2.8030   -1.1450 o         1 MVB     -0.585500
      4 O3         -2.3020   -1.0220   -0.5240 os        1 MVB     -0.413900
      5 O5          1.5290   -1.7360    1.7400 oh        1 MVB     -0.597800
      6 C7         -2.2890    0.2410    0.1640 c3        1 MVB      0.148100
      7 C8         -3.4710    1.1210   -0.2040 c3        1 MVB     -0.116400
      8 C9         -4.7630    0.3740    0.0970 c3        1 MVB      0.143100
      9 C10        -4.8110   -0.9200   -0.7050 c3        1 MVB     -0.208400
     10 C11         1.3420    2.8700    1.3430 c3        1 MVB     -0.086100
     11 C12        -0.9670    0.9080   -0.2080 c3        1 MVB     -0.080400
     12 C13         0.1910    0.2630    0.5260 c3        1 MVB     -0.075400
     13 C14         1.5360    0.7080   -0.0110 c3        1 MVB     -0.037700
     14 C15         1.7080    2.2390    0.0120 c3        1 MVB     -0.035500
     15 C16         3.0990    2.6460   -0.3510 c2        1 MVB     -0.155200
     16 C17         4.1290    1.7910   -0.4210 ce        1 MVB     -0.134000
     17 C18         3.9310    0.3680   -0.1750 ce        1 MVB     -0.085200
     18 C19         2.7420    0.0770    0.7040 c3        1 MVB     -0.015500
     19 C20         2.7290   -1.4140    1.0560 c3        1 MVB      0.150100
     20 C21         2.9620   -2.2860   -0.1720 c3        1 MVB     -0.114400
     21 C22         4.3590   -2.0280   -0.7040 c3        1 MVB     -0.042200
     22 C23         4.6610   -0.5800   -0.7850 c2        1 MVB     -0.161200
     23 HO1        -6.6500    0.7630   -0.0680 ho        1 MVB      0.405000
     24 H7         -2.3120    0.0040    1.2660 h1        1 MVB      0.058700
     25 H81        -3.4370    2.0700    0.3890 hc        1 MVB      0.074700
     26 H82        -3.4360    1.3940   -1.2900 hc        1 MVB      0.074700
     27 H9         -4.8280    0.1450    1.1980 h1        1 MVB      0.043700
     28 H101       -5.5710   -1.6200   -0.2690 hc        1 MVB      0.090700
     29 H102       -5.1300   -0.6900   -1.7600 hc        1 MVB      0.090700
     30 H111        1.5480    3.9670    1.3140 hc        1 MVB      0.036367
     31 H112        0.2580    2.7220    1.5650 hc        1 MVB      0.036367
     32 H113        1.9350    2.4230    2.1770 hc        1 MVB      0.036367
     33 H121       -1.0410    1.9980    0.0450 hc        1 MVB      0.053700
     34 H122       -0.8110    0.8210   -1.3160 hc        1 MVB      0.053700
     35 H131        0.1020   -0.8520    0.3930 hc        1 MVB      0.065700
     36 H132        0.1260    0.4710    1.6250 hc        1 MVB      0.065700
     37 H14         1.5800    0.3890   -1.0930 hc        1 MVB      0.051700
     38 H15         1.0130    2.6590   -0.7730 hc        1 MVB      0.051700
     39 H16         3.2340    3.7200   -0.5530 ha        1 MVB      0.123000
     40 H17         5.1420    2.1190   -0.6990 ha        1 MVB      0.128000
     41 H19         2.8720    0.6200    1.6850 hc        1 MVB      0.067700
     42 H20         3.5880   -1.5890    1.7740 h1        1 MVB      0.030700
     43 H211        2.1940   -2.0450   -0.9530 hc        1 MVB      0.052700
     44 H212        2.8470   -3.3680    0.0950 hc        1 MVB      0.052700
     45 H221        4.4620   -2.4880   -1.7230 hc        1 MVB      0.051200
     46 H222        5.1160   -2.5260   -0.0380 hc        1 MVB      0.051200
     47 H23         5.5250   -0.3080   -1.4130 ha        1 MVB      0.125000
     48 HO5         1.5100   -2.6970    1.8300 ho        1 MVB      0.402000
@<TRIPOS>BOND
     1    1    8 1   
     2    1   23 1   
     3    2    3 2   
     4    2    4 1   
     5    2    9 1   
     6    4    6 1   
     7    5   19 1   
     8    5   48 1   
     9    6    7 1   
    10    6   11 1   
    11    6   24 1   
    12    7    8 1   
    13    7   25 1   
    14    7   26 1   
    15    8    9 1   
    16    8   27 1   
    17    9   28 1   
    18    9   29 1   
    19   10   14 1   
    20   10   30 1   
    21   10   31 1   
    22   10   32 1   
    23   11   12 1   
    24   11   33 1   
    25   11   34 1   
    26   12   13 1   
    27   12   35 1   
    28   12   36 1   
    29   13   14 1   
    30   13   18 1   
    31   13   37 1   
    32   14   15 1   
    33   14   38 1   
    34   15   16 2   
    35   15   39 1   
    36   16   17 1   
    37   16   40 1   
    38   17   18 1   
    39   17   22 2   
    40   18   19 1   
    41   18   41 1   
    42   19   20 1   
    43   19   42 1   
    44   20   21 1   
    45   20   43 1   
    46   20   44 1   
    47   21   22 1   
    48   21   45 1   
    49   21   46 1   
    50   22   47 1   
@<TRIPOS>SUBSTRUCTURE
     1 MVB         1 TEMP              0 ****  ****    0 ROOT
