@<TRIPOS>MOLECULE
MVB
   48    50     1     0     0
SMALL
bcc


@<TRIPOS>ATOM
      1 O1          0.1540   -0.0240    0.3310 oh        1 MVB     -0.589800
      2 C1          3.5730   -0.6850    1.6700 c         1 MVB      0.722600
      3 O2          4.3370   -0.6400    2.6370 o         1 MVB     -0.585500
      4 O3          4.1310   -1.3360    0.6030 os        1 MVB     -0.413900
      5 O5          7.9370   -1.3910   -1.8140 oh        1 MVB     -0.597800
      6 C7          3.5000   -1.2450   -0.6870 c3        1 MVB      0.148100
      7 C8          1.9850   -1.1980   -0.5970 c3        1 MVB     -0.116400
      8 C9          1.5730   -0.0180    0.2720 c3        1 MVB      0.143100
      9 C10         2.1700   -0.1670    1.6650 c3        1 MVB     -0.208400
     10 C11         4.7910   -3.1820   -4.6960 c3        1 MVB     -0.086100
     11 C12         3.9690   -2.4680   -1.4700 c3        1 MVB     -0.080400
     12 C13         5.4020   -2.2990   -1.9320 c3        1 MVB     -0.075400
     13 C14         5.9910   -3.5860   -2.4730 c3        1 MVB     -0.037700
     14 C15         5.1550   -4.1880   -3.6180 c3        1 MVB     -0.035500
     15 C16         5.8420   -5.3530   -4.2540 c2        1 MVB     -0.155200
     16 C17         7.1280   -5.6640   -4.0410 ce        1 MVB     -0.134000
     17 C18         7.9390   -4.8780   -3.1200 ce        1 MVB     -0.085200
     18 C19         7.4460   -3.4630   -2.9530 c3        1 MVB     -0.015500
     19 C20         8.4620   -2.6720   -2.1220 c3        1 MVB      0.150100
     20 C21         8.9030   -3.4430   -0.8850 c3        1 MVB     -0.114400
     21 C22         9.6510   -4.6900   -1.3200 c3        1 MVB     -0.042200
     22 C23         8.9380   -5.4130   -2.4000 c2        1 MVB     -0.161200
     23 HO1        -0.1060    0.7320    0.8720 ho        1 MVB      0.405000
     24 H7          3.8880   -0.3000   -1.1660 h1        1 MVB      0.058700
     25 H81         1.5870   -2.1480   -0.1570 hc        1 MVB      0.074700
     26 H82         1.5460   -1.0840   -1.6210 hc        1 MVB      0.074700
     27 H9          1.9240    0.9460   -0.1940 h1        1 MVB      0.043700
     28 H101        2.1520    0.8170    2.2040 hc        1 MVB      0.090700
     29 H102        1.5460   -0.8900    2.2610 hc        1 MVB      0.090700
     30 H111        4.2420   -3.6930   -5.5240 hc        1 MVB      0.036367
     31 H112        5.7040   -2.7030   -5.1230 hc        1 MVB      0.036367
     32 H113        4.1350   -2.3800   -4.2810 hc        1 MVB      0.036367
     33 H121        3.2830   -2.6080   -2.3460 hc        1 MVB      0.054200
     34 H122        3.8840   -3.3760   -0.8180 hc        1 MVB      0.054200
     35 H131        6.0110   -1.9710   -1.0440 hc        1 MVB      0.065700
     36 H132        5.4760   -1.4880   -2.7020 hc        1 MVB      0.065700
     37 H14         5.9770   -4.3350   -1.6270 hc        1 MVB      0.051700
     38 H15         4.1940   -4.5660   -3.1590 hc        1 MVB      0.051700
     39 H16         5.2150   -5.9510   -4.9340 ha        1 MVB      0.123000
     40 H17         7.6050   -6.5330   -4.5190 ha        1 MVB      0.128000
     41 H19         7.4250   -2.9630   -3.9650 hc        1 MVB      0.067700
     42 H20         9.3730   -2.5170   -2.7790 h1        1 MVB      0.030700
     43 H211        8.0040   -3.7180   -0.2750 hc        1 MVB      0.052700
     44 H212        9.5650   -2.8040   -0.2470 hc        1 MVB      0.052700
     45 H221       10.6790   -4.4100   -1.6800 hc        1 MVB      0.051200
     46 H222        9.7830   -5.3730   -0.4390 hc        1 MVB      0.051200
     47 H23         9.2600   -6.4530   -2.5690 ha        1 MVB      0.125000
     48 HO5         8.5520   -0.9800   -1.1940 ho        1 MVB      0.402000
@<TRIPOS>BOND
     1    1    8 1   
     2    1   23 1   
     3    2    3 2   
     4    2    4 1   
     5    2    9 1   
     6    4    6 1   
     7    5   19 1   
     8    5   48 1   
     9    6    7 1   
    10    6   11 1   
    11    6   24 1   
    12    7    8 1   
    13    7   25 1   
    14    7   26 1   
    15    8    9 1   
    16    8   27 1   
    17    9   28 1   
    18    9   29 1   
    19   10   14 1   
    20   10   30 1   
    21   10   31 1   
    22   10   32 1   
    23   11   12 1   
    24   11   33 1   
    25   11   34 1   
    26   12   13 1   
    27   12   35 1   
    28   12   36 1   
    29   13   14 1   
    30   13   18 1   
    31   13   37 1   
    32   14   15 1   
    33   14   38 1   
    34   15   16 2   
    35   15   39 1   
    36   16   17 1   
    37   16   40 1   
    38   17   18 1   
    39   17   22 2   
    40   18   19 1   
    41   18   41 1   
    42   19   20 1   
    43   19   42 1   
    44   20   21 1   
    45   20   43 1   
    46   20   44 1   
    47   21   22 1   
    48   21   45 1   
    49   21   46 1   
    50   22   47 1   
@<TRIPOS>SUBSTRUCTURE
     1 MVB         1 TEMP              0 ****  ****    0 ROOT
