@<TRIPOS>MOLECULE
MVC
   65    64     1     0     0
SMALL
bcc


@<TRIPOS>ATOM
      1 C17        11.1960    1.2840    0.1710 c3        1 MVC     -0.079400
      2 C9          2.3420   -0.6680   -0.1010 c3        1 MVC     -0.079400
      3 C8          0.9780   -1.3220   -0.1700 c3        1 MVC     -0.079400
      4 C16         9.6850    1.2050    0.1380 c3        1 MVC     -0.079400
      5 C10         3.4480   -1.7000   -0.1530 c3        1 MVC     -0.077400
      6 C7         -0.1280   -0.2900   -0.1180 c3        1 MVC     -0.079400
      7 C24        -8.6970    0.0110   -0.7800 c3        1 MVC      0.104400
      8 C15         9.2130   -0.2300    0.0370 c3        1 MVC     -0.077400
      9 C11         4.8120   -1.0440   -0.0840 c3        1 MVC     -0.049200
     10 C6         -1.4910   -0.9450   -0.1880 c3        1 MVC     -0.079400
     11 C14         7.7000   -0.3070    0.0050 c3        1 MVC     -0.049200
     12 C12         5.9150   -2.0320   -0.1330 c2        1 MVC     -0.174200
     13 C5         -2.5980    0.0870   -0.1370 c3        1 MVC     -0.078400
     14 C13         7.2100   -1.7020   -0.0930 c2        1 MVC     -0.173200
     15 C4         -3.9590   -0.5710   -0.2010 c3        1 MVC     -0.079400
     16 C3         -5.0590    0.4680   -0.1690 c3        1 MVC     -0.126400
     17 C21       -10.8960    0.0420    0.4160 c3        1 MVC      0.097400
     18 C22        -9.4560    0.5710    0.4220 c3        1 MVC      0.118100
     19 O19        -6.7490   -1.1940    0.5160 o         1 MVC     -0.561000
     20 C1         -6.4070   -0.1760   -0.0920 c         1 MVC      0.645100
     21 O25        -7.3560    0.5030   -0.8090 os        1 MVC     -0.432900
     22 O23        -8.8410    0.2540    1.6540 oh        1 MVC     -0.596800
     23 O20       -11.5220    0.5440   -0.7520 oh        1 MVC     -0.602800
     24 C18        11.6700    2.7180    0.2720 c3        1 MVC     -0.080400
     25 C19        13.1740    2.8030    0.3040 c3        1 MVC     -0.092100
     26 H101        3.3330   -2.4190    0.7000 hc        1 MVC      0.041700
     27 H102        3.3640   -2.2950   -1.1010 hc        1 MVC      0.041700
     28 H91C        2.4580    0.0510   -0.9540 hc        1 MVC      0.039700
     29 H92C        2.4260   -0.0740    0.8470 hc        1 MVC      0.039700
     30 H111        4.9230   -0.3170   -0.9350 hc        1 MVC      0.047700
     31 H112        4.8910   -0.4430    0.8640 hc        1 MVC      0.047700
     32 H81C        0.8940   -1.9170   -1.1180 hc        1 MVC      0.040700
     33 H82C        0.8620   -2.0410    0.6830 hc        1 MVC      0.040700
     34 H171       11.5850    0.6980    1.0450 hc        1 MVC      0.039700
     35 H172       11.6180    0.8140   -0.7560 hc        1 MVC      0.039700
     36 H161        9.2640    1.6750    1.0660 hc        1 MVC      0.039700
     37 H162        9.2960    1.7910   -0.7360 hc        1 MVC      0.039700
     38 H12         5.6120   -3.0900   -0.2070 ha        1 MVC      0.122000
     39 H71C       -0.0440    0.3040    0.8290 hc        1 MVC      0.040200
     40 H72C       -0.0120    0.4290   -0.9720 hc        1 MVC      0.040200
     41 H241       -8.7020   -1.1100   -0.7710 h1        1 MVC      0.078200
     42 H242       -9.1500    0.4020   -1.7310 h1        1 MVC      0.078200
     43 H22        -9.4600    1.6970    0.3870 h1        1 MVC      0.094700
     44 H151        9.6330   -0.7010   -0.8900 hc        1 MVC      0.041700
     45 H152        9.6010   -0.8160    0.9120 hc        1 MVC      0.041700
     46 H13         7.9850   -2.4840   -0.1340 ha        1 MVC      0.122000
     47 H61C       -1.5750   -1.5400   -1.1350 hc        1 MVC      0.042700
     48 H62C       -1.6080   -1.6630    0.6660 hc        1 MVC      0.042700
     49 H141        7.2790    0.1720    0.9320 hc        1 MVC      0.047700
     50 H142        7.3120    0.2870   -0.8680 hc        1 MVC      0.047700
     51 H51C       -2.5110    0.6840    0.8090 hc        1 MVC      0.041700
     52 H52C       -2.4840    0.8040   -0.9930 hc        1 MVC      0.041700
     53 H41C       -4.0420   -1.1790   -1.1400 hc        1 MVC      0.057200
     54 H42C       -4.0860   -1.2770    0.6630 hc        1 MVC      0.057200
     55 H31C       -4.9530    1.1230    0.7380 hc        1 MVC      0.081200
     56 H32C       -5.0070    1.1270   -1.0760 hc        1 MVC      0.081200
     57 H211      -10.9020   -1.0810    0.4000 h1        1 MVC      0.034200
     58 H212      -11.4260    0.3980    1.3380 h1        1 MVC      0.034200
     59 H20       -12.4600    0.3330   -0.6740 ho        1 MVC      0.406000
     60 H23        -8.6020   -0.6840    1.6350 ho        1 MVC      0.420000
     61 H181       11.2790    3.3030   -0.6020 hc        1 MVC      0.038700
     62 H182       11.2460    3.1880    1.1990 hc        1 MVC      0.038700
     63 H191       13.5020    3.8670    0.3790 hc        1 MVC      0.032700
     64 H192       13.5820    2.2460    1.1830 hc        1 MVC      0.032700
     65 H193       13.6140    2.3620   -0.6230 hc        1 MVC      0.032700
@<TRIPOS>BOND
     1    1    4 1   
     2    1   24 1   
     3    1   34 1   
     4    1   35 1   
     5    2    3 1   
     6    2    5 1   
     7    2   28 1   
     8    2   29 1   
     9    3    6 1   
    10    3   32 1   
    11    3   33 1   
    12    4    8 1   
    13    4   36 1   
    14    4   37 1   
    15    5    9 1   
    16    5   26 1   
    17    5   27 1   
    18    6   10 1   
    19    6   39 1   
    20    6   40 1   
    21    7   18 1   
    22    7   21 1   
    23    7   41 1   
    24    7   42 1   
    25    8   11 1   
    26    8   44 1   
    27    8   45 1   
    28    9   12 1   
    29    9   30 1   
    30    9   31 1   
    31   10   13 1   
    32   10   47 1   
    33   10   48 1   
    34   11   14 1   
    35   11   49 1   
    36   11   50 1   
    37   12   14 2   
    38   12   38 1   
    39   13   15 1   
    40   13   51 1   
    41   13   52 1   
    42   14   46 1   
    43   15   16 1   
    44   15   53 1   
    45   15   54 1   
    46   16   20 1   
    47   16   55 1   
    48   16   56 1   
    49   17   18 1   
    50   17   23 1   
    51   17   57 1   
    52   17   58 1   
    53   18   22 1   
    54   18   43 1   
    55   19   20 2   
    56   20   21 1   
    57   22   60 1   
    58   23   59 1   
    59   24   25 1   
    60   24   61 1   
    61   24   62 1   
    62   25   63 1   
    63   25   64 1   
    64   25   65 1   
@<TRIPOS>SUBSTRUCTURE
     1 MVC         1 TEMP              0 ****  ****    0 ROOT
