@<TRIPOS>MOLECULE
MVC
   65    64     1     0     0
SMALL
bcc


@<TRIPOS>ATOM
      1 C17        -0.5460    0.3370    0.2630 c3        1 MVC     -0.079400
      2 C9          8.0390   -2.5240    0.8800 c3        1 MVC     -0.079400
      3 C8          9.4800   -2.7900    1.2590 c3        1 MVC     -0.079400
      4 C16         0.8440   -0.2520    0.1470 c3        1 MVC     -0.079400
      5 C10         7.3730   -1.5940    1.8720 c3        1 MVC     -0.077400
      6 C7         10.1460   -3.7190    0.2680 c3        1 MVC     -0.079400
      7 C24        17.9450   -7.0130   -1.2520 c3        1 MVC      0.138400
      8 C15         1.7200    0.1760    1.3050 c3        1 MVC     -0.077400
      9 C11         5.9320   -1.3290    1.4900 c3        1 MVC     -0.049200
     10 C6         11.5880   -3.9830    0.6470 c3        1 MVC     -0.079400
     11 C14         3.1100   -0.4130    1.1870 c3        1 MVC     -0.049200
     12 C12         5.2550   -0.4200    2.4450 c2        1 MVC     -0.174200
     13 C5         12.2540   -4.9120   -0.3460 c3        1 MVC     -0.078400
     14 C13         3.9890   -0.0110    2.3090 c2        1 MVC     -0.173200
     15 C4         13.6940   -5.1770    0.0380 c3        1 MVC     -0.079400
     16 C3         14.3590   -6.0910   -0.9690 c3        1 MVC     -0.127400
     17 C21        20.0270   -6.4700   -2.5500 c3        1 MVC      0.092400
     18 C22        18.6640   -7.1700   -2.5930 c3        1 MVC      0.140100
     19 O19        16.1590   -6.6870    0.6120 o         1 MVC     -0.542000
     20 C1         15.7370   -6.4690   -0.5250 c         1 MVC      0.634100
     21 O25        16.6110   -6.5850   -1.5730 os        1 MVC     -0.444900
     22 O23        18.8290   -8.5640   -2.8020 oh        1 MVC     -0.599800
     23 O20        20.6340   -6.7190   -3.8080 oh        1 MVC     -0.611800
     24 C18        -1.4230   -0.0900   -0.8950 c3        1 MVC     -0.080400
     25 C19        -2.8080    0.4930   -0.7840 c3        1 MVC     -0.092100
     26 H101        7.4140   -2.0470    2.8980 hc        1 MVC      0.041700
     27 H102        7.9360   -0.6250    1.9150 hc        1 MVC      0.041700
     28 H91C        7.4770   -3.4940    0.8370 hc        1 MVC      0.039700
     29 H92C        7.9970   -2.0720   -0.1460 hc        1 MVC      0.039700
     30 H111        5.8920   -0.8840    0.4580 hc        1 MVC      0.047200
     31 H112        5.3710   -2.3030    1.4410 hc        1 MVC      0.047200
     32 H81C        9.5220   -3.2420    2.2850 hc        1 MVC      0.040700
     33 H82C       10.0430   -1.8200    1.3020 hc        1 MVC      0.040700
     34 H171       -0.4790    1.4560    0.2900 hc        1 MVC      0.039700
     35 H172       -1.0140    0.0100    1.2290 hc        1 MVC      0.039700
     36 H161        0.7770   -1.3710    0.1200 hc        1 MVC      0.039700
     37 H162        1.3120    0.0750   -0.8190 hc        1 MVC      0.039700
     38 H12         5.8600   -0.0840    3.3030 ha        1 MVC      0.122000
     39 H71C        9.5850   -4.6890    0.2250 hc        1 MVC      0.040200
     40 H72C       10.1040   -3.2680   -0.7590 hc        1 MVC      0.040200
     41 H241       18.4250   -6.2330   -0.6080 h1        1 MVC      0.068200
     42 H242       17.8990   -7.9880   -0.7000 h1        1 MVC      0.068200
     43 H22        18.0450   -6.7350   -3.4280 h1        1 MVC      0.069700
     44 H151        1.2530   -0.1510    2.2720 hc        1 MVC      0.041700
     45 H152        1.7870    1.2960    1.3330 hc        1 MVC      0.041700
     46 H13         3.5410    0.6660    3.0550 ha        1 MVC      0.122000
     47 H61C       11.6310   -4.4360    1.6720 hc        1 MVC      0.042700
     48 H62C       12.1500   -3.0130    0.6900 hc        1 MVC      0.042700
     49 H141        3.0400   -1.5360    1.1510 hc        1 MVC      0.047700
     50 H142        3.5740   -0.0900    0.2150 hc        1 MVC      0.047700
     51 H51C       11.6910   -5.8820   -0.3890 hc        1 MVC      0.041200
     52 H52C       12.2130   -4.4590   -1.3710 hc        1 MVC      0.041200
     53 H41C       13.7400   -5.6460    1.0570 hc        1 MVC      0.057200
     54 H42C       14.2550   -4.2080    0.0950 hc        1 MVC      0.057200
     55 H31C       14.4070   -5.6010   -1.9760 hc        1 MVC      0.079200
     56 H32C       13.7720   -7.0430   -1.0790 hc        1 MVC      0.079200
     57 H211       20.6580   -6.8930   -1.7240 h1        1 MVC      0.037700
     58 H212       19.8940   -5.3670   -2.3980 h1        1 MVC      0.037700
     59 H20        21.5290   -6.3630   -3.7620 ho        1 MVC      0.410000
     60 H23        19.3440   -8.6610   -3.6140 ho        1 MVC      0.421000
     61 H181       -1.4870   -1.2100   -0.9220 hc        1 MVC      0.038700
     62 H182       -0.9530    0.2360   -1.8600 hc        1 MVC      0.038700
     63 H191       -3.4370    0.1670   -1.6460 hc        1 MVC      0.032700
     64 H192       -3.3020    0.1590    0.1600 hc        1 MVC      0.032700
     65 H193       -2.7660    1.6100   -0.7810 hc        1 MVC      0.032700
@<TRIPOS>BOND
     1    1    4 1   
     2    1   24 1   
     3    1   34 1   
     4    1   35 1   
     5    2    3 1   
     6    2    5 1   
     7    2   28 1   
     8    2   29 1   
     9    3    6 1   
    10    3   32 1   
    11    3   33 1   
    12    4    8 1   
    13    4   36 1   
    14    4   37 1   
    15    5    9 1   
    16    5   26 1   
    17    5   27 1   
    18    6   10 1   
    19    6   39 1   
    20    6   40 1   
    21    7   18 1   
    22    7   21 1   
    23    7   41 1   
    24    7   42 1   
    25    8   11 1   
    26    8   44 1   
    27    8   45 1   
    28    9   12 1   
    29    9   30 1   
    30    9   31 1   
    31   10   13 1   
    32   10   47 1   
    33   10   48 1   
    34   11   14 1   
    35   11   49 1   
    36   11   50 1   
    37   12   14 2   
    38   12   38 1   
    39   13   15 1   
    40   13   51 1   
    41   13   52 1   
    42   14   46 1   
    43   15   16 1   
    44   15   53 1   
    45   15   54 1   
    46   16   20 1   
    47   16   55 1   
    48   16   56 1   
    49   17   18 1   
    50   17   23 1   
    51   17   57 1   
    52   17   58 1   
    53   18   22 1   
    54   18   43 1   
    55   19   20 2   
    56   20   21 1   
    57   22   60 1   
    58   23   59 1   
    59   24   25 1   
    60   24   61 1   
    61   24   62 1   
    62   25   63 1   
    63   25   64 1   
    64   25   65 1   
@<TRIPOS>SUBSTRUCTURE
     1 MVC         1 TEMP              0 ****  ****    0 ROOT
