@<TRIPOS>MOLECULE
MVC
   65    64     1     0     0
SMALL
bcc


@<TRIPOS>ATOM
      1 C17        -0.5490    0.3260    0.2760 c3        1 MVC     -0.079400
      2 C9          8.0500   -2.5020    0.8600 c3        1 MVC     -0.079400
      3 C8          9.4880   -2.7750    1.2420 c3        1 MVC     -0.079400
      4 C16         0.8380   -0.2680    0.1620 c3        1 MVC     -0.079400
      5 C10         7.3850   -1.5730    1.8530 c3        1 MVC     -0.077400
      6 C7         10.1540   -3.7040    0.2490 c3        1 MVC     -0.079400
      7 C24        17.9420   -7.0300   -1.2490 c3        1 MVC      0.138400
      8 C15         1.7220    0.1780    1.3070 c3        1 MVC     -0.077400
      9 C11         5.9450   -1.3010    1.4680 c3        1 MVC     -0.049200
     10 C6         11.5920   -3.9760    0.6330 c3        1 MVC     -0.079400
     11 C14         3.1100   -0.4170    1.1900 c3        1 MVC     -0.049200
     12 C12         5.2690   -0.3930    2.4240 c2        1 MVC     -0.174200
     13 C5         12.2580   -4.9040   -0.3610 c3        1 MVC     -0.078400
     14 C13         3.9980    0.0040    2.2990 c2        1 MVC     -0.173200
     15 C4         13.6940   -5.1780    0.0290 c3        1 MVC     -0.079400
     16 C3         14.3590   -6.0910   -0.9800 c3        1 MVC     -0.127400
     17 C21        20.0360   -6.4850   -2.5280 c3        1 MVC      0.092400
     18 C22        18.6700   -7.1780   -2.5860 c3        1 MVC      0.140100
     19 O19        16.1470   -6.7090    0.6070 o         1 MVC     -0.542000
     20 C1         15.7330   -6.4790   -0.5310 c         1 MVC      0.634100
     21 O25        16.6130   -6.5920   -1.5740 os        1 MVC     -0.444900
     22 O23        18.8290   -8.5710   -2.8070 oh        1 MVC     -0.599800
     23 O20        20.6500   -6.7260   -3.7840 oh        1 MVC     -0.611800
     24 C18        -1.4350   -0.1190   -0.8680 c3        1 MVC     -0.080400
     25 C19        -2.8180    0.4700   -0.7580 c3        1 MVC     -0.092100
     26 H101        7.9510   -0.6050    1.9000 hc        1 MVC      0.041700
     27 H102        7.4210   -2.0290    2.8770 hc        1 MVC      0.041700
     28 H91C        7.4830   -3.4690    0.8120 hc        1 MVC      0.039700
     29 H92C        8.0130   -2.0460   -0.1650 hc        1 MVC      0.039700
     30 H111        5.3810   -2.2730    1.4140 hc        1 MVC      0.047700
     31 H112        5.9100   -0.8520    0.4370 hc        1 MVC      0.047700
     32 H81C        9.5250   -3.2310    2.2670 hc        1 MVC      0.040700
     33 H82C       10.0550   -1.8080    1.2910 hc        1 MVC      0.040700
     34 H171       -1.0120    0.0180    1.2510 hc        1 MVC      0.039700
     35 H172       -0.4800    1.4460    0.2830 hc        1 MVC      0.039700
     36 H161        0.7680   -1.3880    0.1550 hc        1 MVC      0.039700
     37 H162        1.3000    0.0400   -0.8130 hc        1 MVC      0.039700
     38 H12         5.8800   -0.0440    3.2730 ha        1 MVC      0.122000
     39 H71C        9.5870   -4.6710    0.2010 hc        1 MVC      0.040200
     40 H72C       10.1170   -3.2470   -0.7750 hc        1 MVC      0.040200
     41 H241       17.8880   -8.0090   -0.7050 h1        1 MVC      0.068200
     42 H242       18.4220   -6.2580   -0.5950 h1        1 MVC      0.068200
     43 H22        18.0580   -6.7330   -3.4220 h1        1 MVC      0.069700
     44 H151        1.7930    1.2980    1.3130 hc        1 MVC      0.041700
     45 H152        1.2610   -0.1300    2.2810 hc        1 MVC      0.041700
     46 H13         3.5510    0.6810    3.0450 ha        1 MVC      0.122000
     47 H61C       11.6290   -4.4340    1.6570 hc        1 MVC      0.042700
     48 H62C       12.1590   -3.0090    0.6830 hc        1 MVC      0.042700
     49 H141        3.0370   -1.5400    1.1750 hc        1 MVC      0.047700
     50 H142        3.5690   -0.1130    0.2090 hc        1 MVC      0.047700
     51 H51C       12.2250   -4.4450   -1.3850 hc        1 MVC      0.041200
     52 H52C       11.6900   -5.8700   -0.4120 hc        1 MVC      0.041200
     53 H41C       14.2610   -4.2130    0.0930 hc        1 MVC      0.057200
     54 H42C       13.7340   -5.6540    1.0450 hc        1 MVC      0.057200
     55 H31C       14.4170   -5.5940   -1.9850 hc        1 MVC      0.079200
     56 H32C       13.7680   -7.0390   -1.1000 hc        1 MVC      0.079200
     57 H211       20.6590   -6.9190   -1.7020 h1        1 MVC      0.037700
     58 H212       19.9070   -5.3830   -2.3660 h1        1 MVC      0.037700
     59 H20        21.5460   -6.3750   -3.7290 ho        1 MVC      0.410000
     60 H23        19.3490   -8.6630   -3.6160 ho        1 MVC      0.421000
     61 H181       -1.5020   -1.2390   -0.8740 hc        1 MVC      0.038700
     62 H182       -0.9710    0.1890   -1.8420 hc        1 MVC      0.038700
     63 H191       -2.7740    1.5860   -0.7750 hc        1 MVC      0.032700
     64 H192       -3.4540    0.1290   -1.6110 hc        1 MVC      0.032700
     65 H193       -3.3070    0.1540    0.1950 hc        1 MVC      0.032700
@<TRIPOS>BOND
     1    1    4 1   
     2    1   24 1   
     3    1   34 1   
     4    1   35 1   
     5    2    3 1   
     6    2    5 1   
     7    2   28 1   
     8    2   29 1   
     9    3    6 1   
    10    3   32 1   
    11    3   33 1   
    12    4    8 1   
    13    4   36 1   
    14    4   37 1   
    15    5    9 1   
    16    5   26 1   
    17    5   27 1   
    18    6   10 1   
    19    6   39 1   
    20    6   40 1   
    21    7   18 1   
    22    7   21 1   
    23    7   41 1   
    24    7   42 1   
    25    8   11 1   
    26    8   44 1   
    27    8   45 1   
    28    9   12 1   
    29    9   30 1   
    30    9   31 1   
    31   10   13 1   
    32   10   47 1   
    33   10   48 1   
    34   11   14 1   
    35   11   49 1   
    36   11   50 1   
    37   12   14 2   
    38   12   38 1   
    39   13   15 1   
    40   13   51 1   
    41   13   52 1   
    42   14   46 1   
    43   15   16 1   
    44   15   53 1   
    45   15   54 1   
    46   16   20 1   
    47   16   55 1   
    48   16   56 1   
    49   17   18 1   
    50   17   23 1   
    51   17   57 1   
    52   17   58 1   
    53   18   22 1   
    54   18   43 1   
    55   19   20 2   
    56   20   21 1   
    57   22   60 1   
    58   23   59 1   
    59   24   25 1   
    60   24   61 1   
    61   24   62 1   
    62   25   63 1   
    63   25   64 1   
    64   25   65 1   
@<TRIPOS>SUBSTRUCTURE
     1 MVC         1 TEMP              0 ****  ****    0 ROOT
