@<TRIPOS>MOLECULE
MVC
   65    64     1     0     0
SMALL
bcc


@<TRIPOS>ATOM
      1 C17        -9.9630    1.0350   -0.5410 c3        1 MVC     -0.079400
      2 C9         -0.9520    1.1690    0.2810 c3        1 MVC     -0.079400
      3 C8          0.5280    1.3420    0.7420 c3        1 MVC     -0.079400
      4 C16        -8.4390    1.2340   -0.6640 c3        1 MVC     -0.079400
      5 C10        -1.9120    1.7680    1.3680 c3        1 MVC     -0.077400
      6 C7          1.4710    0.5590   -0.2240 c3        1 MVC     -0.079400
      7 C24         9.7120   -2.3080   -0.0120 c3        1 MVC      0.138400
      8 C15        -7.8350    1.3470    0.7160 c3        1 MVC     -0.077400
      9 C11        -3.3620    1.5250    0.9590 c3        1 MVC     -0.049200
     10 C6          2.9180    0.6490    0.2880 c3        1 MVC     -0.079400
     11 C14        -6.2540    1.4700    0.5940 c3        1 MVC     -0.049200
     12 C12        -4.2830    1.8770    2.1240 c2        1 MVC     -0.174200
     13 C5          3.8220   -0.3080   -0.5440 c3        1 MVC     -0.078400
     14 C13        -5.6590    1.8530    1.9540 c2        1 MVC     -0.173200
     15 C4          5.2260   -0.3040    0.0230 c3        1 MVC     -0.079400
     16 C3          6.1300   -1.2030   -0.8450 c3        1 MVC     -0.126400
     17 C21        11.9630   -3.3560    0.0230 c3        1 MVC      0.092400
     18 C22        10.5170   -3.5640   -0.3660 c3        1 MVC      0.140100
     19 O19         7.9180   -0.4570    0.5690 o         1 MVC     -0.542000
     20 C1          7.5160   -1.3320   -0.1830 c         1 MVC      0.634100
     21 O25         8.3600   -2.4460   -0.4990 os        1 MVC     -0.444900
     22 O23        10.0100   -4.6410    0.3190 oh        1 MVC     -0.599800
     23 O20        12.7580   -4.4220   -0.5060 oh        1 MVC     -0.611800
     24 C18       -10.6090    1.1590   -1.9240 c3        1 MVC     -0.080400
     25 C19       -12.1250    0.9330   -1.8050 c3        1 MVC     -0.092100
     26 H101       -1.7420    1.3390    2.2250 hc        1 MVC      0.041700
     27 H102       -1.7500    2.7490    1.4510 hc        1 MVC      0.041700
     28 H91C       -1.0850    1.6410   -0.5690 hc        1 MVC      0.039700
     29 H92C       -1.1500    0.2130    0.1600 hc        1 MVC      0.039700
     30 H111       -3.4800    0.5880    0.7240 hc        1 MVC      0.047700
     31 H112       -3.5800    2.0810    0.1930 hc        1 MVC      0.047700
     32 H81C        0.7620    2.2830    0.7290 hc        1 MVC      0.040700
     33 H82C        0.6290    0.9920    1.6550 hc        1 MVC      0.040700
     34 H171      -10.1490    0.1330   -0.1680 hc        1 MVC      0.039700
     35 H172      -10.3370    1.7250    0.0620 hc        1 MVC      0.039700
     36 H161       -8.2570    2.0440   -1.1640 hc        1 MVC      0.039700
     37 H162       -8.0490    0.4730   -1.1270 hc        1 MVC      0.039700
     38 H12        -3.9100    2.1180    2.9760 ha        1 MVC      0.122000
     39 H71C        1.4180    0.9460   -1.1140 hc        1 MVC      0.039700
     40 H72C        1.1970   -0.3750   -0.2590 hc        1 MVC      0.039700
     41 H241        9.6970   -2.1920    0.9680 h1        1 MVC      0.068200
     42 H242       10.1330   -1.5220   -0.4300 h1        1 MVC      0.068200
     43 H22        10.4570   -3.7350   -1.3450 h1        1 MVC      0.069700
     44 H151       -8.0630    0.5440    1.2410 hc        1 MVC      0.041700
     45 H152       -8.1930    2.1430    1.1650 hc        1 MVC      0.041700
     46 H13        -6.2470    2.0770    2.6980 ha        1 MVC      0.122000
     47 H61C        2.9470    0.3870    1.2330 hc        1 MVC      0.043200
     48 H62C        3.2500    1.5910    0.1910 hc        1 MVC      0.043200
     49 H141       -6.0250    2.1760   -0.0810 hc        1 MVC      0.047700
     50 H142       -5.8740    0.5950    0.3010 hc        1 MVC      0.047700
     51 H51C        3.4540   -1.2260   -0.5060 hc        1 MVC      0.040700
     52 H52C        3.8470   -0.0000   -1.4880 hc        1 MVC      0.040700
     53 H41C        5.2090   -0.6470    0.9450 hc        1 MVC      0.058700
     54 H42C        5.5760    0.6120    0.0210 hc        1 MVC      0.058700
     55 H31C        5.7190   -2.1010   -0.9300 hc        1 MVC      0.078200
     56 H32C        6.2280   -0.8030   -1.7380 hc        1 MVC      0.078200
     57 H211       12.0390   -3.3450    0.9880 h1        1 MVC      0.037700
     58 H212       12.2790   -2.5040   -0.3380 h1        1 MVC      0.037700
     59 H20        13.5660   -4.3970   -0.1440 ho        1 MVC      0.410000
     60 H23        10.0410   -5.3760   -0.2090 ho        1 MVC      0.421000
     61 H181      -10.2210    0.4790   -2.5340 hc        1 MVC      0.038700
     62 H182      -10.4410    2.0570   -2.2850 hc        1 MVC      0.038700
     63 H191      -12.5150    1.6190   -1.2030 hc        1 MVC      0.032700
     64 H192      -12.5420    1.0040   -2.7030 hc        1 MVC      0.032700
     65 H193      -12.2950    0.0340   -1.4340 hc        1 MVC      0.032700
@<TRIPOS>BOND
     1    1    4 1   
     2    1   24 1   
     3    1   34 1   
     4    1   35 1   
     5    2    3 1   
     6    2    5 1   
     7    2   28 1   
     8    2   29 1   
     9    3    6 1   
    10    3   32 1   
    11    3   33 1   
    12    4    8 1   
    13    4   36 1   
    14    4   37 1   
    15    5    9 1   
    16    5   26 1   
    17    5   27 1   
    18    6   10 1   
    19    6   39 1   
    20    6   40 1   
    21    7   18 1   
    22    7   21 1   
    23    7   41 1   
    24    7   42 1   
    25    8   11 1   
    26    8   44 1   
    27    8   45 1   
    28    9   12 1   
    29    9   30 1   
    30    9   31 1   
    31   10   13 1   
    32   10   47 1   
    33   10   48 1   
    34   11   14 1   
    35   11   49 1   
    36   11   50 1   
    37   12   14 2   
    38   12   38 1   
    39   13   15 1   
    40   13   51 1   
    41   13   52 1   
    42   14   46 1   
    43   15   16 1   
    44   15   53 1   
    45   15   54 1   
    46   16   20 1   
    47   16   55 1   
    48   16   56 1   
    49   17   18 1   
    50   17   23 1   
    51   17   57 1   
    52   17   58 1   
    53   18   22 1   
    54   18   43 1   
    55   19   20 2   
    56   20   21 1   
    57   22   60 1   
    58   23   59 1   
    59   24   25 1   
    60   24   61 1   
    61   24   62 1   
    62   25   63 1   
    63   25   64 1   
    64   25   65 1   
@<TRIPOS>SUBSTRUCTURE
     1 MVC         1 TEMP              0 ****  ****    0 ROOT
