@<TRIPOS>MOLECULE
MVD
   77    79     1     0     0
SMALL
bcc


@<TRIPOS>ATOM
      1 O3          0.2010   -0.1930    0.1300 oh        1 MVD     -0.595800
      2 O25         4.9220   10.1180   10.0880 oh        1 MVD     -0.597800
      3 C1          1.4310    2.5660    0.1530 c3        1 MVD      0.186300
      4 C2          1.9690    1.3310   -0.5840 c3        1 MVD     -0.123700
      5 C3          1.6000    0.0600    0.1860 c3        1 MVD      0.152100
      6 C4          1.9820    0.1190    1.6630 c3        1 MVD     -0.032200
      7 C5          1.6410    1.4060    2.3370 ce        1 MVD     -0.072200
      8 C6          1.1280    1.4010    3.5860 cf        1 MVD     -0.113000
      9 C7          0.7510    2.5800    4.3290 cf        1 MVD     -0.148000
     10 C8          0.6020    2.6510    5.6620 c2        1 MVD     -0.081400
     11 C9          0.8040    1.5090    6.6070 c3        1 MVD     -0.044200
     12 C10         1.9220    2.6210    1.5730 ce        1 MVD     -0.085200
     13 C11         1.6060    1.8620    7.8500 c3        1 MVD     -0.071400
     14 C12         1.2310    3.1870    8.4920 c3        1 MVD     -0.065400
     15 C13         1.1730    4.2970    7.4550 c3        1 MVD     -0.045000
     16 C14         0.1430    3.8720    6.3730 c3        1 MVD     -0.035500
     17 C15        -0.1620    5.1660    5.6280 c3        1 MVD     -0.073400
     18 C16        -0.0330    6.2690    6.6850 c3        1 MVD     -0.076400
     19 C17         0.5390    5.6160    7.9540 c3        1 MVD     -0.054700
     20 C18         2.5460    4.5280    6.8520 c3        1 MVD     -0.081100
     21 C19         2.5430    3.6900    2.0840 c2        1 MVD     -0.183000
     22 C20         1.4240    6.4910    8.8340 c3        1 MVD     -0.052700
     23 C21         0.5610    7.2180    9.8520 c3        1 MVD     -0.093100
     24 C22         2.2870    7.4980    8.0860 c3        1 MVD     -0.077400
     25 C23         3.5150    7.8860    8.8860 c3        1 MVD     -0.079400
     26 C24         4.3460    8.9060    8.1380 c3        1 MVD     -0.064400
     27 C25         5.5110    9.4520    8.9690 c3        1 MVD      0.147800
     28 C26         6.4330    8.3390    9.4510 c3        1 MVD     -0.123100
     29 C27         6.3040   10.4560    8.1360 c3        1 MVD     -0.123100
     30 O1          1.8050    3.7660   -0.5140 oh        1 MVD     -0.596800
     31 C28         3.4610    1.4130   -0.8130 c3        1 MVD     -0.089100
     32 HO3        -0.0430   -0.2200   -0.8020 ho        1 MVD      0.396000
     33 H25         5.6490   10.4670   10.6160 ho        1 MVD      0.396000
     34 H1          0.3020    2.4960    0.1750 h1        1 MVD      0.053700
     35 H2          1.4600    1.2900   -1.5890 hc        1 MVD      0.038700
     36 H3          2.1390   -0.8130   -0.2880 h1        1 MVD      0.031700
     37 H41         3.0930   -0.0350    1.7350 hc        1 MVD      0.060200
     38 H42         1.4790   -0.7390    2.1860 hc        1 MVD      0.060200
     39 H6          0.9470    0.4300    4.0830 ha        1 MVD      0.124000
     40 H7          0.5630    3.4820    3.7150 ha        1 MVD      0.134000
     41 H91        -0.2140    1.1460    6.9200 hc        1 MVD      0.046200
     42 H92         1.3170    0.6540    6.0930 hc        1 MVD      0.046200
     43 H111        2.6970    1.8790    7.5860 hc        1 MVD      0.039200
     44 H112        1.4660    1.0430    8.6050 hc        1 MVD      0.039200
     45 H121        1.9840    3.4420    9.2820 hc        1 MVD      0.040700
     46 H122        0.2330    3.0920    8.9950 hc        1 MVD      0.040700
     47 H14        -0.8090    3.5760    6.9110 hc        1 MVD      0.054700
     48 H151        0.5670    5.3360    4.7970 hc        1 MVD      0.044700
     49 H152       -1.1870    5.1430    5.1840 hc        1 MVD      0.044700
     50 H161        0.6270    7.0850    6.3040 hc        1 MVD      0.043200
     51 H162       -1.0300    6.7220    6.9100 hc        1 MVD      0.043200
     52 H17        -0.3420    5.3110    8.5930 hc        1 MVD      0.043700
     53 H181        2.4930    5.3090    6.0540 hc        1 MVD      0.037033
     54 H182        2.9330    3.5900    6.3850 hc        1 MVD      0.037033
     55 H183        3.2630    4.8610    7.6400 hc        1 MVD      0.037033
     56 H191        2.8870    3.7210    3.1270 ha        1 MVD      0.125500
     57 H192        2.7440    4.5870    1.4820 ha        1 MVD      0.125500
     58 H20         2.1110    5.7940    9.3980 hc        1 MVD      0.047700
     59 H211       -0.2150    7.8340    9.3360 hc        1 MVD      0.034033
     60 H212        1.1870    7.8930   10.4830 hc        1 MVD      0.034033
     61 H213        0.0450    6.4880   10.5220 hc        1 MVD      0.034033
     62 H221        1.6820    8.4160    7.8600 hc        1 MVD      0.042700
     63 H222        2.6210    7.0700    7.1050 hc        1 MVD      0.042700
     64 H231        3.2150    8.3150    9.8780 hc        1 MVD      0.047700
     65 H232        4.1320    6.9710    9.0880 hc        1 MVD      0.047700
     66 H241        3.6950    9.7690    7.8400 hc        1 MVD      0.047200
     67 H242        4.7660    8.4500    7.2040 hc        1 MVD      0.047200
     68 H261        7.3510    8.7710    9.9170 hc        1 MVD      0.042200
     69 H262        5.9090    7.7130   10.2130 hc        1 MVD      0.042200
     70 H263        6.7340    7.6930    8.5940 hc        1 MVD      0.042200
     71 H271        7.1380   10.8870    8.7400 hc        1 MVD      0.042200
     72 H272        5.6380   11.2880    7.8060 hc        1 MVD      0.042200
     73 H273        6.7330    9.9530    7.2380 hc        1 MVD      0.042200
     74 HO1         1.4970    3.6780   -1.4240 ho        1 MVD      0.399000
     75 H281        3.7100    2.3640   -1.3440 hc        1 MVD      0.043033
     76 H282        4.0090    1.4020    0.1600 hc        1 MVD      0.043033
     77 H283        3.8090    0.5510   -1.4310 hc        1 MVD      0.043033
@<TRIPOS>BOND
     1    1    5 1   
     2    1   32 1   
     3    2   27 1   
     4    2   33 1   
     5    3    4 1   
     6    3   12 1   
     7    3   30 1   
     8    3   34 1   
     9    4    5 1   
    10    4   31 1   
    11    4   35 1   
    12    5    6 1   
    13    5   36 1   
    14    6    7 1   
    15    6   37 1   
    16    6   38 1   
    17    7    8 2   
    18    7   12 1   
    19    8    9 1   
    20    8   39 1   
    21    9   10 2   
    22    9   40 1   
    23   10   11 1   
    24   10   16 1   
    25   11   13 1   
    26   11   41 1   
    27   11   42 1   
    28   12   21 2   
    29   13   14 1   
    30   13   43 1   
    31   13   44 1   
    32   14   15 1   
    33   14   45 1   
    34   14   46 1   
    35   15   16 1   
    36   15   19 1   
    37   15   20 1   
    38   16   17 1   
    39   16   47 1   
    40   17   18 1   
    41   17   48 1   
    42   17   49 1   
    43   18   19 1   
    44   18   50 1   
    45   18   51 1   
    46   19   22 1   
    47   19   52 1   
    48   20   53 1   
    49   20   54 1   
    50   20   55 1   
    51   21   56 1   
    52   21   57 1   
    53   22   23 1   
    54   22   24 1   
    55   22   58 1   
    56   23   59 1   
    57   23   60 1   
    58   23   61 1   
    59   24   25 1   
    60   24   62 1   
    61   24   63 1   
    62   25   26 1   
    63   25   64 1   
    64   25   65 1   
    65   26   27 1   
    66   26   66 1   
    67   26   67 1   
    68   27   28 1   
    69   27   29 1   
    70   28   68 1   
    71   28   69 1   
    72   28   70 1   
    73   29   71 1   
    74   29   72 1   
    75   29   73 1   
    76   30   74 1   
    77   31   75 1   
    78   31   76 1   
    79   31   77 1   
@<TRIPOS>SUBSTRUCTURE
     1 MVD         1 TEMP              0 ****  ****    0 ROOT
