@<TRIPOS>MOLECULE
MVD
   77    79     1     0     0
SMALL
bcc


@<TRIPOS>ATOM
      1 O3         16.9590   17.6700   34.3340 oh        1 MVD     -0.598800
      2 O25         4.6920   26.6230   34.2800 oh        1 MVD     -0.597800
      3 C1         14.1580   17.6710   35.5750 c3        1 MVD      0.184300
      4 C2         14.8430   16.5590   34.7680 c3        1 MVD     -0.126700
      5 C3         15.7870   17.1570   33.7210 c3        1 MVD      0.151100
      6 C4         15.1040   18.2100   32.8520 c3        1 MVD     -0.074200
      7 C5         14.3490   19.2250   33.6430 ce        1 MVD     -0.093200
      8 C6         14.4670   20.5390   33.3600 cf        1 MVD     -0.110000
      9 C7         13.7940   21.6000   34.0730 cf        1 MVD     -0.155000
     10 C8         13.6300   22.8590   33.6320 c2        1 MVD     -0.073400
     11 C9         14.1240   23.3790   32.3190 c3        1 MVD     -0.045200
     12 C10        13.4820   18.6820   34.6900 ce        1 MVD     -0.094200
     13 C11        13.1130   24.2270   31.5630 c3        1 MVD     -0.072400
     14 C12        12.3530   25.2240   32.4200 c3        1 MVD     -0.065400
     15 C13        11.7940   24.5560   33.6660 c3        1 MVD     -0.045000
     16 C14        12.9880   23.9300   34.4370 c3        1 MVD     -0.037500
     17 C15        12.4280   23.6610   35.8280 c3        1 MVD     -0.073400
     18 C16        11.4000   24.7750   36.0600 c3        1 MVD     -0.076400
     19 C17        11.2430   25.5320   34.7320 c3        1 MVD     -0.055700
     20 C18        10.7690   23.5050   33.2860 c3        1 MVD     -0.082100
     21 C19        12.2080   19.0520   34.8570 c2        1 MVD     -0.175000
     22 C20         9.8720   26.1310   34.4430 c3        1 MVD     -0.052700
     23 C21         9.8090   27.5410   35.0080 c3        1 MVD     -0.093100
     24 C22         8.6910   25.3210   34.9580 c3        1 MVD     -0.077400
     25 C23         7.4280   25.6090   34.1710 c3        1 MVD     -0.080400
     26 C24         6.2600   24.8090   34.7050 c3        1 MVD     -0.104400
     27 C25         4.9230   25.2270   34.0830 c3        1 MVD      0.147800
     28 C26         4.9160   25.0190   32.5740 c3        1 MVD     -0.103600
     29 C27         3.7960   24.4260   34.7300 c3        1 MVD     -0.103600
     30 O1         13.1980   17.1390   36.4820 oh        1 MVD     -0.595800
     31 C28        13.8420   15.6270   34.1250 c3        1 MVD     -0.087100
     32 HO3        16.7070   18.4690   34.8130 ho        1 MVD      0.402000
     33 H25         4.7160   26.7770   35.2310 ho        1 MVD      0.397000
     34 H1         14.9500   18.2090   36.1790 h1        1 MVD      0.037700
     35 H2         15.4760   15.9630   35.4870 hc        1 MVD      0.058700
     36 H3         16.1780   16.3280   33.0620 h1        1 MVD      0.075700
     37 H41        14.3850   17.6900   32.1620 hc        1 MVD      0.061700
     38 H42        15.8870   18.7060   32.2180 hc        1 MVD      0.061700
     39 H6         15.1440   20.8480   32.5440 ha        1 MVD      0.124000
     40 H7         13.4000   21.3210   35.0690 ha        1 MVD      0.134000
     41 H91        14.4400   22.5360   31.6490 hc        1 MVD      0.047200
     42 H92        15.0390   24.0010   32.5260 hc        1 MVD      0.047200
     43 H111       12.3780   23.5480   31.0530 hc        1 MVD      0.040700
     44 H112       13.6550   24.7860   30.7550 hc        1 MVD      0.040700
     45 H121       11.5180   25.6690   31.8190 hc        1 MVD      0.041700
     46 H122       13.0370   26.0610   32.7190 hc        1 MVD      0.041700
     47 H14        13.7740   24.7390   34.5540 hc        1 MVD      0.055700
     48 H151       13.2350   23.6830   36.5990 hc        1 MVD      0.045200
     49 H152       11.9340   22.6590   35.8780 hc        1 MVD      0.045200
     50 H161       11.7490   25.4770   36.8570 hc        1 MVD      0.043200
     51 H162       10.4330   24.3340   36.4030 hc        1 MVD      0.043200
     52 H17        11.9700   26.3980   34.7590 hc        1 MVD      0.044700
     53 H181       10.3950   22.9790   34.1980 hc        1 MVD      0.037700
     54 H182       11.2230   22.7380   32.6120 hc        1 MVD      0.037700
     55 H183        9.9050   23.9790   32.7600 hc        1 MVD      0.037700
     56 H191       11.7290   19.8000   34.2110 ha        1 MVD      0.126500
     57 H192       11.5760   18.6200   35.6450 ha        1 MVD      0.126500
     58 H20         9.7800   26.2050   33.3190 hc        1 MVD      0.049700
     59 H211        8.8000   27.9860   34.8320 hc        1 MVD      0.034033
     60 H212       10.5710   28.1940   34.5190 hc        1 MVD      0.034033
     61 H213       10.0050   27.5290   36.1070 hc        1 MVD      0.034033
     62 H221        8.5190   25.5560   36.0420 hc        1 MVD      0.042200
     63 H222        8.9120   24.2240   34.8870 hc        1 MVD      0.042200
     64 H231        7.5950   25.3530   33.0910 hc        1 MVD      0.049200
     65 H232        7.1780   26.7020   34.2180 hc        1 MVD      0.049200
     66 H241        6.1940   24.9430   35.8170 hc        1 MVD      0.042700
     67 H242        6.4210   23.7180   34.5060 hc        1 MVD      0.042700
     68 H261        3.8950   25.2110   32.1680 hc        1 MVD      0.043367
     69 H262        5.2170   23.9710   32.3390 hc        1 MVD      0.043367
     70 H263        5.6280   25.7280   32.0870 hc        1 MVD      0.043367
     71 H271        2.8100   24.7790   34.3430 hc        1 MVD      0.043367
     72 H272        3.8110   24.5570   35.8380 hc        1 MVD      0.043367
     73 H273        3.9130   23.3430   34.4930 hc        1 MVD      0.043367
     74 HO1        13.6350   16.4190   36.9530 ho        1 MVD      0.403000
     75 H281       14.3680   14.7930   33.6020 hc        1 MVD      0.041700
     76 H282       13.2120   16.1770   33.3840 hc        1 MVD      0.041700
     77 H283       13.1660   15.1960   34.9040 hc        1 MVD      0.041700
@<TRIPOS>BOND
     1    1    5 1   
     2    1   32 1   
     3    2   27 1   
     4    2   33 1   
     5    3    4 1   
     6    3   12 1   
     7    3   30 1   
     8    3   34 1   
     9    4    5 1   
    10    4   31 1   
    11    4   35 1   
    12    5    6 1   
    13    5   36 1   
    14    6    7 1   
    15    6   37 1   
    16    6   38 1   
    17    7    8 2   
    18    7   12 1   
    19    8    9 1   
    20    8   39 1   
    21    9   10 2   
    22    9   40 1   
    23   10   11 1   
    24   10   16 1   
    25   11   13 1   
    26   11   41 1   
    27   11   42 1   
    28   12   21 2   
    29   13   14 1   
    30   13   43 1   
    31   13   44 1   
    32   14   15 1   
    33   14   45 1   
    34   14   46 1   
    35   15   16 1   
    36   15   19 1   
    37   15   20 1   
    38   16   17 1   
    39   16   47 1   
    40   17   18 1   
    41   17   48 1   
    42   17   49 1   
    43   18   19 1   
    44   18   50 1   
    45   18   51 1   
    46   19   22 1   
    47   19   52 1   
    48   20   53 1   
    49   20   54 1   
    50   20   55 1   
    51   21   56 1   
    52   21   57 1   
    53   22   23 1   
    54   22   24 1   
    55   22   58 1   
    56   23   59 1   
    57   23   60 1   
    58   23   61 1   
    59   24   25 1   
    60   24   62 1   
    61   24   63 1   
    62   25   26 1   
    63   25   64 1   
    64   25   65 1   
    65   26   27 1   
    66   26   66 1   
    67   26   67 1   
    68   27   28 1   
    69   27   29 1   
    70   28   68 1   
    71   28   69 1   
    72   28   70 1   
    73   29   71 1   
    74   29   72 1   
    75   29   73 1   
    76   30   74 1   
    77   31   75 1   
    78   31   76 1   
    79   31   77 1   
@<TRIPOS>SUBSTRUCTURE
     1 MVD         1 TEMP              0 ****  ****    0 ROOT
