@<TRIPOS>MOLECULE
MVD
   77    79     1     0     0
SMALL
bcc


@<TRIPOS>ATOM
      1 O3          0.2060   -0.1990    0.1330 oh        1 MVD     -0.595800
      2 O25         4.9220   10.1170   10.0880 oh        1 MVD     -0.597800
      3 C1          1.4420    2.5560    0.1550 c3        1 MVD      0.186300
      4 C2          1.9810    1.3190   -0.5770 c3        1 MVD     -0.123700
      5 C3          1.6060    0.0500    0.1940 c3        1 MVD      0.152100
      6 C4          1.9830    0.1110    1.6720 c3        1 MVD     -0.032200
      7 C5          1.6430    1.4000    2.3430 ce        1 MVD     -0.072200
      8 C6          1.1260    1.3980    3.5890 cf        1 MVD     -0.113000
      9 C7          0.7490    2.5800    4.3290 cf        1 MVD     -0.148000
     10 C8          0.5960    2.6530    5.6620 c2        1 MVD     -0.081400
     11 C9          0.7920    1.5130    6.6090 c3        1 MVD     -0.044200
     12 C10         1.9290    2.6140    1.5770 ce        1 MVD     -0.085200
     13 C11         1.5910    1.8670    7.8540 c3        1 MVD     -0.071400
     14 C12         1.2180    3.1930    8.4920 c3        1 MVD     -0.065400
     15 C13         1.1650    4.3020    7.4530 c3        1 MVD     -0.045000
     16 C14         0.1380    3.8770    6.3690 c3        1 MVD     -0.035500
     17 C15        -0.1630    5.1700    5.6200 c3        1 MVD     -0.073400
     18 C16        -0.0340    6.2750    6.6760 c3        1 MVD     -0.076400
     19 C17         0.5330    5.6240    7.9470 c3        1 MVD     -0.054700
     20 C18         2.5400    4.5280    6.8530 c3        1 MVD     -0.081100
     21 C19         2.5510    3.6820    2.0880 c2        1 MVD     -0.183000
     22 C20         1.4170    6.4980    8.8290 c3        1 MVD     -0.052700
     23 C21         0.5520    7.2290    9.8430 c3        1 MVD     -0.093100
     24 C22         2.2850    7.5020    8.0810 c3        1 MVD     -0.077400
     25 C23         3.5120    7.8880    8.8840 c3        1 MVD     -0.079400
     26 C24         4.3470    8.9050    8.1370 c3        1 MVD     -0.064400
     27 C25         5.5120    9.4490    8.9700 c3        1 MVD      0.147800
     28 C26         6.4290    8.3340    9.4560 c3        1 MVD     -0.123100
     29 C27         6.3090   10.4500    8.1390 c3        1 MVD     -0.123100
     30 O1          1.8210    3.7550   -0.5130 oh        1 MVD     -0.596800
     31 C28         3.4730    1.3970   -0.8020 c3        1 MVD     -0.089100
     32 HO3        -0.0340   -0.2280   -0.8000 ho        1 MVD      0.396000
     33 H25         5.6480   10.4650   10.6170 ho        1 MVD      0.396000
     34 H1          0.3130    2.4890    0.1730 h1        1 MVD      0.053700
     35 H2          1.4750    1.2780   -1.5840 hc        1 MVD      0.038700
     36 H3          2.1450   -0.8250   -0.2770 h1        1 MVD      0.031700
     37 H41         3.0940   -0.0450    1.7480 hc        1 MVD      0.060200
     38 H42         1.4760   -0.7450    2.1950 hc        1 MVD      0.060200
     39 H6          0.9410    0.4290    4.0880 ha        1 MVD      0.124000
     40 H7          0.5650    3.4820    3.7130 ha        1 MVD      0.134000
     41 H91         1.3060    0.6560    6.0990 hc        1 MVD      0.046200
     42 H92        -0.2270    1.1530    6.9200 hc        1 MVD      0.046200
     43 H111        2.6830    1.8810    7.5930 hc        1 MVD      0.039200
     44 H112        1.4470    1.0500    8.6100 hc        1 MVD      0.039200
     45 H121        0.2180    3.1020    8.9930 hc        1 MVD      0.040700
     46 H122        1.9690    3.4490    9.2840 hc        1 MVD      0.040700
     47 H14        -0.8160    3.5850    6.9050 hc        1 MVD      0.054700
     48 H151       -1.1860    5.1490    5.1730 hc        1 MVD      0.044700
     49 H152        0.5700    5.3380    4.7920 hc        1 MVD      0.044700
     50 H161       -1.0310    6.7310    6.8970 hc        1 MVD      0.043200
     51 H162        0.6290    7.0890    6.2960 hc        1 MVD      0.043200
     52 H17        -0.3510    5.3210    8.5850 hc        1 MVD      0.043700
     53 H181        2.4920    5.3080    6.0540 hc        1 MVD      0.037033
     54 H182        2.9270    3.5890    6.3900 hc        1 MVD      0.037033
     55 H183        3.2560    4.8620    7.6430 hc        1 MVD      0.037033
     56 H191        2.8910    3.7150    3.1320 ha        1 MVD      0.125500
     57 H192        2.7550    4.5770    1.4860 ha        1 MVD      0.125500
     58 H20         2.1010    5.8010    9.3960 hc        1 MVD      0.047700
     59 H211        0.0330    6.5020   10.5120 hc        1 MVD      0.034033
     60 H212       -0.2200    7.8460    9.3240 hc        1 MVD      0.034033
     61 H213        1.1790    7.9040   10.4750 hc        1 MVD      0.034033
     62 H221        2.6200    7.0710    7.1020 hc        1 MVD      0.042700
     63 H222        1.6830    8.4210    7.8520 hc        1 MVD      0.042700
     64 H231        3.2100    8.3190    9.8750 hc        1 MVD      0.047700
     65 H232        4.1260    6.9710    9.0890 hc        1 MVD      0.047700
     66 H241        3.6990    9.7700    7.8370 hc        1 MVD      0.047200
     67 H242        4.7680    8.4460    7.2050 hc        1 MVD      0.047200
     68 H261        7.3480    8.7630    9.9230 hc        1 MVD      0.042200
     69 H262        6.7310    7.6860    8.5990 hc        1 MVD      0.042200
     70 H263        5.9030    7.7100   10.2170 hc        1 MVD      0.042200
     71 H271        6.7390    9.9450    7.2420 hc        1 MVD      0.042200
     72 H272        7.1430   10.8790    8.7440 hc        1 MVD      0.042200
     73 H273        5.6460   11.2830    7.8060 hc        1 MVD      0.042200
     74 HO1         1.5160    3.6660   -1.4230 ho        1 MVD      0.399000
     75 H281        3.8220    0.5340   -1.4170 hc        1 MVD      0.043033
     76 H282        4.0180    1.3870    0.1730 hc        1 MVD      0.043033
     77 H283        3.7270    2.3470   -1.3340 hc        1 MVD      0.043033
@<TRIPOS>BOND
     1    1    5 1   
     2    1   32 1   
     3    2   27 1   
     4    2   33 1   
     5    3    4 1   
     6    3   12 1   
     7    3   30 1   
     8    3   34 1   
     9    4    5 1   
    10    4   31 1   
    11    4   35 1   
    12    5    6 1   
    13    5   36 1   
    14    6    7 1   
    15    6   37 1   
    16    6   38 1   
    17    7    8 2   
    18    7   12 1   
    19    8    9 1   
    20    8   39 1   
    21    9   10 2   
    22    9   40 1   
    23   10   11 1   
    24   10   16 1   
    25   11   13 1   
    26   11   41 1   
    27   11   42 1   
    28   12   21 2   
    29   13   14 1   
    30   13   43 1   
    31   13   44 1   
    32   14   15 1   
    33   14   45 1   
    34   14   46 1   
    35   15   16 1   
    36   15   19 1   
    37   15   20 1   
    38   16   17 1   
    39   16   47 1   
    40   17   18 1   
    41   17   48 1   
    42   17   49 1   
    43   18   19 1   
    44   18   50 1   
    45   18   51 1   
    46   19   22 1   
    47   19   52 1   
    48   20   53 1   
    49   20   54 1   
    50   20   55 1   
    51   21   56 1   
    52   21   57 1   
    53   22   23 1   
    54   22   24 1   
    55   22   58 1   
    56   23   59 1   
    57   23   60 1   
    58   23   61 1   
    59   24   25 1   
    60   24   62 1   
    61   24   63 1   
    62   25   26 1   
    63   25   64 1   
    64   25   65 1   
    65   26   27 1   
    66   26   66 1   
    67   26   67 1   
    68   27   28 1   
    69   27   29 1   
    70   28   68 1   
    71   28   69 1   
    72   28   70 1   
    73   29   71 1   
    74   29   72 1   
    75   29   73 1   
    76   30   74 1   
    77   31   75 1   
    78   31   76 1   
    79   31   77 1   
@<TRIPOS>SUBSTRUCTURE
     1 MVD         1 TEMP              0 ****  ****    0 ROOT
