@<TRIPOS>MOLECULE
MVF
   67    69     1     0     0
SMALL
bcc


@<TRIPOS>ATOM
      1 C1         -0.0300   -0.2140    0.0380 c3        1 MVF     -0.089700
      2 C2          1.4950   -0.1610    0.0640 c3        1 MVF     -0.080400
      3 C3          2.0090   -0.3450    1.4810 c3        1 MVF     -0.081900
      4 C4          1.4220    0.6860    2.4190 c3        1 MVF     -0.089400
      5 C5         -0.0910    0.6640    2.3820 c3        1 MVF     -0.081900
      6 C6         -0.6190    0.8370    0.9690 c3        1 MVF     -0.080400
      7 N7         -2.0470   -0.2030   -1.5120 ny        1 MVF     -0.767000
      8 C8         -0.5290   -0.0910   -1.4180 c3        1 MVF      0.072500
      9 C9         -0.1470    1.2910   -2.0270 c         1 MVF      0.646100
     10 O0         -0.8370    2.2830   -1.7280 o         1 MVF     -0.556100
     11 N11         0.8590    1.3770   -2.9580 n         1 MVF     -0.444800
     12 C12         1.5590    2.6200   -3.3310 cy        1 MVF      0.016700
     13 C13         0.9320    3.3900   -4.4830 c         1 MVF      0.534100
     14 O14        -0.1360    3.1850   -5.0290 o         1 MVF     -0.365100
     15 N15         1.7610    4.5610   -4.9810 ny        1 MVF     -0.679800
     16 C16         1.2640    5.1260   -6.2850 c3        1 MVF      0.164100
     17 C17         2.0510    6.3120   -6.7420 ca        1 MVF     -0.149300
     18 C22         1.6790    7.6000   -6.3370 ca        1 MVF     -0.089000
     19 C21         2.3360    8.7180   -6.8540 ca        1 MVF     -0.079500
     20 C20         3.3700    8.5500   -7.7830 ca        1 MVF     -0.199900
     21 C19         3.7500    7.2650   -8.1880 ca        1 MVF     -0.079500
     22 C18         3.0910    6.1500   -7.6670 ca        1 MVF     -0.089000
     23 C23         4.1120    9.7370   -8.2860 ce        1 MVF      0.558800
     24 N25         3.5790   10.2570   -9.5910 nz        1 MVF     -0.818600
     25 N24         5.1050   10.3640   -7.7910 n2        1 MVF     -0.658100
     26 C26         2.8030    1.7600   -3.7190 cy        1 MVF     -0.102400
     27 C27         2.0140    0.5080   -3.2510 cy        1 MVF      0.081000
     28 C28        -2.5930   -1.4140   -0.8370 c3        1 MVF      0.035800
     29 C29        -4.0470   -1.6750   -1.2210 c         1 MVF      0.507100
     30 O30        -4.6600   -1.0810   -2.0940 o         1 MVF     -0.342100
     31 N30        -4.7700   -2.7510   -0.4820 nz        1 MVF     -0.739400
     32 H1         -0.3230   -1.2380    0.4140 hc        1 MVF      0.067700
     33 H21C        1.8440    0.8300   -0.3270 hc        1 MVF      0.044450
     34 H22C        1.9120   -0.9750   -0.5850 hc        1 MVF      0.044450
     35 H61C       -0.3600    1.8650    0.5980 hc        1 MVF      0.044450
     36 H62C       -1.7380    0.7580    0.9940 hc        1 MVF      0.044450
     37 H8         -0.0980   -0.9380   -2.0320 hx        1 MVF      0.124700
     38 H31C        3.1280   -0.2580    1.4760 hc        1 MVF      0.074450
     39 H32C        1.7580   -1.3770    1.8430 hc        1 MVF      0.074450
     40 H41C        1.7930    1.7090    2.1440 hc        1 MVF      0.078700
     41 H42C        1.7710    0.4780    3.4670 hc        1 MVF      0.078700
     42 H51C       -0.4630   -0.3050    2.8080 hc        1 MVF      0.074450
     43 H52C       -0.4950    1.4910    3.0250 hc        1 MVF      0.074450
     44 H7         -2.4410    0.6540   -1.0740 hn        1 MVF      0.487800
     45 H281       -2.5050   -1.2660    0.2860 hx        1 MVF      0.167200
     46 H282       -1.9670   -2.3140   -1.1320 hx        1 MVF      0.167200
     47 H12         1.7000    3.3230   -2.4620 h1        1 MVF      0.132700
     48 H271        2.4540   -0.0050   -2.3590 h1        1 MVF      0.104700
     49 H272        1.7830   -0.2340   -4.0560 h1        1 MVF      0.104700
     50 H261        3.7090    1.9840   -3.1100 hc        1 MVF      0.109200
     51 H262        3.0580    1.7550   -4.8010 hc        1 MVF      0.109200
     52 H15         1.7400    5.3020   -4.2680 hn        1 MVF      0.465800
     53 H161        0.1780    5.4070   -6.1390 hx        1 MVF      0.130200
     54 H162        1.3110    4.2970   -7.0510 hx        1 MVF      0.130200
     55 H18         3.3870    5.1440   -8.0120 ha        1 MVF      0.165500
     56 H22         0.8500    7.7500   -5.6250 ha        1 MVF      0.165500
     57 H19         4.5710    7.1190   -8.9120 ha        1 MVF      0.180000
     58 H21         2.0330    9.7270   -6.5220 ha        1 MVF      0.180000
     59 H24         5.5120   10.0730   -6.9260 hn        1 MVF      0.500400
     60 H25A        3.6270    9.5100  -10.2930 hn        1 MVF      0.482800
     61 H25B        2.6020   10.5440   -9.4630 hn        1 MVF      0.482800
     62 H301       -5.7280   -2.8580   -0.8770 hn        1 MVF      0.507467
     63 H302       -4.2840   -3.6560   -0.5680 hn        1 MVF      0.507467
     64 H72        -2.3190   -0.2000   -2.5060 hn        1 MVF      0.487800
     65 H152        2.7360    4.2560   -5.0910 hn        1 MVF      0.465800
     66 H253        4.1250   11.0690   -9.9270 hn        1 MVF      0.482800
     67 H303       -4.8620   -2.5150    0.5190 hn        1 MVF      0.507467
@<TRIPOS>BOND
     1    1    2 1   
     2    1    6 1   
     3    1    8 1   
     4    1   32 1   
     5    2    3 1   
     6    2   33 1   
     7    2   34 1   
     8    3    4 1   
     9    3   38 1   
    10    3   39 1   
    11    4    5 1   
    12    4   40 1   
    13    4   41 1   
    14    5    6 1   
    15    5   42 1   
    16    5   43 1   
    17    6   35 1   
    18    6   36 1   
    19    7    8 1   
    20    7   28 1   
    21    7   44 1   
    22    7   64 1   
    23    8    9 1   
    24    8   37 1   
    25    9   10 2   
    26    9   11 1   
    27   11   12 1   
    28   11   27 1   
    29   12   13 1   
    30   12   26 1   
    31   12   47 1   
    32   13   14 2   
    33   13   15 1   
    34   15   16 1   
    35   15   52 1   
    36   15   65 1   
    37   16   17 1   
    38   16   53 1   
    39   16   54 1   
    40   17   18 ar  
    41   17   22 ar  
    42   18   19 ar  
    43   18   56 1   
    44   19   20 ar  
    45   19   58 1   
    46   20   21 ar  
    47   20   23 1   
    48   21   22 ar  
    49   21   57 1   
    50   22   55 1   
    51   23   24 1   
    52   23   25 2   
    53   24   60 1   
    54   24   61 1   
    55   24   66 1   
    56   25   59 1   
    57   26   27 1   
    58   26   50 1   
    59   26   51 1   
    60   27   48 1   
    61   27   49 1   
    62   28   29 1   
    63   28   45 1   
    64   28   46 1   
    65   29   30 2   
    66   29   31 1   
    67   31   62 1   
    68   31   63 1   
    69   31   67 1   
@<TRIPOS>SUBSTRUCTURE
     1 MVF         1 TEMP              0 ****  ****    0 ROOT
