@<TRIPOS>MOLECULE
MVF
   63    65     1     0     0
SMALL
bcc


@<TRIPOS>ATOM
      1 C1         -3.8310    1.0990   -0.1490 c3        1 MVF     -0.087700
      2 C2         -3.7040    2.2720    0.8100 c3        1 MVF     -0.081900
      3 C3         -4.4030    3.5020    0.2700 c3        1 MVF     -0.073400
      4 C4         -3.8820    3.8710   -1.1030 c3        1 MVF     -0.079400
      5 C5         -4.0070    2.7050   -2.0620 c3        1 MVF     -0.073400
      6 C6         -3.3130    1.4670   -1.5310 c3        1 MVF     -0.081900
      7 N7         -3.3290   -1.4020   -0.2730 n3        1 MVF     -0.806200
      8 C8         -3.1470   -0.1510    0.4470 c3        1 MVF      0.126500
      9 C9         -1.6250    0.0900    0.5900 c         1 MVF      0.681100
     10 O0         -0.8680    0.1370   -0.4010 o         1 MVF     -0.618100
     11 N11        -1.0980    0.1760    1.8540 n         1 MVF     -0.474800
     12 C12         0.2250    0.6670    2.2550 cy        1 MVF      0.025700
     13 C13         1.3760   -0.3350    2.1880 c         1 MVF      0.661100
     14 O14         2.1130   -0.5090    3.1810 o         1 MVF     -0.625100
     15 N15         1.5510   -1.0090    1.0040 n         1 MVF     -0.548900
     16 C16         2.6580   -1.8990    0.7870 c3        1 MVF      0.134300
     17 C17         3.8900   -1.2470    0.2220 ca        1 MVF     -0.107300
     18 C22         4.2720   -1.4720   -1.1020 ca        1 MVF     -0.123500
     19 C21         5.4340   -0.8890   -1.6070 ca        1 MVF     -0.104000
     20 C20         6.2200   -0.0780   -0.7840 ca        1 MVF     -0.139900
     21 C19         5.8340    0.1610    0.5400 ca        1 MVF     -0.104000
     22 C18         4.6730   -0.4230    1.0390 ca        1 MVF     -0.123500
     23 C23         7.4710    0.5410   -1.3280 ce        1 MVF      0.650800
     24 N25         8.5980    0.4060   -0.4850 nh        1 MVF     -0.959800
     25 N24         7.4070    1.1820   -2.4550 n2        1 MVF     -0.826100
     26 C26        -0.3450    0.9110    3.6830 cy        1 MVF     -0.094400
     27 C27        -1.7220    0.4280    3.1530 cy        1 MVF      0.084000
     28 C28        -4.6610   -1.9440   -0.2700 c3        1 MVF      0.106800
     29 C29        -5.5590   -1.5350   -1.4480 c         1 MVF      0.614100
     30 O30        -5.0830   -1.1170   -2.5230 o         1 MVF     -0.613100
     31 N30        -6.9160   -1.6690   -1.2990 n         1 MVF     -0.674000
     32 H1         -4.9270    0.8480   -0.2520 hc        1 MVF      0.050700
     33 H21C       -4.1490    1.9980    1.8030 hc        1 MVF      0.051700
     34 H22C       -2.6180    2.5040    0.9750 hc        1 MVF      0.051700
     35 H61C       -2.2060    1.6430   -1.4880 hc        1 MVF      0.051700
     36 H62C       -3.4960    0.6150   -2.2400 hc        1 MVF      0.051700
     37 H8         -3.5940   -0.3010    1.4780 h1        1 MVF      0.058700
     38 H31C       -5.5070    3.3100    0.2120 hc        1 MVF      0.040950
     39 H32C       -4.2470    4.3590    0.9760 hc        1 MVF      0.040950
     40 H41C       -4.4570    4.7480   -1.4990 hc        1 MVF      0.041200
     41 H42C       -2.8070    4.1790   -1.0250 hc        1 MVF      0.041200
     42 H51C       -5.0910    2.4800   -2.2380 hc        1 MVF      0.040950
     43 H52C       -3.5560    2.9820   -3.0500 hc        1 MVF      0.040950
     44 H7         -2.9600   -1.3330   -1.2070 hn        1 MVF      0.407800
     45 H281       -4.5470   -3.0670   -0.3450 h1        1 MVF      0.070700
     46 H282       -5.1720   -1.7060    0.7040 h1        1 MVF      0.070700
     47 H12         0.5390    1.5960    1.7090 h1        1 MVF      0.086700
     48 H271       -2.5180    1.2130    3.1320 h1        1 MVF      0.057700
     49 H272       -2.1140   -0.5040    3.6270 h1        1 MVF      0.057700
     50 H261        0.1110    0.2620    4.4610 hc        1 MVF      0.080700
     51 H262       -0.3200    1.9740    4.0020 hc        1 MVF      0.080700
     52 H15         1.0130   -0.7390    0.2080 hn        1 MVF      0.344500
     53 H161        2.9320   -2.3770    1.7750 h1        1 MVF      0.066700
     54 H162        2.3090   -2.7100    0.0840 h1        1 MVF      0.066700
     55 H18         4.3570   -0.2400    2.0810 ha        1 MVF      0.146500
     56 H22         3.6540   -2.1080   -1.7550 ha        1 MVF      0.146500
     57 H19         6.4360    0.8190    1.1850 ha        1 MVF      0.146000
     58 H21         5.7220   -1.0570   -2.6560 ha        1 MVF      0.146000
     59 H24         8.2590    1.5810   -2.7890 hn        1 MVF      0.381400
     60 H25A        8.5390   -0.3180    0.1930 hn        1 MVF      0.397800
     61 H25B        9.4900    0.4930   -0.9140 hn        1 MVF      0.397800
     62 H301       -7.3060   -2.0450   -0.4760 hn        1 MVF      0.311500
     63 H302       -7.5140   -1.4660   -2.0620 hn        1 MVF      0.311500
@<TRIPOS>BOND
     1    1    2 1   
     2    1    6 1   
     3    1    8 1   
     4    1   32 1   
     5    2    3 1   
     6    2   33 1   
     7    2   34 1   
     8    3    4 1   
     9    3   38 1   
    10    3   39 1   
    11    4    5 1   
    12    4   40 1   
    13    4   41 1   
    14    5    6 1   
    15    5   42 1   
    16    5   43 1   
    17    6   35 1   
    18    6   36 1   
    19    7    8 1   
    20    7   28 1   
    21    7   44 1   
    22    8    9 1   
    23    8   37 1   
    24    9   10 2   
    25    9   11 1   
    26   11   12 1   
    27   11   27 1   
    28   12   13 1   
    29   12   26 1   
    30   12   47 1   
    31   13   14 2   
    32   13   15 1   
    33   15   16 1   
    34   15   52 1   
    35   16   17 1   
    36   16   53 1   
    37   16   54 1   
    38   17   18 ar  
    39   17   22 ar  
    40   18   19 ar  
    41   18   56 1   
    42   19   20 ar  
    43   19   58 1   
    44   20   21 ar  
    45   20   23 1   
    46   21   22 ar  
    47   21   57 1   
    48   22   55 1   
    49   23   24 1   
    50   23   25 2   
    51   24   60 1   
    52   24   61 1   
    53   25   59 1   
    54   26   27 1   
    55   26   50 1   
    56   26   51 1   
    57   27   48 1   
    58   27   49 1   
    59   28   29 1   
    60   28   45 1   
    61   28   46 1   
    62   29   30 2   
    63   29   31 1   
    64   31   62 1   
    65   31   63 1   
@<TRIPOS>SUBSTRUCTURE
     1 MVF         1 TEMP              0 ****  ****    0 ROOT
