@<TRIPOS>MOLECULE
MVF
   67    69     1     0     0
SMALL
bcc


@<TRIPOS>ATOM
      1 C1         -0.0260   -0.2050    0.0410 c3        1 MVF     -0.089700
      2 C2          1.4980   -0.1450    0.0730 c3        1 MVF     -0.080400
      3 C3          2.0070   -0.3220    1.4920 c3        1 MVF     -0.081900
      4 C4          1.4110    0.7090    2.4250 c3        1 MVF     -0.089400
      5 C5         -0.1010    0.6790    2.3820 c3        1 MVF     -0.081900
      6 C6         -0.6240    0.8450    0.9660 c3        1 MVF     -0.080400
      7 N7         -2.0370   -0.2100   -1.5170 n4        1 MVF     -0.767000
      8 C8         -0.5210   -0.0900   -1.4180 c3        1 MVF      0.072500
      9 C9         -0.1430    1.2920   -2.0300 c         1 MVF      0.646100
     10 O0         -0.8400    2.2810   -1.7360 o         1 MVF     -0.556100
     11 N11         0.8660    1.3810   -2.9570 n         1 MVF     -0.444800
     12 C12         1.5610    2.6260   -3.3310 cy        1 MVF      0.016700
     13 C13         0.9350    3.3890   -4.4880 c         1 MVF      0.534100
     14 O14        -0.1300    3.1760   -5.0380 o         1 MVF     -0.365100
     15 N15         1.7590    4.5630   -4.9860 n4        1 MVF     -0.679800
     16 C16         1.2680    5.1180   -6.2960 c3        1 MVF      0.164100
     17 C17         2.0490    6.3080   -6.7530 ca        1 MVF     -0.149300
     18 C22         1.6630    7.5950   -6.3570 ca        1 MVF     -0.089000
     19 C21         2.3150    8.7160   -6.8740 ca        1 MVF     -0.079500
     20 C20         3.3570    8.5520   -7.7940 ca        1 MVF     -0.199900
     21 C19         3.7510    7.2690   -8.1900 ca        1 MVF     -0.079500
     22 C18         3.0970    6.1500   -7.6680 ca        1 MVF     -0.089000
     23 C23         4.0930    9.7430   -8.2970 ce        1 MVF      0.558800
     24 N25         3.5690   10.2480   -9.6120 n4        1 MVF     -0.818600
     25 N24         5.0740   10.3830   -7.7960 n2        1 MVF     -0.658100
     26 C26         2.8110    1.7710   -3.7110 cy        1 MVF     -0.102400
     27 C27         2.0270    0.5170   -3.2420 cy        1 MVF      0.081000
     28 C28        -2.5800   -1.4210   -0.8410 c3        1 MVF      0.035800
     29 C29        -4.0320   -1.6910   -1.2300 c         1 MVF      0.507100
     30 O30        -4.6430   -1.1030   -2.1070 o         1 MVF     -0.342100
     31 N30        -4.7520   -2.7680   -0.4900 n4        1 MVF     -0.739400
     32 H1         -0.3160   -1.2300    0.4190 hc        1 MVF      0.067700
     33 H21C        1.9210   -0.9590   -0.5730 hc        1 MVF      0.044450
     34 H22C        1.8430    0.8470   -0.3200 hc        1 MVF      0.044450
     35 H61C       -0.3700    1.8730    0.5930 hc        1 MVF      0.044450
     36 H62C       -1.7430    0.7610    0.9870 hc        1 MVF      0.044450
     37 H8         -0.0830   -0.9360   -2.0270 hx        1 MVF      0.124700
     38 H31C        3.1260   -0.2300    1.4920 hc        1 MVF      0.074450
     39 H32C        1.7600   -1.3550    1.8570 hc        1 MVF      0.074450
     40 H41C        1.7570    0.5060    3.4750 hc        1 MVF      0.078700
     41 H42C        1.7780    1.7320    2.1480 hc        1 MVF      0.078700
     42 H51C       -0.5120    1.5060    3.0210 hc        1 MVF      0.074450
     43 H52C       -0.4710   -0.2910    2.8090 hc        1 MVF      0.074450
     44 H7         -2.3060   -0.2110   -2.5130 hn        1 MVF      0.487800
     45 H281       -2.4970   -1.2700    0.2830 hx        1 MVF      0.167200
     46 H282       -1.9490   -2.3190   -1.1310 hx        1 MVF      0.167200
     47 H12         1.6950    3.3330   -2.4640 h1        1 MVF      0.132700
     48 H271        1.8030   -0.2290   -4.0460 h1        1 MVF      0.104700
     49 H272        2.4660    0.0090   -2.3470 h1        1 MVF      0.104700
     50 H261        3.0700    1.7640   -4.7920 hc        1 MVF      0.109200
     51 H262        3.7130    2.0010   -3.0990 hc        1 MVF      0.109200
     52 H15         2.7370    4.2650   -5.0870 hn        1 MVF      0.465800
     53 H161        1.3280    4.2860   -7.0580 hx        1 MVF      0.130200
     54 H162        0.1780    5.3910   -6.1600 hx        1 MVF      0.130200
     55 H18         3.4040    5.1460   -8.0070 ha        1 MVF      0.165500
     56 H22         0.8270    7.7410   -5.6520 ha        1 MVF      0.165500
     57 H19         4.5790    7.1260   -8.9070 ha        1 MVF      0.180000
     58 H21         2.0010    9.7240   -6.5500 ha        1 MVF      0.180000
     59 H24         5.4740   10.1030   -6.9230 hn        1 MVF      0.500400
     60 H25A        2.5880   10.5270   -9.4970 hn        1 MVF      0.482800
     61 H25B        3.6330    9.4970  -10.3080 hn        1 MVF      0.482800
     62 H301       -4.8490   -2.5300    0.5100 hn        1 MVF      0.507467
     63 H302       -4.2610   -3.6710   -0.5710 hn        1 MVF      0.507467
     64 H72        -2.4370    0.6470   -1.0830 hn        1 MVF      0.487800
     65 H152        1.7270    5.3080   -4.2770 hn        1 MVF      0.465800
     66 H253        4.1120   11.0630   -9.9470 hn        1 MVF      0.482800
     67 H303       -5.7080   -2.8810   -0.8880 hn        1 MVF      0.507467
@<TRIPOS>BOND
     1    1    2 1   
     2    1    6 1   
     3    1    8 1   
     4    1   32 1   
     5    2    3 1   
     6    2   33 1   
     7    2   34 1   
     8    3    4 1   
     9    3   38 1   
    10    3   39 1   
    11    4    5 1   
    12    4   40 1   
    13    4   41 1   
    14    5    6 1   
    15    5   42 1   
    16    5   43 1   
    17    6   35 1   
    18    6   36 1   
    19    7    8 1   
    20    7   28 1   
    21    7   44 1   
    22    7   64 1   
    23    8    9 1   
    24    8   37 1   
    25    9   10 2   
    26    9   11 1   
    27   11   12 1   
    28   11   27 1   
    29   12   13 1   
    30   12   26 1   
    31   12   47 1   
    32   13   14 2   
    33   13   15 1   
    34   15   16 1   
    35   15   52 1   
    36   15   65 1   
    37   16   17 1   
    38   16   53 1   
    39   16   54 1   
    40   17   18 ar  
    41   17   22 ar  
    42   18   19 ar  
    43   18   56 1   
    44   19   20 ar  
    45   19   58 1   
    46   20   21 ar  
    47   20   23 1   
    48   21   22 ar  
    49   21   57 1   
    50   22   55 1   
    51   23   24 1   
    52   23   25 2   
    53   24   60 1   
    54   24   61 1   
    55   24   66 1   
    56   25   59 1   
    57   26   27 1   
    58   26   50 1   
    59   26   51 1   
    60   27   48 1   
    61   27   49 1   
    62   28   29 1   
    63   28   45 1   
    64   28   46 1   
    65   29   30 2   
    66   29   31 1   
    67   31   62 1   
    68   31   63 1   
    69   31   67 1   
@<TRIPOS>SUBSTRUCTURE
     1 MVF         1 TEMP              0 ****  ****    0 ROOT
