@<TRIPOS>MOLECULE
MVF
   63    62     1     0     0
SMALL
bcc


@<TRIPOS>ATOM
      1 C1         -0.2100   -2.5690    1.6490 c3        1 MVF     -0.090000
      2 C2         -1.6380   -2.8700    2.2730 c3        1 MVF     -0.156500
      3 C3         -1.6020   -3.0790    3.8110 c3        1 MVF     -0.153000
      4 C4         -0.3460   -3.3760    4.2470 c3        1 MVF     -0.157000
      5 C5          0.5180   -4.1580    3.6150 c3        1 MVF     -0.153000
      6 C6          0.4700   -3.9450    2.0740 c3        1 MVF     -0.156500
      7 N7         -1.7210   -2.7590   -0.1870 n3        1 MVF     -0.296000
      8 C8         -0.2660   -2.4560    0.3060 c3        1 MVF     -0.018000
      9 C9          0.1650   -1.0120   -0.1430 c2        1 MVF      0.202000
     10 O0         -0.2960   -0.0430    0.4150 o         1 MVF     -0.291000
     11 N11         0.8390   -0.8620   -1.3200 n         1 MVF     -0.112000
     12 C12         1.2020    0.2870   -2.2090 cy        1 MVF     -0.327000
     13 C13         1.2060    0.2900   -2.2060 c2        1 MVF      0.117000
     14 O14         1.9760   -0.2400   -1.1990 o         1 MVF     -0.127000
     15 N15         1.3090    2.1650   -2.6160 n         1 MVF     -0.264000
     16 C16         2.5740    3.1240   -1.9850 c3        1 MVF     -0.016000
     17 C17         1.9490    4.4970   -1.3430 c2        1 MVF     -0.074000
     18 C22         1.5930    4.5230   -0.0000 c2        1 MVF     -0.110000
     19 C21         0.8690    5.6150    0.5170 c1        1 MVF     -0.114000
     20 C20         0.5060    6.6770   -0.3220 c1        1 MVF     -0.110000
     21 C19         0.8660    6.6540   -1.6910 c1        1 MVF     -0.096000
     22 C18         1.5760    5.5800   -2.1990 c1        1 MVF     -0.135000
     23 C23        -0.1280    7.8680    0.2430 c2        1 MVF      0.114000
     24 N25        -1.5760    8.0170    0.1910 n3        1 MVF     -0.331000
     25 N24         0.6270    8.8310    0.8160 n1        1 MVF     -0.301000
     26 C26         1.7960   -0.7260   -3.1520 cy        1 MVF     -0.124000
     27 C27         1.5020   -1.7830   -2.2280 cy        1 MVF     -0.100000
     28 C28        -1.8790   -4.4320   -0.4640 c3        1 MVF     -0.106000
     29 C29        -3.4180   -4.7870   -0.8200 c2        1 MVF      0.300000
     30 O30        -4.3320   -4.0140   -0.4720 o         1 MVF     -0.375000
     31 N30        -3.7540   -6.0930   -1.5150 n         1 MVF     -0.423000
     32 H1          0.2630   -1.7350    2.1070 hc        1 MVF      0.108000
     33 H21C       -1.9550   -3.5860    1.9050 hc        1 MVF      0.087750
     34 H22C       -2.2770   -2.0660    2.0550 hc        1 MVF      0.087750
     35 H61C        1.4280   -3.9590    1.7130 hc        1 MVF      0.087750
     36 H62C       -0.0050   -4.6440    1.6900 hc        1 MVF      0.087750
     37 H8          0.3230   -3.0820   -0.0780 h1        1 MVF      0.115000
     38 H31C       -2.2630   -3.8940    4.0710 hc        1 MVF      0.080500
     39 H32C       -1.9160   -2.2480    4.2610 hc        1 MVF      0.080500
     40 H41C       -0.4810   -3.8450    5.3190 hc        1 MVF      0.079500
     41 H42C        0.1350   -2.4590    4.3800 hc        1 MVF      0.079500
     42 H51C        0.2960   -5.1330    3.8220 hc        1 MVF      0.080500
     43 H52C        1.4500   -3.9530    3.9460 hc        1 MVF      0.080500
     44 H7         -1.8910   -2.2610   -1.0430 hn        1 MVF      0.182000
     45 H281       -1.2780   -4.7010   -1.2580 h1        1 MVF      0.105000
     46 H282       -1.5740   -4.9710    0.4120 h1        1 MVF      0.105000
     47 H12         0.5610    1.0120   -2.7100 h1        1 MVF      0.149000
     48 H271        0.8620   -2.4770   -2.6100 h1        1 MVF      0.109500
     49 H272        2.2420   -2.1450   -1.8760 h1        1 MVF      0.109500
     50 H261        1.2740   -0.8150   -4.0180 hc        1 MVF      0.095500
     51 H262        2.7640   -0.6100   -3.3010 hc        1 MVF      0.095500
     52 H15         0.7510    2.5090   -3.2120 hn        1 MVF      0.202000
     53 H161        3.1760    3.3480   -2.6770 h1        1 MVF      0.101000
     54 H162        3.0320    2.6410   -1.3190 h1        1 MVF      0.101000
     55 H18         1.8420    5.5660   -3.2140 ha        1 MVF      0.134000
     56 H22         1.8410    3.7970    0.5710 ha        1 MVF      0.146000
     57 H19         0.6100    7.4010   -2.2790 ha        1 MVF      0.151000
     58 H21         0.6100    5.6320    1.5050 ha        1 MVF      0.141000
     59 H24         1.5530    8.7390    0.8540 DU        1 MVF      0.151000
     60 H25A       -1.9590    8.7800    0.4690 hn        1 MVF      0.193500
     61 H25B       -2.1320    7.2910   -0.1670 hn        1 MVF      0.193500
     62 H301       -3.0630   -6.8100   -1.5910 hn        1 MVF      0.231500
     63 H302       -4.6000   -6.2440   -1.8120 hn        1 MVF      0.231500
@<TRIPOS>BOND
     1    1    2 1   
     2    1    6 1   
     3    1    8 1   
     4    1   32 1   
     5    2    3 1   
     6    2   33 1   
     7    2   34 1   
     8    3    4 1   
     9    3   38 1   
    10    3   39 1   
    11    4    5 1   
    12    4   40 1   
    13    4   41 1   
    14    5    6 1   
    15    5   42 1   
    16    5   43 1   
    17    6   35 1   
    18    6   36 1   
    19    7    8 1   
    20    7   28 1   
    21    7   44 1   
    22    8    9 1   
    23    8   37 1   
    24    9   10 1   
    25    9   11 1   
    26   11   12 1   
    27   11   27 1   
    28   12   13 1   
    29   12   26 1   
    30   12   47 1   
    31   13   14 1   
    32   13   15 1   
    33   15   16 1   
    34   15   52 1   
    35   16   17 1   
    36   16   53 1   
    37   16   54 1   
    38   17   18 1   
    39   17   22 1   
    40   18   19 1   
    41   18   56 1   
    42   19   58 1   
    43   20   21 1   
    44   20   23 1   
    45   21   57 1   
    46   22   55 1   
    47   23   24 1   
    48   23   25 1   
    49   24   60 1   
    50   24   61 1   
    51   26   27 1   
    52   26   50 1   
    53   26   51 1   
    54   27   48 1   
    55   27   49 1   
    56   28   29 1   
    57   28   45 1   
    58   28   46 1   
    59   29   30 1   
    60   29   31 1   
    61   31   62 1   
    62   31   63 1   
@<TRIPOS>SUBSTRUCTURE
     1 MVF         1 TEMP              0 ****  ****    0 ROOT
