@<TRIPOS>MOLECULE
MVF
   67    69     1     0     0
SMALL
bcc


@<TRIPOS>ATOM
      1 C1         -0.0330   -0.2200    0.0320 c3        1 MVF     -0.089700
      2 C2          1.4910   -0.1550    0.0710 c3        1 MVF     -0.080400
      3 C3          1.9940   -0.3350    1.4930 c3        1 MVF     -0.081900
      4 C4          1.3900    0.6910    2.4260 c3        1 MVF     -0.089400
      5 C5         -0.1220    0.6560    2.3760 c3        1 MVF     -0.081900
      6 C6         -0.6390    0.8260    0.9580 c3        1 MVF     -0.080400
      7 N7         -2.0360   -0.2250   -1.5360 n4        1 MVF     -0.767000
      8 C8         -0.5210   -0.1010   -1.4290 c3        1 MVF      0.072500
      9 C9         -0.1440    1.2840   -2.0340 c         1 MVF      0.645100
     10 O0         -0.8450    2.2700   -1.7400 o         1 MVF     -0.556100
     11 N11         0.8680    1.3790   -2.9570 n         1 MVF     -0.444800
     12 C12         1.5620    2.6270   -3.3230 cy        1 MVF      0.016700
     13 C13         0.9390    3.3920   -4.4810 c         1 MVF      0.534100
     14 O14        -0.1230    3.1790   -5.0360 o         1 MVF     -0.365100
     15 N15         1.7630    4.5690   -4.9720 n4        1 MVF     -0.679800
     16 C16         1.2700    5.1320   -6.2790 c3        1 MVF      0.164100
     17 C17         2.0530    6.3220   -6.7310 ca        1 MVF     -0.149300
     18 C22         1.6710    7.6090   -6.3290 ca        1 MVF     -0.089000
     19 C21         2.3250    8.7300   -6.8420 ca        1 MVF     -0.079500
     20 C20         3.3660    8.5680   -7.7640 ca        1 MVF     -0.199900
     21 C19         3.7560    7.2850   -8.1660 ca        1 MVF     -0.079500
     22 C18         3.1000    6.1660   -7.6490 ca        1 MVF     -0.089000
     23 C23         4.1040    9.7580   -8.2640 ce        1 MVF      0.558800
     24 N25         3.5740   10.2770   -9.5710 n4        1 MVF     -0.818600
     25 N24         5.0930   10.3900   -7.7640 n2        1 MVF     -0.658100
     26 C26         2.8160    1.7770   -3.7000 cy        1 MVF     -0.102400
     27 C27         2.0340    0.5190   -3.2390 cy        1 MVF      0.081000
     28 C28        -2.5790   -1.4400   -0.8660 c3        1 MVF      0.035800
     29 C29        -4.0280   -1.7130   -1.2630 c         1 MVF      0.507100
     30 O30        -4.6370   -1.1230   -2.1400 o         1 MVF     -0.342100
     31 N30        -4.7480   -2.7950   -0.5290 n4        1 MVF     -0.739400
     32 H1         -0.3210   -1.2460    0.4050 hc        1 MVF      0.067700
     33 H21C        1.9200   -0.9650   -0.5750 hc        1 MVF      0.044450
     34 H22C        1.8350    0.8390   -0.3160 hc        1 MVF      0.044450
     35 H61C       -0.3850    1.8560    0.5890 hc        1 MVF      0.044450
     36 H62C       -1.7570    0.7380    0.9730 hc        1 MVF      0.044450
     37 H8         -0.0780   -0.9440   -2.0390 hx        1 MVF      0.124700
     38 H31C        1.7480   -1.3690    1.8520 hc        1 MVF      0.074450
     39 H32C        3.1120   -0.2390    1.4970 hc        1 MVF      0.074450
     40 H41C        1.7550    1.7170    2.1540 hc        1 MVF      0.078700
     41 H42C        1.7320    0.4860    3.4770 hc        1 MVF      0.078700
     42 H51C       -0.4900   -0.3160    2.7970 hc        1 MVF      0.074450
     43 H52C       -0.5390    1.4800    3.0150 hc        1 MVF      0.074450
     44 H7         -2.3000   -0.2240   -2.5320 hn        1 MVF      0.487800
     45 H281       -1.9440   -2.3350   -1.1560 hx        1 MVF      0.167200
     46 H282       -2.5010   -1.2930    0.2580 hx        1 MVF      0.167200
     47 H12         1.6900    3.3310   -2.4540 h1        1 MVF      0.132700
     48 H271        2.4700    0.0100   -2.3440 h1        1 MVF      0.104700
     49 H272        1.8160   -0.2250   -4.0470 h1        1 MVF      0.104700
     50 H261        3.0810    1.7740   -4.7800 hc        1 MVF      0.108700
     51 H262        3.7150    2.0080   -3.0840 hc        1 MVF      0.108700
     52 H15         1.7330    5.3090   -4.2590 hn        1 MVF      0.465800
     53 H161        1.3260    4.3040   -7.0460 hx        1 MVF      0.130200
     54 H162        0.1810    5.4080   -6.1390 hx        1 MVF      0.130200
     55 H18         3.4040    5.1620   -7.9920 ha        1 MVF      0.165500
     56 H22         0.8360    7.7530   -5.6220 ha        1 MVF      0.165500
     57 H19         4.5820    7.1440   -8.8850 ha        1 MVF      0.180000
     58 H21         2.0140    9.7380   -6.5130 ha        1 MVF      0.180000
     59 H24         5.4970   10.1010   -6.8970 hn        1 MVF      0.500400
     60 H25A        4.1170   11.0930   -9.9030 hn        1 MVF      0.482800
     61 H25B        2.5950   10.5570   -9.4470 hn        1 MVF      0.482800
     62 H301       -5.7020   -2.9090   -0.9330 hn        1 MVF      0.507467
     63 H302       -4.2540   -3.6960   -0.6110 hn        1 MVF      0.507467
     64 H72        -2.4410    0.6290   -1.1010 hn        1 MVF      0.487800
     65 H152        2.7400    4.2710   -5.0770 hn        1 MVF      0.465800
     66 H253        3.6310    9.5310  -10.2730 hn        1 MVF      0.482800
     67 H303       -4.8520   -2.5600    0.4700 hn        1 MVF      0.507467
@<TRIPOS>BOND
     1    1    2 1   
     2    1    6 1   
     3    1    8 1   
     4    1   32 1   
     5    2    3 1   
     6    2   33 1   
     7    2   34 1   
     8    3    4 1   
     9    3   38 1   
    10    3   39 1   
    11    4    5 1   
    12    4   40 1   
    13    4   41 1   
    14    5    6 1   
    15    5   42 1   
    16    5   43 1   
    17    6   35 1   
    18    6   36 1   
    19    7    8 1   
    20    7   28 1   
    21    7   44 1   
    22    7   64 1   
    23    8    9 1   
    24    8   37 1   
    25    9   10 2   
    26    9   11 1   
    27   11   12 1   
    28   11   27 1   
    29   12   13 1   
    30   12   26 1   
    31   12   47 1   
    32   13   14 2   
    33   13   15 1   
    34   15   16 1   
    35   15   52 1   
    36   15   65 1   
    37   16   17 1   
    38   16   53 1   
    39   16   54 1   
    40   17   18 ar  
    41   17   22 ar  
    42   18   19 ar  
    43   18   56 1   
    44   19   20 ar  
    45   19   58 1   
    46   20   21 ar  
    47   20   23 1   
    48   21   22 ar  
    49   21   57 1   
    50   22   55 1   
    51   23   24 1   
    52   23   25 2   
    53   24   60 1   
    54   24   61 1   
    55   24   66 1   
    56   25   59 1   
    57   26   27 1   
    58   26   50 1   
    59   26   51 1   
    60   27   48 1   
    61   27   49 1   
    62   28   29 1   
    63   28   45 1   
    64   28   46 1   
    65   29   30 2   
    66   29   31 1   
    67   31   62 1   
    68   31   63 1   
    69   31   67 1   
@<TRIPOS>SUBSTRUCTURE
     1 MVF         1 TEMP              0 ****  ****    0 ROOT
