@<TRIPOS>MOLECULE
MVH
   25    24     1     0     0
SMALL
bcc


@<TRIPOS>ATOM
      1 OAI        -0.3350    0.8500    0.4540 o         1 MVH     -0.783500
      2 PAN         0.6250    0.7850   -0.6420 p5        1 MVH      1.437800
      3 OAJ         2.1540    0.9340   -0.1220 os        1 MVH     -0.590200
      4 CAC         2.4060    0.8300    1.2510 c3        1 MVH      0.158700
      5 OAF         0.5820    1.3430   -2.0040 o         1 MVH     -0.783500
      6 OAK         0.7690   -0.9280   -0.9670 os        1 MVH     -0.399500
      7 CAM         1.2280   -1.4870   -2.0510 c2        1 MVH      0.426900
      8 CAD         0.8350   -2.9070   -2.2600 c3        1 MVH     -0.126900
      9 CAG         2.0510   -0.7890   -2.9380 ce        1 MVH     -0.514200
     10 CAL         2.2740   -1.1250   -4.2790 c         1 MVH      0.600300
     11 OAE         2.1930   -2.1510   -4.9590 o         1 MVH     -0.555100
     12 NAH         2.6850    0.1110   -5.1220 n4        1 MVH     -0.673800
     13 CAA         1.5870    1.1000   -5.1580 c3        1 MVH      0.062100
     14 H2          3.0910   -0.0420    1.4250 h1        1 MVH      0.033033
     15 H3          1.4500    0.6950    1.8210 h1        1 MVH      0.033033
     16 H4          2.9290    1.7650    1.5850 h1        1 MVH      0.033033
     17 H6         -0.1430   -3.1230   -1.7640 hc        1 MVH      0.080367
     18 H7          0.7670   -3.1410   -3.3520 hc        1 MVH      0.080367
     19 H8          1.6160   -3.5650   -1.8020 hc        1 MVH      0.080367
     20 H9          2.3790    0.2060   -2.5660 ha        1 MVH      0.191000
     21 H11         3.5080    0.5360   -4.6930 hn        1 MVH      0.433300
     22 H12         1.9360    2.0270   -5.6810 hx        1 MVH      0.114367
     23 H13         0.7160    0.6570   -5.7070 hx        1 MVH      0.114367
     24 H14         1.2560    1.3550   -4.0990 hx        1 MVH      0.114367
     25 HAH2        2.9200   -0.1960   -6.0680 hn        1 MVH      0.433300
@<TRIPOS>BOND
     1    1    2 1   
     2    2    3 1   
     3    2    5 1   
     4    2    6 1   
     5    3    4 1   
     6    4   14 1   
     7    4   15 1   
     8    4   16 1   
     9    6    7 1   
    10    7    8 1   
    11    7    9 2   
    12    8   17 1   
    13    8   18 1   
    14    8   19 1   
    15    9   10 1   
    16    9   20 1   
    17   10   11 2   
    18   10   12 1   
    19   12   13 1   
    20   12   21 1   
    21   12   25 1   
    22   13   22 1   
    23   13   23 1   
    24   13   24 1   
@<TRIPOS>SUBSTRUCTURE
     1 MVH         1 TEMP              0 ****  ****    0 ROOT
