@<TRIPOS>MOLECULE
MVH
   25    24     1     0     0
SMALL
bcc


@<TRIPOS>ATOM
      1 OAI        -0.3780    0.8390    0.4280 o         1 MVH     -0.783500
      2 PAN         0.5880    0.7830   -0.6630 p5        1 MVH      1.437800
      3 OAJ         2.1110    0.9790   -0.1380 os        1 MVH     -0.590200
      4 CAC         2.3590    0.9020    1.2380 c3        1 MVH      0.158700
      5 OAF         0.5380    1.3190   -2.0330 o         1 MVH     -0.783500
      6 OAK         0.7790   -0.9300   -0.9620 os        1 MVH     -0.399500
      7 CAM         1.2580   -1.4930   -2.0350 c2        1 MVH      0.426900
      8 CAD         0.9030   -2.9260   -2.2260 c3        1 MVH     -0.126900
      9 CAG         2.0680   -0.7860   -2.9280 ce        1 MVH     -0.514200
     10 CAL         2.3070   -1.1360   -4.2620 c         1 MVH      0.600300
     11 OAE         2.2560   -2.1740   -4.9280 o         1 MVH     -0.555100
     12 NAH         2.6900    0.0980   -5.1220 ny        1 MVH     -0.673800
     13 CAA         1.5670    1.0570   -5.1770 c3        1 MVH      0.062100
     14 H2          2.8560    1.8550    1.5600 h1        1 MVH      0.033033
     15 H3          3.0650    0.0510    1.4280 h1        1 MVH      0.033033
     16 H4          1.4040    0.7510    1.8060 h1        1 MVH      0.033033
     17 H6          0.8470   -3.1760   -3.3140 hc        1 MVH      0.080367
     18 H7          1.6990   -3.5570   -1.7540 hc        1 MVH      0.080367
     19 H8         -0.0720   -3.1600   -1.7320 hc        1 MVH      0.080367
     20 H9          2.3680    0.2210   -2.5690 ha        1 MVH      0.191000
     21 H11         3.4990    0.5500   -4.6940 hn        1 MVH      0.433300
     22 H12         1.2240    1.3190   -4.1240 hx        1 MVH      0.114367
     23 H13         1.8950    1.9860   -5.7120 hx        1 MVH      0.114367
     24 H14         0.7110    0.5840   -5.7250 hx        1 MVH      0.114367
     25 HAH2        2.9380   -0.2170   -6.0610 hn        1 MVH      0.433300
@<TRIPOS>BOND
     1    1    2 1   
     2    2    3 1   
     3    2    5 1   
     4    2    6 1   
     5    3    4 1   
     6    4   14 1   
     7    4   15 1   
     8    4   16 1   
     9    6    7 1   
    10    7    8 1   
    11    7    9 2   
    12    8   17 1   
    13    8   18 1   
    14    8   19 1   
    15    9   10 1   
    16    9   20 1   
    17   10   11 2   
    18   10   12 1   
    19   12   13 1   
    20   12   21 1   
    21   12   25 1   
    22   13   22 1   
    23   13   23 1   
    24   13   24 1   
@<TRIPOS>SUBSTRUCTURE
     1 MVH         1 TEMP              0 ****  ****    0 ROOT
