@<TRIPOS>MOLECULE
MVH
   25    24     1     0     0
SMALL
bcc


@<TRIPOS>ATOM
      1 OAI        -0.3740    0.7910    0.4480 o         1 MVH     -0.783500
      2 PAN         0.5780    0.7590   -0.6550 p5        1 MVH      1.437800
      3 OAJ         2.1000    1.0110   -0.1530 os        1 MVH     -0.590200
      4 CAC         2.3690    0.9520    1.2190 c3        1 MVH      0.158700
      5 OAF         0.4910    1.2840   -2.0280 o         1 MVH     -0.783500
      6 OAK         0.8220   -0.9480   -0.9450 os        1 MVH     -0.399500
      7 CAM         1.3050   -1.5030   -2.0210 c2        1 MVH      0.426900
      8 CAD         0.9960   -2.9480   -2.1960 c3        1 MVH     -0.126900
      9 CAG         2.0780   -0.7760   -2.9300 ce        1 MVH     -0.514200
     10 CAL         2.3110   -1.1290   -4.2650 c         1 MVH      0.600300
     11 OAE         2.2860   -2.1720   -4.9220 o         1 MVH     -0.555100
     12 NAH         2.6400    0.1120   -5.1380 n4        1 MVH     -0.673800
     13 CAA         1.4850    1.0320   -5.1850 c3        1 MVH      0.062100
     14 H2          2.8380    1.9240    1.5280 h1        1 MVH      0.033033
     15 H3          3.1070    0.1270    1.4060 h1        1 MVH      0.033033
     16 H4          1.4280    0.7740    1.8020 h1        1 MVH      0.033033
     17 H6          0.9340   -3.2090   -3.2820 hc        1 MVH      0.080367
     18 H7          1.8180   -3.5490   -1.7300 hc        1 MVH      0.080367
     19 H8          0.0350   -3.2110   -1.6870 hc        1 MVH      0.080367
     20 H9          2.3490    0.2440   -2.5820 ha        1 MVH      0.191000
     21 H11         3.4390    0.5940   -4.7250 hn        1 MVH      0.433300
     22 H12         1.1480    1.2910   -4.1290 hx        1 MVH      0.114367
     23 H13         1.7740    1.9670   -5.7310 hx        1 MVH      0.114367
     24 H14         0.6370    0.5260   -5.7170 hx        1 MVH      0.114367
     25 HAH2        2.8860   -0.2020   -6.0790 hn        1 MVH      0.433300
@<TRIPOS>BOND
     1    1    2 1   
     2    2    3 1   
     3    2    5 1   
     4    2    6 1   
     5    3    4 1   
     6    4   14 1   
     7    4   15 1   
     8    4   16 1   
     9    6    7 1   
    10    7    8 1   
    11    7    9 2   
    12    8   17 1   
    13    8   18 1   
    14    8   19 1   
    15    9   10 1   
    16    9   20 1   
    17   10   11 2   
    18   10   12 1   
    19   12   13 1   
    20   12   21 1   
    21   12   25 1   
    22   13   22 1   
    23   13   23 1   
    24   13   24 1   
@<TRIPOS>SUBSTRUCTURE
     1 MVH         1 TEMP              0 ****  ****    0 ROOT
