@<TRIPOS>MOLECULE
MVJ
   44    47     1     0     0
SMALL
bcc


@<TRIPOS>ATOM
      1 C1          0.0440    0.0020   -0.0740 ca        1 MVJ     -0.090000
      2 C2          1.4420    0.0030   -0.1150 ca        1 MVJ     -0.166000
      3 C3          2.1320    0.0000    1.0950 ca        1 MVJ      0.058600
      4 C4          1.4200   -0.0030    2.3390 ca        1 MVJ     -0.144300
      5 C5          0.0420   -0.0040    2.3540 ca        1 MVJ     -0.071000
      6 C6         -0.6600   -0.0010    1.1320 ca        1 MVJ     -0.104300
      7 C7         -2.1560   -0.0020    1.1490 c3        1 MVJ     -0.017400
      8 C8         -2.7130    1.2520    0.4810 c3        1 MVJ     -0.071400
      9 C9         -4.2280    1.2490    0.4990 c3        1 MVJ     -0.077400
     10 C10        -4.7870    0.0000   -0.1510 c3        1 MVJ     -0.077400
     11 C11        -4.2270   -1.2510    0.4930 c3        1 MVJ     -0.077400
     12 C12        -2.7120   -1.2520    0.4750 c3        1 MVJ     -0.071400
     13 C13         2.4140   -0.0060    3.4770 c3        1 MVJ     -0.055700
     14 C14         2.2840   -1.2610    4.3310 c3        1 MVJ     -0.093400
     15 C15         3.1710   -1.1920    5.5630 c3        1 MVJ      0.119400
     16 O16         2.9240   -0.0130    6.3220 os        1 MVJ     -0.413600
     17 C17         3.1700    1.1700    5.5690 c3        1 MVJ      0.119400
     18 C18         2.2830    1.2450    4.3370 c3        1 MVJ     -0.093400
     19 C19         3.7720   -0.0040    2.7130 c         1 MVJ      0.701500
     20 O20         4.9110   -0.0040    3.1940 o         1 MVJ     -0.606500
     21 N21         3.5160   -0.0000    1.3310 ns        1 MVJ     -0.480100
     22 H1         -0.5120    0.0050   -1.0250 ha        1 MVJ      0.136000
     23 H2          1.9710    0.0060   -1.0770 ha        1 MVJ      0.140000
     24 H5         -0.5050   -0.0060    3.3090 ha        1 MVJ      0.140000
     25 H7         -2.5080   -0.0040    2.2210 hc        1 MVJ      0.052700
     26 H8         -2.3310    2.1590    1.0160 hc        1 MVJ      0.042700
     27 H8A        -2.3490    1.3050   -0.5780 hc        1 MVJ      0.042700
     28 H9         -4.6080    2.1560   -0.0400 hc        1 MVJ      0.040200
     29 H9A        -4.5900    1.3120    1.5600 hc        1 MVJ      0.040200
     30 H10        -5.9040   -0.0000   -0.0650 hc        1 MVJ      0.039700
     31 H10A       -4.5330    0.0030   -1.2440 hc        1 MVJ      0.039700
     32 H11        -4.5880   -1.3190    1.5530 hc        1 MVJ      0.040200
     33 H11A       -4.6060   -2.1550   -0.0500 hc        1 MVJ      0.040200
     34 H12        -2.3290   -2.1620    1.0060 hc        1 MVJ      0.042700
     35 H12A       -2.3480   -1.3000   -0.5850 hc        1 MVJ      0.042700
     36 H14         2.5530   -2.1660    3.7290 hc        1 MVJ      0.060700
     37 H14A        1.2110   -1.3570    4.6450 hc        1 MVJ      0.060700
     38 H15         4.2540   -1.2280    5.2650 h1        1 MVJ      0.061200
     39 H15A        2.9350   -2.0290    6.2720 h1        1 MVJ      0.061200
     40 H17         2.9340    2.0030    6.2820 h1        1 MVJ      0.061200
     41 H17A        4.2530    1.2080    5.2710 h1        1 MVJ      0.061200
     42 H18         2.5520    2.1530    3.7400 hc        1 MVJ      0.060700
     43 H18A        1.2100    1.3390    4.6520 hc        1 MVJ      0.060700
     44 HN21        4.2030    0.0020    0.6230 hn        1 MVJ      0.340500
@<TRIPOS>BOND
     1    1    2 ar  
     2    1    6 ar  
     3    1   22 1   
     4    2    3 ar  
     5    2   23 1   
     6    3    4 ar  
     7    3   21 1   
     8    4    5 ar  
     9    4   13 1   
    10    5    6 ar  
    11    5   24 1   
    12    6    7 1   
    13    7    8 1   
    14    7   12 1   
    15    7   25 1   
    16    8    9 1   
    17    8   26 1   
    18    8   27 1   
    19    9   10 1   
    20    9   28 1   
    21    9   29 1   
    22   10   11 1   
    23   10   30 1   
    24   10   31 1   
    25   11   12 1   
    26   11   32 1   
    27   11   33 1   
    28   12   34 1   
    29   12   35 1   
    30   13   14 1   
    31   13   18 1   
    32   13   19 1   
    33   14   15 1   
    34   14   36 1   
    35   14   37 1   
    36   15   16 1   
    37   15   38 1   
    38   15   39 1   
    39   16   17 1   
    40   17   18 1   
    41   17   40 1   
    42   17   41 1   
    43   18   42 1   
    44   18   43 1   
    45   19   20 2   
    46   19   21 1   
    47   21   44 1   
@<TRIPOS>SUBSTRUCTURE
     1 MVJ         1 TEMP              0 ****  ****    0 ROOT
