@<TRIPOS>MOLECULE
MVL
   26    27     1     0     0
SMALL
bcc


@<TRIPOS>ATOM
      1 C1          0.1970    1.4550    0.2670 cc        1 MVL      0.322800
      2 N10         1.0250    0.3160    0.2290 na        1 MVL     -0.179900
      3 C3         -1.7500   -0.0520    0.6620 c3        1 MVL      0.111100
      4 C4         -0.9560   -1.1170   -0.1160 c3        1 MVL      0.104100
      5 C5          0.5570   -1.0480    0.2260 c3        1 MVL      0.051000
      6 C6          1.3050   -1.9640   -0.7640 c3        1 MVL      0.119400
      7 C7          2.2660    2.1780    0.2740 cd        1 MVL      0.275200
      8 C8          2.3410    0.7700    0.2390 cc        1 MVL     -0.216600
      9 N1          0.9390    2.5920    0.2900 nd        1 MVL     -0.654000
     10 O3         -3.1320   -0.2460    0.4450 oh        1 MVL     -0.595800
     11 O2         -1.8230    1.5990   -1.0390 oh        1 MVL     -0.616800
     12 O4         -1.3760   -2.4250    0.2340 oh        1 MVL     -0.602800
     13 C2         -1.3000    1.3630    0.2610 c3        1 MVL      0.104800
     14 O6          2.6220   -2.1370   -0.2680 oh        1 MVL     -0.608800
     15 H2         -1.7320    2.1180    0.9790 h1        1 MVL      0.081700
     16 H5          0.7110   -1.4740    1.2650 h1        1 MVL      0.092700
     17 H8          3.1860    0.0810    0.2190 h4        1 MVL      0.200000
     18 H3         -1.6100   -0.1970    1.7700 h1        1 MVL      0.097700
     19 H4         -1.1130   -0.9650   -1.2210 h1        1 MVL      0.065700
     20 HA         -3.3400    0.0710   -0.4450 ho        1 MVL      0.427000
     21 HB         -2.3330   -2.3830    0.3810 ho        1 MVL      0.430000
     22 H6C1        0.7610   -2.9470   -0.7980 h1        1 MVL      0.051700
     23 H6C2        1.3410   -1.5150   -1.7920 h1        1 MVL      0.051700
     24 H6          3.0180   -2.8530   -0.7770 ho        1 MVL      0.411000
     25 H7          3.0850    2.8950    0.2890 h4        1 MVL      0.044100
     26 HC         -1.4980    2.4630   -1.3240 ho        1 MVL      0.434000
@<TRIPOS>BOND
     1    1    2 1   
     2    1    9 2   
     3    1   13 1   
     4    2    5 1   
     5    2    8 1   
     6    3    4 1   
     7    3   10 1   
     8    3   13 1   
     9    3   18 1   
    10    4    5 1   
    11    4   12 1   
    12    4   19 1   
    13    5    6 1   
    14    5   16 1   
    15    6   14 1   
    16    6   22 1   
    17    6   23 1   
    18    7    8 2   
    19    7    9 1   
    20    7   25 1   
    21    8   17 1   
    22   10   20 1   
    23   11   13 1   
    24   11   26 1   
    25   12   21 1   
    26   13   15 1   
    27   14   24 1   
@<TRIPOS>SUBSTRUCTURE
     1 MVL         1 TEMP              0 ****  ****    0 ROOT
