@<TRIPOS>MOLECULE
MVL
   26    27     1     0     0
SMALL
bcc


@<TRIPOS>ATOM
      1 C1         -0.0550    0.1250    0.0340 cc        1 MVL      0.322800
      2 N10         1.3490    0.0100   -0.0090 na        1 MVL     -0.179900
      3 C3          0.1130    0.4740    2.4970 c3        1 MVL      0.111100
      4 C4          1.3950   -0.3750    2.4290 c3        1 MVL      0.104100
      5 C5          2.2090   -0.0580    1.1460 c3        1 MVL      0.051000
      6 C6          3.3320   -1.1100    1.0300 c3        1 MVL      0.119400
      7 C7          0.5150    0.1330   -2.0830 cd        1 MVL      0.275200
      8 C8          1.7160    0.0200   -1.3510 cc        1 MVL     -0.216600
      9 N1         -0.5720    0.1960   -1.2190 nd        1 MVL     -0.654000
     10 O3         -0.5170    0.2730    3.7450 oh        1 MVL     -0.595800
     11 O2         -1.3830   -1.1330    1.6010 oh        1 MVL     -0.616800
     12 O4          2.2560   -0.0890    3.5190 oh        1 MVL     -0.602800
     13 C2         -0.8230    0.1430    1.3220 c3        1 MVL      0.104800
     14 O6          4.2430   -0.6490    0.0460 oh        1 MVL     -0.608800
     15 H2         -1.6480    0.9080    1.2640 h1        1 MVL      0.081700
     16 H5          2.7040    0.9540    1.2740 h1        1 MVL      0.092700
     17 H8          2.7600   -0.0530   -1.6620 h4        1 MVL      0.200000
     18 H3          0.3730    1.5700    2.4800 h1        1 MVL      0.097700
     19 H4          1.1200   -1.4670    2.4560 h1        1 MVL      0.065700
     20 HA         -0.9450   -0.5950    3.7240 ho        1 MVL      0.427000
     21 HB          1.6910    0.0780    4.2880 ho        1 MVL      0.430000
     22 H6C1        2.9240   -2.1120    0.7310 h1        1 MVL      0.051700
     23 H6C2        3.8340   -1.1870    2.0320 h1        1 MVL      0.051700
     24 H6          5.0290   -1.2040    0.1150 ho        1 MVL      0.411000
     25 H7          0.3870    0.1720   -3.1630 h4        1 MVL      0.044100
     26 HC         -1.9290   -1.3770    0.8420 ho        1 MVL      0.434000
@<TRIPOS>BOND
     1    1    2 1   
     2    1    9 2   
     3    1   13 1   
     4    2    5 1   
     5    2    8 1   
     6    3    4 1   
     7    3   10 1   
     8    3   13 1   
     9    3   18 1   
    10    4    5 1   
    11    4   12 1   
    12    4   19 1   
    13    5    6 1   
    14    5   16 1   
    15    6   14 1   
    16    6   22 1   
    17    6   23 1   
    18    7    8 2   
    19    7    9 1   
    20    7   25 1   
    21    8   17 1   
    22   10   20 1   
    23   11   13 1   
    24   11   26 1   
    25   12   21 1   
    26   13   15 1   
    27   14   24 1   
@<TRIPOS>SUBSTRUCTURE
     1 MVL         1 TEMP              0 ****  ****    0 ROOT
