@<TRIPOS>MOLECULE
MVL
   26    23     1     0     0
SMALL
bcc


@<TRIPOS>ATOM
      1 C1         -1.1860    0.1200   -1.2680 c1        1 MVL     -0.120000
      2 N10         0.2880    0.1090   -1.2570 n2        1 MVL     -0.132500
      3 C3         -1.1180    0.7550    1.2240 c3        1 MVL      0.000000
      4 C4          0.1910    0.0940    1.3040 c3        1 MVL     -0.005000
      5 C5          1.0200    0.1690    0.1460 c2        1 MVL     -0.004000
      6 C6          2.0240   -0.9920    0.2070 c3        1 MVL     -0.033000
      7 C7         -0.4490    0.0220   -3.3750 c1        1 MVL     -0.159000
      8 C8          0.7080    0.0500   -2.5250 c1        1 MVL     -0.159000
      9 N1         -1.5930    0.0670   -2.5580 n2        1 MVL     -0.132500
     10 O3         -1.8830    0.4250    2.4940 oh        1 MVL     -0.323000
     11 O2         -2.6950   -0.7880    0.4750 oh        1 MVL     -0.343000
     12 O4          0.9600    0.7200    2.4690 oh        1 MVL     -0.332000
     13 C2         -1.9410    0.4070    0.1170 c2        1 MVL      0.088000
     14 O6          3.3350   -0.5010   -0.0430 oh        1 MVL     -0.324000
     15 H2         -2.5830    1.1440   -0.0300 h4        1 MVL      0.120000
     16 H5          1.5250    1.0120    0.1890 ha        1 MVL      0.114000
     17 H8          1.6460    0.0300   -2.8240 DU        1 MVL      0.190500
     18 H3         -0.9690    1.7250    1.1990 h1        1 MVL      0.135000
     19 H4          0.0410   -0.8500    1.5100 h1        1 MVL      0.107000
     20 HA         -2.1030    1.1810    2.9140 ho        1 MVL      0.227000
     21 HB          0.9940    0.1500    3.1390 ho        1 MVL      0.230000
     22 H6C1        1.9940   -1.4030    1.0940 h1        1 MVL      0.113500
     23 H6C2        1.7920   -1.6610   -0.4690 h1        1 MVL      0.113500
     24 H6          3.9530   -1.1670    0.1340 ho        1 MVL      0.203000
     25 H7         -0.4420   -0.0690   -4.3670 DU        1 MVL      0.190500
     26 HC         -3.5070   -0.7520    0.1020 ho        1 MVL      0.234000
@<TRIPOS>BOND
     1    1    2 1   
     2    1    9 1   
     3    2    8 1   
     4    3    4 1   
     5    3   10 1   
     6    3   13 1   
     7    3   18 1   
     8    4    5 1   
     9    4   12 1   
    10    4   19 1   
    11    5    6 1   
    12    5   16 1   
    13    6   14 1   
    14    6   22 1   
    15    6   23 1   
    16    7    8 1   
    17    7    9 1   
    18   10   20 1   
    19   11   13 1   
    20   11   26 1   
    21   12   21 1   
    22   13   15 1   
    23   14   24 1   
@<TRIPOS>SUBSTRUCTURE
     1 MVL         1 TEMP              0 ****  ****    0 ROOT
