@<TRIPOS>MOLECULE
MVL
   26    27     1     0     0
SMALL
bcc


@<TRIPOS>ATOM
      1 C1         -0.0570    0.1670    0.0530 cc        1 MVL      0.322800
      2 N10         1.3430    0.0210   -0.0080 na        1 MVL     -0.179900
      3 C3          0.1460    0.4760    2.5190 c3        1 MVL      0.111100
      4 C4          1.4080   -0.4010    2.4240 c3        1 MVL      0.104100
      5 C5          2.2150   -0.0830    1.1360 c3        1 MVL      0.051000
      6 C6          3.3110   -1.1580    0.9920 c3        1 MVL      0.119400
      7 C7          0.4890    0.1930   -2.0700 cd        1 MVL      0.275200
      8 C8          1.6960    0.0420   -1.3540 cc        1 MVL     -0.216600
      9 N1         -0.5870    0.2690   -1.1930 nd        1 MVL     -0.654000
     10 O3         -0.4750    0.2710    3.7710 oh        1 MVL     -0.595800
     11 O2         -1.3960   -1.0840    1.6170 oh        1 MVL     -0.616800
     12 O4          2.2860   -0.1500    3.5080 oh        1 MVL     -0.602800
     13 C2         -0.8100    0.1830    1.3490 c3        1 MVL      0.104800
     14 O6          4.2220   -0.7030    0.0050 oh        1 MVL     -0.608800
     15 H2         -1.6190    0.9680    1.3120 h1        1 MVL      0.081700
     16 H5          2.7330    0.9150    1.2740 h1        1 MVL      0.092700
     17 H8          2.7330   -0.0490   -1.6770 h4        1 MVL      0.200000
     18 H3          0.4300    1.5660    2.5140 h1        1 MVL      0.097700
     19 H4          1.1080   -1.4870    2.4390 h1        1 MVL      0.065700
     20 HA         -0.9230   -0.5870    3.7430 ho        1 MVL      0.427000
     21 HB          1.7340    0.0180    4.2860 ho        1 MVL      0.430000
     22 H6C1        3.8220   -1.2610    1.9870 h1        1 MVL      0.051700
     23 H6C2        2.8780   -2.1470    0.6840 h1        1 MVL      0.051700
     24 H6          4.9960   -1.2760    0.0570 ho        1 MVL      0.411000
     25 H7          0.3500    0.2510   -3.1480 h4        1 MVL      0.044100
     26 HC         -1.9560   -1.3040    0.8600 ho        1 MVL      0.434000
@<TRIPOS>BOND
     1    1    2 1   
     2    1    9 2   
     3    1   13 1   
     4    2    5 1   
     5    2    8 1   
     6    3    4 1   
     7    3   10 1   
     8    3   13 1   
     9    3   18 1   
    10    4    5 1   
    11    4   12 1   
    12    4   19 1   
    13    5    6 1   
    14    5   16 1   
    15    6   14 1   
    16    6   22 1   
    17    6   23 1   
    18    7    8 2   
    19    7    9 1   
    20    7   25 1   
    21    8   17 1   
    22   10   20 1   
    23   11   13 1   
    24   11   26 1   
    25   12   21 1   
    26   13   15 1   
    27   14   24 1   
@<TRIPOS>SUBSTRUCTURE
     1 MVL         1 TEMP              0 ****  ****    0 ROOT
