@<TRIPOS>MOLECULE
MVN
   21    22     1     0     0
SMALL
bcc


@<TRIPOS>ATOM
      1 C1          0.0180   -0.0000   -0.0100 ca        1 MVN     -0.180000
      2 C2          1.3990   -0.0000   -0.0140 ca        1 MVN     -0.072000
      3 C3          1.4300    0.0000    2.4120 ca        1 MVN     -0.068000
      4 C4          0.0250   -0.0000    2.4450 ca        1 MVN     -0.124800
      5 C5         -0.6990   -0.0000    1.2180 ca        1 MVN      0.100600
      6 C6          2.1070   -0.0000    1.2000 ca        1 MVN     -0.024600
      7 C7         -2.0720    0.0000    3.6710 cc        1 MVN     -0.236200
      8 C8         -0.7170    0.0000    3.6910 cd        1 MVN      0.026600
      9 C9         -2.8270    0.0000    2.4130 c         1 MVN      0.695700
     10 C10         0.0270    0.0000    4.9740 c3        1 MVN     -0.072900
     11 N11        -2.0860   -0.0000    1.2230 n         1 MVN     -0.445100
     12 O12        -4.0710    0.0000    2.3360 o         1 MVN     -0.629500
     13 CL1         3.8060    0.0000    1.1770 cl        1 MVN     -0.088400
     14 H1         -0.5290   -0.0000   -0.9650 ha        1 MVN      0.145000
     15 H2          1.9470   -0.0000   -0.9700 ha        1 MVN      0.152000
     16 H3          1.9930    0.0000    3.3590 ha        1 MVN      0.152000
     17 H11        -2.5740   -0.0000    0.3540 hn        1 MVN      0.334500
     18 H7         -2.6850    0.0000    4.5840 ha        1 MVN      0.166000
     19 H101        0.6770    0.9080    5.0440 hc        1 MVN      0.056367
     20 H102        0.6770   -0.9080    5.0440 hc        1 MVN      0.056367
     21 H103       -0.6730    0.0000    5.8460 hc        1 MVN      0.056367
@<TRIPOS>BOND
     1    1    2 ar  
     2    1    5 ar  
     3    1   14 1   
     4    2    6 ar  
     5    2   15 1   
     6    3    4 ar  
     7    3    6 ar  
     8    3   16 1   
     9    4    5 ar  
    10    4    8 1   
    11    5   11 1   
    12    6   13 1   
    13    7    8 2   
    14    7    9 1   
    15    7   18 1   
    16    8   10 1   
    17    9   11 1   
    18    9   12 2   
    19   10   19 1   
    20   10   20 1   
    21   10   21 1   
    22   11   17 1   
@<TRIPOS>SUBSTRUCTURE
     1 MVN         1 TEMP              0 ****  ****    0 ROOT
