@<TRIPOS>MOLECULE
MW5
   27    29     1     0     0
SMALL
bcc


@<TRIPOS>ATOM
      1 O          -0.0920    0.2410   -0.0400 o         1 MW5     -0.572500
      2 C5          1.1380    0.1300   -0.0340 c         1 MW5      0.635500
      3 N2          1.8530    0.1750    1.2120 n         1 MW5      0.014300
      4 N3          1.3850    0.3070    2.4810 n2        1 MW5     -0.438800
      5 C1          2.4580    0.2790    3.2850 cc        1 MW5      0.423400
      6 C4          2.0020   -0.0410   -1.2130 cc        1 MW5     -0.260400
      7 C3          3.3730   -0.1350   -1.0790 cd        1 MW5      0.306000
      8 CL          4.3640   -0.3170   -2.4640 cl        1 MW5     -0.044400
      9 N4          4.0660   -0.0900    0.1220 nd        1 MW5     -0.361600
     10 C2          3.2880    0.0550    1.2020 cc        1 MW5      0.133400
     11 N1          3.6630    0.1320    2.5600 na        1 MW5     -0.378900
     12 C6          1.2870   -0.0930   -2.5190 c3        1 MW5      0.023100
     13 C7          0.9160   -1.4830   -2.9190 ca        1 MW5     -0.084300
     14 C12        -0.1890   -2.1080   -2.3290 ca        1 MW5     -0.122000
     15 C11        -0.5560   -3.3960   -2.7170 ca        1 MW5     -0.132000
     16 C10         0.1760   -4.0670   -3.6970 ca        1 MW5     -0.130000
     17 C9          1.2760   -3.4480   -4.2880 ca        1 MW5     -0.132000
     18 C8          1.6460   -2.1600   -3.9020 ca        1 MW5     -0.122000
     19 H1          2.4390    0.3630    4.3800 h5        1 MW5      0.086100
     20 HA          4.5810    0.0530    2.9080 hn        1 MW5      0.342700
     21 H61C        1.9250    0.3770   -3.3160 hc        1 MW5      0.070200
     22 H62C        0.3460    0.5230   -2.4410 hc        1 MW5      0.070200
     23 H12        -0.7640   -1.5730   -1.5550 ha        1 MW5      0.140500
     24 H8          2.5150   -1.6750   -4.3710 ha        1 MW5      0.140500
     25 H11        -1.4250   -3.8810   -2.2490 ha        1 MW5      0.130500
     26 H10        -0.1160   -5.0820   -4.0030 ha        1 MW5      0.129000
     27 H9          1.8540   -3.9740   -5.0620 ha        1 MW5      0.130500
@<TRIPOS>BOND
     1    1    2 2   
     2    2    3 1   
     3    2    6 1   
     4    3    4 1   
     5    3   10 1   
     6    4    5 2   
     7    5   11 1   
     8    5   19 1   
     9    6    7 2   
    10    6   12 1   
    11    7    8 1   
    12    7    9 1   
    13    9   10 2   
    14   10   11 1   
    15   11   20 1   
    16   12   13 1   
    17   12   21 1   
    18   12   22 1   
    19   13   14 ar  
    20   13   18 ar  
    21   14   15 ar  
    22   14   23 1   
    23   15   16 ar  
    24   15   25 1   
    25   16   17 ar  
    26   16   26 1   
    27   17   18 ar  
    28   17   27 1   
    29   18   24 1   
@<TRIPOS>SUBSTRUCTURE
     1 MW5         1 TEMP              0 ****  ****    0 ROOT
