@<TRIPOS>MOLECULE
MW5
   27    29     1     0     0
SMALL
bcc


@<TRIPOS>ATOM
      1 O          -0.1060    0.2290   -0.0470 o         1 MW5     -0.572500
      2 C5          1.1250    0.1260   -0.0350 c         1 MW5      0.635500
      3 N2          1.8340    0.1750    1.2140 n         1 MW5      0.014300
      4 N3          1.3590    0.3030    2.4800 n2        1 MW5     -0.438800
      5 C1          2.4280    0.2820    3.2900 cc        1 MW5      0.423400
      6 C4          1.9950   -0.0390   -1.2110 cc        1 MW5     -0.260400
      7 C3          3.3660   -0.1230   -1.0710 cd        1 MW5      0.306000
      8 CL          4.3650   -0.2960   -2.4510 cl        1 MW5     -0.044400
      9 N4          4.0540   -0.0740    0.1330 nd        1 MW5     -0.361600
     10 C2          3.2700    0.0650    1.2100 cc        1 MW5      0.133400
     11 N1          3.6370    0.1430    2.5700 na        1 MW5     -0.378900
     12 C6          1.2870   -0.0950   -2.5200 c3        1 MW5      0.023100
     13 C7          0.9260   -1.4860   -2.9230 ca        1 MW5     -0.084300
     14 C12        -0.1790   -2.1180   -2.3390 ca        1 MW5     -0.122000
     15 C11        -0.5360   -3.4080   -2.7290 ca        1 MW5     -0.132000
     16 C10         0.2060   -4.0750   -3.7040 ca        1 MW5     -0.130000
     17 C9          1.3060   -3.4490   -4.2890 ca        1 MW5     -0.132000
     18 C8          1.6660   -2.1590   -3.9010 ca        1 MW5     -0.122000
     19 H1          2.4040    0.3650    4.3840 h5        1 MW5      0.086100
     20 HA          4.5550    0.0710    2.9220 hn        1 MW5      0.342700
     21 H61C        0.3420    0.5160   -2.4460 hc        1 MW5      0.070200
     22 H62C        1.9260    0.3790   -3.3140 hc        1 MW5      0.070200
     23 H12        -0.7610   -1.5860   -1.5690 ha        1 MW5      0.140500
     24 H8          2.5350   -1.6700   -4.3650 ha        1 MW5      0.140500
     25 H11        -1.4050   -3.8980   -2.2660 ha        1 MW5      0.130500
     26 H10        -0.0780   -5.0920   -4.0120 ha        1 MW5      0.129000
     27 H9          1.8910   -3.9720   -5.0590 ha        1 MW5      0.130500
@<TRIPOS>BOND
     1    1    2 2   
     2    2    3 1   
     3    2    6 1   
     4    3    4 1   
     5    3   10 1   
     6    4    5 2   
     7    5   11 1   
     8    5   19 1   
     9    6    7 2   
    10    6   12 1   
    11    7    8 1   
    12    7    9 1   
    13    9   10 2   
    14   10   11 1   
    15   11   20 1   
    16   12   13 1   
    17   12   21 1   
    18   12   22 1   
    19   13   14 ar  
    20   13   18 ar  
    21   14   15 ar  
    22   14   23 1   
    23   15   16 ar  
    24   15   25 1   
    25   16   17 ar  
    26   16   26 1   
    27   17   18 ar  
    28   17   27 1   
    29   18   24 1   
@<TRIPOS>SUBSTRUCTURE
     1 MW5         1 TEMP              0 ****  ****    0 ROOT
