@<TRIPOS>MOLECULE
MW5
   27    29     1     0     0
SMALL
bcc


@<TRIPOS>ATOM
      1 O           0.6160   -1.9460    1.4740 o         1 MW5     -0.572500
      2 C5          0.9660   -0.9370    0.8530 c         1 MW5      0.635500
      3 N2          2.2510   -0.9030    0.2100 n         1 MW5      0.014300
      4 N3          3.2140   -1.8580    0.1400 n2        1 MW5     -0.438800
      5 C1          4.2140   -1.3350   -0.5850 cc        1 MW5      0.423400
      6 C4          0.1850    0.3010    0.6950 cc        1 MW5     -0.260400
      7 C3          0.6940    1.3740   -0.0100 cd        1 MW5      0.306000
      8 CL         -0.2210    2.8130   -0.1690 cl        1 MW5     -0.044400
      9 N4          1.9350    1.4110   -0.6290 nd        1 MW5     -0.361600
     10 C2          2.6480    0.2840   -0.5010 cc        1 MW5      0.133400
     11 N1          3.9310   -0.0140   -1.0050 na        1 MW5     -0.378900
     12 C6         -1.1530    0.2940    1.3500 c3        1 MW5      0.023100
     13 C7         -2.2360   -0.1900    0.4440 ca        1 MW5     -0.084300
     14 C12        -2.3850   -1.5620    0.2030 ca        1 MW5     -0.122000
     15 C11        -3.4100   -2.0210   -0.6210 ca        1 MW5     -0.132000
     16 C10        -4.2950   -1.1170   -1.2090 ca        1 MW5     -0.130000
     17 C9         -4.1520    0.2490   -0.9710 ca        1 MW5     -0.132000
     18 C8         -3.1270    0.7130   -0.1470 ca        1 MW5     -0.122000
     19 H1          5.1550   -1.8410   -0.8360 h5        1 MW5      0.086100
     20 HA          4.4800    0.5800   -1.5690 hn        1 MW5      0.342700
     21 H61C       -1.1090   -0.3800    2.2530 hc        1 MW5      0.070200
     22 H62C       -1.3960    1.3270    1.7190 hc        1 MW5      0.070200
     23 H12        -1.6830   -2.2720    0.6710 ha        1 MW5      0.140500
     24 H8         -3.0170    1.7920    0.0370 ha        1 MW5      0.140500
     25 H11        -3.5220   -3.1000   -0.8050 ha        1 MW5      0.130500
     26 H10        -5.1040   -1.4810   -1.8590 ha        1 MW5      0.129000
     27 H9         -4.8480    0.9650   -1.4320 ha        1 MW5      0.130500
@<TRIPOS>BOND
     1    1    2 2   
     2    2    3 1   
     3    2    6 1   
     4    3    4 1   
     5    3   10 1   
     6    4    5 2   
     7    5   11 1   
     8    5   19 1   
     9    6    7 2   
    10    6   12 1   
    11    7    8 1   
    12    7    9 1   
    13    9   10 2   
    14   10   11 1   
    15   11   20 1   
    16   12   13 1   
    17   12   21 1   
    18   12   22 1   
    19   13   14 ar  
    20   13   18 ar  
    21   14   15 ar  
    22   14   23 1   
    23   15   16 ar  
    24   15   25 1   
    25   16   17 ar  
    26   16   26 1   
    27   17   18 ar  
    28   17   27 1   
    29   18   24 1   
@<TRIPOS>SUBSTRUCTURE
     1 MW5         1 TEMP              0 ****  ****    0 ROOT
