@<TRIPOS>MOLECULE
MW5
   27    29     1     0     0
SMALL
bcc


@<TRIPOS>ATOM
      1 O          -0.0970    0.2410   -0.0470 o         1 MW5     -0.572500
      2 C5          1.1330    0.1310   -0.0370 c         1 MW5      0.635500
      3 N2          1.8440    0.1780    1.2120 n         1 MW5      0.014300
      4 N3          1.3720    0.3110    2.4780 n2        1 MW5     -0.438800
      5 C1          2.4420    0.2850    3.2870 cc        1 MW5      0.423400
      6 C4          2.0010   -0.0410   -1.2130 cc        1 MW5     -0.260400
      7 C3          3.3720   -0.1330   -1.0740 cd        1 MW5      0.306000
      8 Cl          4.3680   -0.3150   -2.4560 cl        1 MW5     -0.044400
      9 N4          4.0610   -0.0860    0.1290 nd        1 MW5     -0.361600
     10 C2          3.2790    0.0590    1.2060 cc        1 MW5      0.133400
     11 N1          3.6490    0.1380    2.5650 na        1 MW5     -0.378900
     12 C6          1.2900   -0.0950   -2.5210 c3        1 MW5      0.023100
     13 C7          0.9220   -1.4860   -2.9210 ca        1 MW5     -0.084300
     14 C12        -0.1850   -2.1110   -2.3340 ca        1 MW5     -0.122000
     15 C11        -0.5490   -3.3990   -2.7210 ca        1 MW5     -0.132000
     16 C10         0.1870   -4.0720   -3.6980 ca        1 MW5     -0.130000
     17 C9          1.2880   -3.4520   -4.2860 ca        1 MW5     -0.132000
     18 C8          1.6560   -2.1630   -3.9010 ca        1 MW5     -0.122000
     19 H1          2.4190    0.3700    4.3800 h5        1 MW5      0.086100
     20 HA          4.5660    0.0610    2.9170 hn        1 MW5      0.342700
     21 H61C        1.9310    0.3740   -3.3170 hc        1 MW5      0.070200
     22 H62C        0.3490    0.5210   -2.4470 hc        1 MW5      0.070200
     23 H12        -0.7620   -1.5750   -1.5630 ha        1 MW5      0.140500
     24 H8          2.5260   -1.6780   -4.3670 ha        1 MW5      0.140500
     25 H11        -1.4190   -3.8850   -2.2560 ha        1 MW5      0.130500
     26 H10        -0.1020   -5.0880   -4.0030 ha        1 MW5      0.129000
     27 H9          1.8700   -3.9790   -5.0570 ha        1 MW5      0.130500
@<TRIPOS>BOND
     1    1    2 2   
     2    2    3 1   
     3    2    6 1   
     4    3    4 1   
     5    3   10 1   
     6    4    5 2   
     7    5   11 1   
     8    5   19 1   
     9    6    7 2   
    10    6   12 1   
    11    7    8 1   
    12    7    9 1   
    13    9   10 2   
    14   10   11 1   
    15   11   20 1   
    16   12   13 1   
    17   12   21 1   
    18   12   22 1   
    19   13   14 ar  
    20   13   18 ar  
    21   14   15 ar  
    22   14   23 1   
    23   15   16 ar  
    24   15   25 1   
    25   16   17 ar  
    26   16   26 1   
    27   17   18 ar  
    28   17   27 1   
    29   18   24 1   
@<TRIPOS>SUBSTRUCTURE
     1 MW5         1 TEMP              0 ****  ****    0 ROOT
