@<TRIPOS>MOLECULE
MWB
   49    52     1     0     0
SMALL
bcc


@<TRIPOS>ATOM
      1 C1         -1.7490    1.0060    1.1610 ca        1 MWB      0.027100
      2 C2          0.4880    0.6610    2.7940 ca        1 MWB     -0.009400
      3 C3         -1.2960   -0.2920    1.4600 ca        1 MWB     -0.059000
      4 C4         -1.0930    2.1310    1.6920 ca        1 MWB     -0.059000
      5 C5          0.0220    1.9580    2.5120 ca        1 MWB     -0.082750
      6 C6         -0.1800   -0.4630    2.2800 ca        1 MWB     -0.082750
      7 C7          1.0420    0.8480    5.9340 ca        1 MWB     -0.082750
      8 C8          1.9620   -1.7250    6.5980 ca        1 MWB     -0.059000
      9 C9          1.5690    0.0010    4.9430 ca        1 MWB     -0.009400
     10 C10         0.9930    0.4160    7.2590 ca        1 MWB     -0.059000
     11 C11         1.4750   -0.8620    7.5960 ca        1 MWB      0.027100
     12 C12         2.0090   -1.2930    5.2730 ca        1 MWB     -0.082750
     13 N1          1.7330    0.4910    3.5630 n4        1 MWB     -0.514800
     14 C13         0.3930   -2.2510    9.3230 c2        1 MWB      0.554100
     15 N2         -0.4030   -2.0460   10.5170 nh        1 MWB     -0.762700
     16 N3          0.0480   -3.2330    8.5120 n2        1 MWB     -0.529400
     17 C14        -2.5360    1.0350   -1.1610 c2        1 MWB      0.554100
     18 N4         -1.8930   -0.0260   -1.6120 n2        1 MWB     -0.529400
     19 N5         -2.7720    2.1300   -2.0800 nh        1 MWB     -0.762700
     20 N6         -2.9090    1.1890    0.2750 n4        1 MWB     -0.582900
     21 N7          1.4850   -1.2890    9.0030 n4        1 MWB     -0.582900
     22 C15        -1.3640   -3.1680   10.4860 c3        1 MWB      0.125300
     23 C16        -1.0580   -3.9430    9.1560 c3        1 MWB      0.069300
     24 C17        -1.6770    0.1890   -3.0420 c3        1 MWB      0.069300
     25 C18        -2.2510    1.6150   -3.3650 c3        1 MWB      0.125300
     26 H1         -1.7890   -1.1900    1.0370 ha        1 MWB      0.205500
     27 H2         -1.4260    3.1620    1.4640 ha        1 MWB      0.205500
     28 H3          0.5260    2.8600    2.9050 ha        1 MWB      0.188750
     29 H4          0.1630   -1.4920    2.4930 ha        1 MWB      0.188750
     30 H5          0.6720    1.8610    5.6940 ha        1 MWB      0.188750
     31 H6          2.3090   -2.7510    6.8360 ha        1 MWB      0.205500
     32 H7          0.5760    1.1010    8.0230 ha        1 MWB      0.205500
     33 H8          2.4110   -1.9880    4.5110 ha        1 MWB      0.188750
     34 H9          2.3360   -0.1720    3.0460 hn        1 MWB      0.484800
     35 H10         0.1250   -1.9840   11.3680 hn        1 MWB      0.421300
     36 H15        -3.7260    2.4370   -2.1250 hn        1 MWB      0.421300
     37 H17        -3.6270    0.4790    0.4970 hn        1 MWB      0.491300
     38 H18         2.3860   -1.7550    9.2090 hn        1 MWB      0.491300
     39 H19        -1.2640   -3.8370   11.3810 h1        1 MWB      0.110450
     40 H20        -1.9470   -3.9340    8.4700 h1        1 MWB      0.126200
     41 H21        -2.1920   -0.6220   -3.6250 h1        1 MWB      0.126200
     42 H22        -0.5740    0.1390   -3.2560 h1        1 MWB      0.126200
     43 H23        -1.4360    2.3110   -3.7010 h1        1 MWB      0.110450
     44 H24        -3.0450    1.5650   -4.1550 h1        1 MWB      0.110450
     45 H11        -2.3960   -2.7260   10.4680 h1        1 MWB      0.110450
     46 H12        -0.7580   -5.0110    9.3430 h1        1 MWB      0.126200
     47 H121        2.2220    1.4020    3.6070 hn        1 MWB      0.484800
     48 H62        -3.3080    2.1310    0.4200 hn        1 MWB      0.491300
     49 H72         1.3870   -0.4590    9.6130 hn        1 MWB      0.491300
@<TRIPOS>BOND
     1    1    3 ar  
     2    1    4 ar  
     3    1   20 1   
     4    2    5 ar  
     5    2    6 ar  
     6    2   13 1   
     7    3    6 ar  
     8    3   26 1   
     9    4    5 ar  
    10    4   27 1   
    11    5   28 1   
    12    6   29 1   
    13    7    9 ar  
    14    7   10 ar  
    15    7   30 1   
    16    8   11 ar  
    17    8   12 ar  
    18    8   31 1   
    19    9   12 ar  
    20    9   13 1   
    21   10   11 ar  
    22   10   32 1   
    23   11   21 1   
    24   12   33 1   
    25   13   34 1   
    26   13   47 1   
    27   14   15 1   
    28   14   16 2   
    29   14   21 1   
    30   15   22 1   
    31   15   35 1   
    32   16   23 1   
    33   17   18 2   
    34   17   19 1   
    35   17   20 1   
    36   18   24 1   
    37   19   25 1   
    38   19   36 1   
    39   20   37 1   
    40   20   48 1   
    41   21   38 1   
    42   21   49 1   
    43   22   23 1   
    44   22   39 1   
    45   22   45 1   
    46   23   40 1   
    47   23   46 1   
    48   24   25 1   
    49   24   41 1   
    50   24   42 1   
    51   25   43 1   
    52   25   44 1   
@<TRIPOS>SUBSTRUCTURE
     1 MWB         1 TEMP              0 ****  ****    0 ROOT
