@<TRIPOS>MOLECULE
MWB
   46    49     1     0     0
SMALL
bcc


@<TRIPOS>ATOM
      1 C1         -0.2280   -0.1350   -0.0340 ca        1 MWB      0.087100
      2 C2          1.3360   -0.3280    2.3250 ca        1 MWB      0.131600
      3 C3          1.1690    0.0610   -0.0740 ca        1 MWB     -0.109250
      4 C4         -0.8300   -0.4100    1.2090 ca        1 MWB     -0.109250
      5 C5         -0.0640   -0.4950    2.3640 ca        1 MWB     -0.158500
      6 C6          1.9360   -0.0390    1.0770 ca        1 MWB     -0.158500
      7 C7          2.0460   -0.1780    5.8800 ca        1 MWB     -0.158500
      8 C8          0.4830   -2.4760    6.0920 ca        1 MWB     -0.109250
      9 C9          1.6740   -0.8710    4.7050 ca        1 MWB      0.131600
     10 C10         1.6570   -0.6290    7.1330 ca        1 MWB     -0.109250
     11 C11         0.8640   -1.7870    7.2630 ca        1 MWB      0.087100
     12 C12         0.8880   -2.0350    4.8410 ca        1 MWB     -0.158500
     13 N1          2.1690   -0.4640    3.4520 nh        1 MWB     -0.618000
     14 C13        -0.1660   -1.4960    9.4640 c2        1 MWB      0.696600
     15 N2         -0.7840   -2.1470   10.6310 nh        1 MWB     -0.799200
     16 N3         -0.3120   -0.1770    9.4060 n2        1 MWB     -0.646400
     17 C14        -2.0810    0.7440   -1.3670 c2        1 MWB      0.696600
     18 N4         -2.6880    1.4060   -0.3880 n2        1 MWB     -0.646400
     19 N5         -2.6440    0.9550   -2.7110 nh        1 MWB     -0.799200
     20 N6         -0.9840   -0.1460   -1.2360 nh        1 MWB     -0.650100
     21 N7          0.5360   -2.3130    8.5410 nh        1 MWB     -0.650100
     22 C15        -1.2990   -1.0410   11.4440 c3        1 MWB      0.120800
     23 C16        -1.0090    0.2520   10.6110 c3        1 MWB      0.087800
     24 C17        -3.8260    2.1130   -0.9600 c3        1 MWB      0.087800
     25 C18        -3.8240    1.7960   -2.4920 c3        1 MWB      0.120800
     26 H1          1.6730    0.2900   -1.0270 ha        1 MWB      0.143000
     27 H2         -1.9210   -0.5490    1.2820 ha        1 MWB      0.143000
     28 H3         -0.5730   -0.6890    3.3220 ha        1 MWB      0.141250
     29 H4          3.0250    0.1110    1.0070 ha        1 MWB      0.141250
     30 H5          2.6600    0.7340    5.8150 ha        1 MWB      0.141250
     31 H6         -0.1350   -3.3850    6.1570 ha        1 MWB      0.143000
     32 H7          1.9690   -0.0630    8.0250 ha        1 MWB      0.143000
     33 H8          0.5920   -2.6070    3.9460 ha        1 MWB      0.141250
     34 H9          2.8800    0.2370    3.5050 hn        1 MWB      0.414800
     35 H10        -0.1450   -2.7390   11.1240 hn        1 MWB      0.385800
     36 H15        -2.8500    0.0960   -3.1790 hn        1 MWB      0.385800
     37 H17        -0.4000   -0.1430   -2.0530 hn        1 MWB      0.414800
     38 H18         0.1460   -3.2370    8.4830 hn        1 MWB      0.414800
     39 H19        -2.4020   -1.1940   11.5720 h1        1 MWB      0.055450
     40 H20        -1.9660    0.7620   10.3280 h1        1 MWB      0.064700
     41 H21        -3.7100    3.2130   -0.7830 h1        1 MWB      0.064700
     42 H22        -4.7730    1.7680   -0.4700 h1        1 MWB      0.064700
     43 H23        -3.6940    2.7340   -3.0930 h1        1 MWB      0.055450
     44 H24        -4.7750    1.2940   -2.8030 h1        1 MWB      0.055450
     45 H11        -0.8200   -0.9890   12.4540 h1        1 MWB      0.055450
     46 H12        -0.3720    0.9740   11.1830 h1        1 MWB      0.064700
@<TRIPOS>BOND
     1    1    3 ar  
     2    1    4 ar  
     3    1   20 1   
     4    2    5 ar  
     5    2    6 ar  
     6    2   13 1   
     7    3    6 ar  
     8    3   26 1   
     9    4    5 ar  
    10    4   27 1   
    11    5   28 1   
    12    6   29 1   
    13    7    9 ar  
    14    7   10 ar  
    15    7   30 1   
    16    8   11 ar  
    17    8   12 ar  
    18    8   31 1   
    19    9   12 ar  
    20    9   13 1   
    21   10   11 ar  
    22   10   32 1   
    23   11   21 1   
    24   12   33 1   
    25   13   34 1   
    26   14   15 1   
    27   14   16 2   
    28   14   21 1   
    29   15   22 1   
    30   15   35 1   
    31   16   23 1   
    32   17   18 2   
    33   17   19 1   
    34   17   20 1   
    35   18   24 1   
    36   19   25 1   
    37   19   36 1   
    38   20   37 1   
    39   21   38 1   
    40   22   23 1   
    41   22   39 1   
    42   22   45 1   
    43   23   40 1   
    44   23   46 1   
    45   24   25 1   
    46   24   41 1   
    47   24   42 1   
    48   25   43 1   
    49   25   44 1   
@<TRIPOS>SUBSTRUCTURE
     1 MWB         1 TEMP              0 ****  ****    0 ROOT
