@<TRIPOS>MOLECULE
MWB
   46    49     1     0     0
SMALL
bcc


@<TRIPOS>ATOM
      1 C1         -0.2270   -0.1330   -0.0340 ca        1 MWB      0.087100
      2 C2          1.3370   -0.3250    2.3250 ca        1 MWB      0.131600
      3 C3          1.1700    0.0650   -0.0730 ca        1 MWB     -0.109250
      4 C4         -0.8290   -0.4100    1.2090 ca        1 MWB     -0.109250
      5 C5         -0.0620   -0.4950    2.3640 ca        1 MWB     -0.158250
      6 C6          1.9370   -0.0340    1.0770 ca        1 MWB     -0.158250
      7 C7          2.0450   -0.1750    5.8800 ca        1 MWB     -0.158250
      8 C8          0.4870   -2.4770    6.0910 ca        1 MWB     -0.109250
      9 C9          1.6750   -0.8680    4.7060 ca        1 MWB      0.131600
     10 C10         1.6560   -0.6280    7.1330 ca        1 MWB     -0.109250
     11 C11         0.8660   -1.7870    7.2630 ca        1 MWB      0.087100
     12 C12         0.8910   -2.0350    4.8400 ca        1 MWB     -0.158250
     13 N1          2.1700   -0.4610    3.4530 nu        1 MWB     -0.618000
     14 C13        -0.1670   -1.5000    9.4630 c2        1 MWB      0.696600
     15 N2         -0.7830   -2.1520   10.6300 nu        1 MWB     -0.799200
     16 N3         -0.3170   -0.1800    9.4050 n2        1 MWB     -0.646400
     17 C14        -2.0800    0.7460   -1.3660 c2        1 MWB      0.696600
     18 N4         -2.6880    1.4060   -0.3860 n2        1 MWB     -0.646400
     19 N5         -2.6430    0.9570   -2.7100 nu        1 MWB     -0.799200
     20 N6         -0.9830   -0.1440   -1.2360 nu        1 MWB     -0.650100
     21 N7          0.5380   -2.3140    8.5400 nu        1 MWB     -0.650100
     22 C15        -1.3020   -1.0480   11.4420 c3        1 MWB      0.120800
     23 C16        -1.0160    0.2470   10.6100 c3        1 MWB      0.087800
     24 C17        -3.8260    2.1130   -0.9580 c3        1 MWB      0.087800
     25 C18        -3.8240    1.7970   -2.4910 c3        1 MWB      0.120800
     26 H1          1.6730    0.2950   -1.0260 ha        1 MWB      0.143000
     27 H2         -1.9190   -0.5500    1.2820 ha        1 MWB      0.143000
     28 H3         -0.5710   -0.6900    3.3220 ha        1 MWB      0.141250
     29 H4          3.0250    0.1170    1.0080 ha        1 MWB      0.141250
     30 H5          2.6570    0.7380    5.8160 ha        1 MWB      0.141250
     31 H6         -0.1300   -3.3870    6.1550 ha        1 MWB      0.143000
     32 H7          1.9670   -0.0610    8.0260 ha        1 MWB      0.143000
     33 H8          0.5970   -2.6070    3.9460 ha        1 MWB      0.141250
     34 H9          2.8800    0.2410    3.5060 hn        1 MWB      0.414800
     35 H10        -0.1430   -2.7410   11.1230 hn        1 MWB      0.385800
     36 H15        -2.8480    0.0980   -3.1790 hn        1 MWB      0.385800
     37 H17        -0.3980   -0.1400   -2.0520 hn        1 MWB      0.414800
     38 H18         0.1500   -3.2390    8.4820 hn        1 MWB      0.414800
     39 H19        -0.8230   -0.9930   12.4530 h1        1 MWB      0.055450
     40 H20        -1.9730    0.7540   10.3260 h1        1 MWB      0.064700
     41 H21        -3.7110    3.2130   -0.7810 h1        1 MWB      0.064700
     42 H22        -4.7740    1.7670   -0.4690 h1        1 MWB      0.064700
     43 H23        -3.6940    2.7350   -3.0910 h1        1 MWB      0.055450
     44 H24        -4.7750    1.2950   -2.8030 h1        1 MWB      0.055450
     45 H11        -2.4050   -1.2030   11.5700 h1        1 MWB      0.055450
     46 H12        -0.3800    0.9710   11.1820 h1        1 MWB      0.064700
@<TRIPOS>BOND
     1    1    3 ar  
     2    1    4 ar  
     3    1   20 1   
     4    2    5 ar  
     5    2    6 ar  
     6    2   13 1   
     7    3    6 ar  
     8    3   26 1   
     9    4    5 ar  
    10    4   27 1   
    11    5   28 1   
    12    6   29 1   
    13    7    9 ar  
    14    7   10 ar  
    15    7   30 1   
    16    8   11 ar  
    17    8   12 ar  
    18    8   31 1   
    19    9   12 ar  
    20    9   13 1   
    21   10   11 ar  
    22   10   32 1   
    23   11   21 1   
    24   12   33 1   
    25   13   34 1   
    26   14   15 1   
    27   14   16 2   
    28   14   21 1   
    29   15   22 1   
    30   15   35 1   
    31   16   23 1   
    32   17   18 2   
    33   17   19 1   
    34   17   20 1   
    35   18   24 1   
    36   19   25 1   
    37   19   36 1   
    38   20   37 1   
    39   21   38 1   
    40   22   23 1   
    41   22   39 1   
    42   22   45 1   
    43   23   40 1   
    44   23   46 1   
    45   24   25 1   
    46   24   41 1   
    47   24   42 1   
    48   25   43 1   
    49   25   44 1   
@<TRIPOS>SUBSTRUCTURE
     1 MWB         1 TEMP              0 ****  ****    0 ROOT
