@<TRIPOS>MOLECULE
MWL
   51    55     1     0     0
SMALL
bcc


@<TRIPOS>ATOM
      1 C1          6.3720   -0.0660   -2.4420 ca        1 MWL      0.460200
      2 N2          5.4900    0.5820   -1.6670 nb        1 MWL     -0.741500
      3 C6          7.1500   -1.1470   -1.9920 ca        1 MWL     -0.410600
      4 C5          6.9500   -1.5360   -0.6560 ca        1 MWL      0.460200
      5 N4          6.0860   -0.9280    0.1700 nb        1 MWL     -0.741500
      6 C3          5.3740    0.1490   -0.3490 ca        1 MWL      0.850900
      7 N7          4.5650    0.9070    0.5470 nh        1 MWL     -0.703300
      8 C8          3.5990    1.8390   -0.0140 c3        1 MWL      0.179300
      9 C9          2.2230    1.2100   -0.3260 c3        1 MWL      0.155300
     10 C12         3.9990    0.2250    1.7010 c3        1 MWL      0.179300
     11 C11         2.6310   -0.4410    1.4310 c3        1 MWL      0.155300
     12 N10         1.6800    0.4740    0.8100 nh        1 MWL     -0.729300
     13 C13         0.3560    0.0040    0.6470 ca        1 MWL      0.561200
     14 C14        -0.6660    0.8810    0.1900 ca        1 MWL     -0.234300
     15 N18         0.0120   -1.3030    1.0170 nb        1 MWL     -0.345000
     16 N17        -1.1760   -1.7120    0.9790 nb        1 MWL     -0.272000
     17 C16        -2.2270   -0.9220    0.5570 cp        1 MWL      0.366800
     18 C20        -3.5730   -1.5120    0.5860 cp        1 MWL     -0.140500
     19 C21        -4.6010   -0.8860    1.3040 ca        1 MWL     -0.103000
     20 C22        -5.8700   -1.4610    1.3470 ca        1 MWL     -0.134500
     21 C23        -6.1200   -2.6600    0.6810 ca        1 MWL     -0.120000
     22 C24        -5.0970   -3.2900   -0.0260 ca        1 MWL     -0.134500
     23 C25        -3.8240   -2.7230   -0.0710 ca        1 MWL     -0.103000
     24 C15        -1.9850    0.4080    0.1350 cq        1 MWL     -0.077300
     25 C19        -3.0300    1.2980   -0.3660 cq        1 MWL     -0.011000
     26 C30        -3.8620    0.9190   -1.4290 ca        1 MWL     -0.227300
     27 C26        -3.1930    2.5790    0.1830 ca        1 MWL     -0.227300
     28 C27        -4.1860    3.4190   -0.3500 ca        1 MWL      0.392200
     29 N28        -4.9920    3.0670   -1.3710 nb        1 MWL     -0.657000
     30 C29        -4.8220    1.8370   -1.8920 ca        1 MWL      0.392200
     31 H1          6.4480    0.3030   -3.4810 h4        1 MWL      0.027100
     32 H2          7.8640   -1.6590   -2.6440 ha        1 MWL      0.156000
     33 H3          7.5060   -2.3840   -0.2150 h4        1 MWL      0.027100
     34 H4          3.4670    2.6480    0.7610 h1        1 MWL      0.080950
     35 H5          3.9810    2.3230   -0.9530 h1        1 MWL      0.080950
     36 H6          1.5230    2.0500   -0.5860 h1        1 MWL      0.058450
     37 H7          2.3220    0.5430   -1.2310 h1        1 MWL      0.058450
     38 H8          4.6920   -0.5620    2.1030 h1        1 MWL      0.080950
     39 H9          3.8770    1.0150    2.4970 h1        1 MWL      0.080950
     40 H10         2.7910   -1.3610    0.7990 h1        1 MWL      0.058450
     41 H11         2.2100   -0.7660    2.4240 h1        1 MWL      0.058450
     42 H12        -0.4480    1.9150   -0.1110 ha        1 MWL      0.156000
     43 H13        -4.4040    0.0580    1.8330 ha        1 MWL      0.140000
     44 H14        -6.6750   -0.9660    1.9120 ha        1 MWL      0.134500
     45 H15        -7.1230   -3.1110    0.7170 ha        1 MWL      0.133000
     46 H16        -5.2900   -4.2400   -0.5460 ha        1 MWL      0.134500
     47 H17        -3.0130   -3.2310   -0.6160 ha        1 MWL      0.140000
     48 H18        -3.7740   -0.0760   -1.8850 ha        1 MWL      0.151500
     49 H19        -2.5610    2.9200    1.0140 ha        1 MWL      0.151500
     50 H20        -4.3460    4.4320    0.0610 h4        1 MWL      0.025600
     51 H21        -5.4950    1.5710   -2.7280 h4        1 MWL      0.025600
@<TRIPOS>BOND
     1    1    2 ar  
     2    1    3 ar  
     3    1   31 1   
     4    2    6 ar  
     5    3    4 ar  
     6    3   32 1   
     7    4    5 ar  
     8    4   33 1   
     9    5    6 ar  
    10    6    7 1   
    11    7    8 1   
    12    7   10 1   
    13    8    9 1   
    14    8   34 1   
    15    8   35 1   
    16    9   12 1   
    17    9   36 1   
    18    9   37 1   
    19   10   11 1   
    20   10   38 1   
    21   10   39 1   
    22   11   12 1   
    23   11   40 1   
    24   11   41 1   
    25   12   13 1   
    26   13   14 ar  
    27   13   15 ar  
    28   14   24 2   
    29   14   42 1   
    30   15   16 ar  
    31   16   17 ar  
    32   17   18 1   
    33   17   24 1   
    34   18   19 ar  
    35   18   23 ar  
    36   19   20 ar  
    37   19   43 1   
    38   20   21 ar  
    39   20   44 1   
    40   21   22 ar  
    41   21   45 1   
    42   22   23 ar  
    43   22   46 1   
    44   23   47 1   
    45   24   25 1   
    46   25   26 1   
    47   25   27 2   
    48   26   30 ar  
    49   26   48 1   
    50   27   28 ar  
    51   27   49 1   
    52   28   29 ar  
    53   28   50 1   
    54   29   30 ar  
    55   30   51 1   
@<TRIPOS>SUBSTRUCTURE
     1 MWL         1 TEMP              0 ****  ****    0 ROOT
