@<TRIPOS>MOLECULE
MWL
   51    55     1     0     0
SMALL
bcc


@<TRIPOS>ATOM
      1 C1         -0.0000   -1.6870    0.7550 ca        1 MWL      0.460200
      2 N2          1.1500   -1.1140    0.3700 nb        1 MWL     -0.741500
      3 C6         -0.5350   -1.5570    2.0480 ca        1 MWL     -0.410600
      4 C5          0.2070   -0.7680    2.9450 ca        1 MWL      0.460200
      5 N4          1.3630   -0.1710    2.6230 nb        1 MWL     -0.741500
      6 C3          1.8330   -0.3710    1.3280 ca        1 MWL      0.850900
      7 N7          3.1310    0.1230    1.0060 nh        1 MWL     -0.703300
      8 C8          3.5180    0.1860   -0.3940 c3        1 MWL      0.179300
      9 C9          3.1170    1.4990   -1.1020 c3        1 MWL      0.155300
     10 C12         3.6100    1.3000    1.7170 c3        1 MWL      0.179300
     11 C11         3.2130    2.6400    1.0580 c3        1 MWL      0.155300
     12 N10         3.5430    2.6800   -0.3610 nh        1 MWL     -0.729300
     13 C13         3.3470    3.9130   -1.0270 ca        1 MWL      0.561200
     14 C14         3.7840    4.0820   -2.3700 ca        1 MWL     -0.234300
     15 N18         2.8020    5.0110   -0.3480 nb        1 MWL     -0.345000
     16 N17         2.7120    6.1440   -0.8860 nb        1 MWL     -0.272000
     17 C16         3.1220    6.3940   -2.1810 cp        1 MWL      0.366800
     18 C20         2.9880    7.7700   -2.6810 cp        1 MWL     -0.140500
     19 C21         4.1060    8.4510   -3.1770 ca        1 MWL     -0.103000
     20 C22         3.9790    9.7630   -3.6300 ca        1 MWL     -0.134500
     21 C23         2.7410   10.4030   -3.5870 ca        1 MWL     -0.120000
     22 C24         1.6270    9.7300   -3.0840 ca        1 MWL     -0.134500
     23 C25         1.7480    8.4190   -2.6260 ca        1 MWL     -0.103000
     24 C15         3.6620    5.3460   -2.9650 cq        1 MWL     -0.077300
     25 C19         4.0800    5.5110   -4.3550 cq        1 MWL     -0.011000
     26 C30         3.2070    6.0290   -5.3210 ca        1 MWL     -0.227300
     27 C26         5.3620    5.1090   -4.7620 ca        1 MWL     -0.227300
     28 C27         5.7130    5.2520   -6.1150 ca        1 MWL      0.392200
     29 N28         4.8840    5.7480   -7.0530 nb        1 MWL     -0.657000
     30 C29         3.6550    6.1250   -6.6510 ca        1 MWL      0.392200
     31 H1         -0.5190   -2.2760   -0.0240 h4        1 MWL      0.027100
     32 H2         -1.4750   -2.0360    2.3380 ha        1 MWL      0.156000
     33 H3         -0.1400   -0.5970    3.9810 h4        1 MWL      0.027100
     34 H4          4.6430    0.0890   -0.4050 h1        1 MWL      0.080950
     35 H5          3.0950   -0.6710   -0.9840 h1        1 MWL      0.080950
     36 H6          2.0010    1.5020   -1.2620 h1        1 MWL      0.058450
     37 H7          3.6150    1.5000   -2.1110 h1        1 MWL      0.058450
     38 H8          4.7350    1.2120    1.7340 h1        1 MWL      0.080950
     39 H9          3.2520    1.3200    2.7820 h1        1 MWL      0.080950
     40 H10         2.1130    2.8200    1.2310 h1        1 MWL      0.058450
     41 H11         3.7880    3.4560    1.5780 h1        1 MWL      0.058450
     42 H12         4.2190    3.2520   -2.9440 ha        1 MWL      0.156000
     43 H13         5.0850    7.9490   -3.2090 ha        1 MWL      0.140000
     44 H14         4.8610   10.2940   -4.0190 ha        1 MWL      0.134500
     45 H15         2.6430   11.4390   -3.9440 ha        1 MWL      0.133000
     46 H16         0.6510   10.2360   -3.0420 ha        1 MWL      0.134500
     47 H17         0.8710    7.8970   -2.2140 ha        1 MWL      0.140000
     48 H18         2.1960    6.3610   -5.0460 ha        1 MWL      0.151500
     49 H19         6.0780    4.6960   -4.0390 ha        1 MWL      0.151500
     50 H20         6.7160    4.9520   -6.4700 h4        1 MWL      0.025600
     51 H21         2.9940    6.5280   -7.4390 h4        1 MWL      0.025600
@<TRIPOS>BOND
     1    1    2 ar  
     2    1    3 ar  
     3    1   31 1   
     4    2    6 ar  
     5    3    4 ar  
     6    3   32 1   
     7    4    5 ar  
     8    4   33 1   
     9    5    6 ar  
    10    6    7 1   
    11    7    8 1   
    12    7   10 1   
    13    8    9 1   
    14    8   34 1   
    15    8   35 1   
    16    9   12 1   
    17    9   36 1   
    18    9   37 1   
    19   10   11 1   
    20   10   38 1   
    21   10   39 1   
    22   11   12 1   
    23   11   40 1   
    24   11   41 1   
    25   12   13 1   
    26   13   14 ar  
    27   13   15 ar  
    28   14   24 2   
    29   14   42 1   
    30   15   16 ar  
    31   16   17 ar  
    32   17   18 1   
    33   17   24 1   
    34   18   19 ar  
    35   18   23 ar  
    36   19   20 ar  
    37   19   43 1   
    38   20   21 ar  
    39   20   44 1   
    40   21   22 ar  
    41   21   45 1   
    42   22   23 ar  
    43   22   46 1   
    44   23   47 1   
    45   24   25 1   
    46   25   26 1   
    47   25   27 2   
    48   26   30 ar  
    49   26   48 1   
    50   27   28 ar  
    51   27   49 1   
    52   28   29 ar  
    53   28   50 1   
    54   29   30 ar  
    55   30   51 1   
@<TRIPOS>SUBSTRUCTURE
     1 MWL         1 TEMP              0 ****  ****    0 ROOT
