@<TRIPOS>MOLECULE
MWL
   51    55     1     0     0
SMALL
bcc


@<TRIPOS>ATOM
      1 C1          0.0010   -1.6910    0.7480 ca        1 MWL      0.460200
      2 N2          1.1500   -1.1170    0.3620 nb        1 MWL     -0.741500
      3 C6         -0.5320   -1.5640    2.0420 ca        1 MWL     -0.410600
      4 C5          0.2120   -0.7770    2.9390 ca        1 MWL      0.460200
      5 N4          1.3680   -0.1790    2.6160 nb        1 MWL     -0.741500
      6 C3          1.8360   -0.3780    1.3200 ca        1 MWL      0.850900
      7 N7          3.1330    0.1170    0.9980 nh        1 MWL     -0.703300
      8 C8          3.5180    0.1820   -0.4030 c3        1 MWL      0.179300
      9 C9          3.1170    1.4980   -1.1080 c3        1 MWL      0.155300
     10 C12         3.6140    1.2920    1.7100 c3        1 MWL      0.179300
     11 C11         3.2160    2.6340    1.0540 c3        1 MWL      0.155300
     12 N10         3.5440    2.6770   -0.3650 nh        1 MWL     -0.729300
     13 C13         3.3470    3.9110   -1.0280 ca        1 MWL      0.561200
     14 C14         3.7820    4.0830   -2.3710 ca        1 MWL     -0.234300
     15 N18         2.8040    5.0080   -0.3460 nb        1 MWL     -0.345000
     16 N17         2.7140    6.1430   -0.8810 nb        1 MWL     -0.272000
     17 C16         3.1220    6.3950   -2.1760 cp        1 MWL      0.366800
     18 C20         2.9880    7.7720   -2.6730 cp        1 MWL     -0.140500
     19 C21         4.1060    8.4540   -3.1690 ca        1 MWL     -0.103000
     20 C22         3.9790    9.7670   -3.6190 ca        1 MWL     -0.134500
     21 C23         2.7410   10.4080   -3.5720 ca        1 MWL     -0.120000
     22 C24         1.6280    9.7340   -3.0690 ca        1 MWL     -0.134500
     23 C25         1.7480    8.4220   -2.6140 ca        1 MWL     -0.103000
     24 C15         3.6610    5.3480   -2.9630 cq        1 MWL     -0.077300
     25 C19         4.0770    5.5160   -4.3540 cq        1 MWL     -0.011000
     26 C30         3.2020    6.0370   -5.3170 ca        1 MWL     -0.227300
     27 C26         5.3580    5.1150   -4.7630 ca        1 MWL     -0.227300
     28 C27         5.7080    5.2610   -6.1160 ca        1 MWL      0.392200
     29 N28         4.8770    5.7590   -7.0520 nb        1 MWL     -0.657000
     30 C29         3.6490    6.1350   -6.6470 ca        1 MWL      0.392200
     31 H1         -0.5200   -2.2780   -0.0320 h4        1 MWL      0.027100
     32 H2         -1.4710   -2.0430    2.3320 ha        1 MWL      0.156000
     33 H3         -0.1330   -0.6080    3.9770 h4        1 MWL      0.027100
     34 H4          4.6430    0.0860   -0.4160 h1        1 MWL      0.080950
     35 H5          3.0940   -0.6730   -0.9950 h1        1 MWL      0.080950
     36 H6          3.6120    1.5000   -2.1170 h1        1 MWL      0.058450
     37 H7          2.0000    1.5010   -1.2660 h1        1 MWL      0.058450
     38 H8          3.2570    1.3100    2.7760 h1        1 MWL      0.080950
     39 H9          4.7390    1.2040    1.7250 h1        1 MWL      0.080950
     40 H10         3.7930    3.4490    1.5750 h1        1 MWL      0.058450
     41 H11         2.1170    2.8140    1.2290 h1        1 MWL      0.058450
     42 H12         4.2160    3.2540   -2.9480 ha        1 MWL      0.156000
     43 H13         5.0840    7.9510   -3.2030 ha        1 MWL      0.140000
     44 H14         4.8600   10.2990   -4.0080 ha        1 MWL      0.134500
     45 H15         2.6440   11.4440   -3.9270 ha        1 MWL      0.133000
     46 H16         0.6520   10.2400   -3.0240 ha        1 MWL      0.134500
     47 H17         0.8720    7.8990   -2.2020 ha        1 MWL      0.140000
     48 H18         2.1920    6.3680   -5.0410 ha        1 MWL      0.151500
     49 H19         6.0750    4.7000   -4.0420 ha        1 MWL      0.151500
     50 H20         6.7100    4.9610   -6.4730 h4        1 MWL      0.025600
     51 H21         2.9870    6.5400   -7.4330 h4        1 MWL      0.025600
@<TRIPOS>BOND
     1    1    2 ar  
     2    1    3 ar  
     3    1   31 1   
     4    2    6 ar  
     5    3    4 ar  
     6    3   32 1   
     7    4    5 ar  
     8    4   33 1   
     9    5    6 ar  
    10    6    7 1   
    11    7    8 1   
    12    7   10 1   
    13    8    9 1   
    14    8   34 1   
    15    8   35 1   
    16    9   12 1   
    17    9   36 1   
    18    9   37 1   
    19   10   11 1   
    20   10   38 1   
    21   10   39 1   
    22   11   12 1   
    23   11   40 1   
    24   11   41 1   
    25   12   13 1   
    26   13   14 ar  
    27   13   15 ar  
    28   14   24 2   
    29   14   42 1   
    30   15   16 ar  
    31   16   17 ar  
    32   17   18 1   
    33   17   24 1   
    34   18   19 ar  
    35   18   23 ar  
    36   19   20 ar  
    37   19   43 1   
    38   20   21 ar  
    39   20   44 1   
    40   21   22 ar  
    41   21   45 1   
    42   22   23 ar  
    43   22   46 1   
    44   23   47 1   
    45   24   25 1   
    46   25   26 1   
    47   25   27 2   
    48   26   30 ar  
    49   26   48 1   
    50   27   28 ar  
    51   27   49 1   
    52   28   29 ar  
    53   28   50 1   
    54   29   30 ar  
    55   30   51 1   
@<TRIPOS>SUBSTRUCTURE
     1 MWL         1 TEMP              0 ****  ****    0 ROOT
