@<TRIPOS>MOLECULE
MWL
   51    55     1     0     0
SMALL
bcc


@<TRIPOS>ATOM
      1 C1          0.0070   -1.6930    0.7460 ca        1 MWL      0.460200
      2 N2          1.1560   -1.1190    0.3600 nb        1 MWL     -0.741500
      3 C6         -0.5250   -1.5670    2.0400 ca        1 MWL     -0.410600
      4 C5          0.2190   -0.7810    2.9380 ca        1 MWL      0.460200
      5 N4          1.3750   -0.1820    2.6140 nb        1 MWL     -0.741500
      6 C3          1.8420   -0.3800    1.3180 ca        1 MWL      0.850900
      7 N7          3.1390    0.1150    0.9950 nh        1 MWL     -0.703300
      8 C8          3.5230    0.1820   -0.4060 c3        1 MWL      0.179300
      9 C9          3.1210    1.4970   -1.1090 c3        1 MWL      0.155300
     10 C12         3.6200    1.2900    1.7080 c3        1 MWL      0.179300
     11 C11         3.2220    2.6320    1.0540 c3        1 MWL      0.155300
     12 N10         3.5480    2.6770   -0.3660 nh        1 MWL     -0.729300
     13 C13         3.3500    3.9110   -1.0270 ca        1 MWL      0.561200
     14 C14         3.7800    4.0830   -2.3720 ca        1 MWL     -0.234300
     15 N18         2.8110    5.0080   -0.3430 nb        1 MWL     -0.345000
     16 N17         2.7200    6.1430   -0.8770 nb        1 MWL     -0.272000
     17 C16         3.1230    6.3960   -2.1730 cp        1 MWL      0.366800
     18 C20         2.9880    7.7730   -2.6680 cp        1 MWL     -0.140500
     19 C21         4.1050    8.4540   -3.1700 ca        1 MWL     -0.103000
     20 C22         3.9780    9.7680   -3.6190 ca        1 MWL     -0.134500
     21 C23         2.7410   10.4100   -3.5650 ca        1 MWL     -0.120000
     22 C24         1.6290    9.7380   -3.0570 ca        1 MWL     -0.134500
     23 C25         1.7500    8.4250   -2.6030 ca        1 MWL     -0.103000
     24 C15         3.6580    5.3490   -2.9630 cq        1 MWL     -0.077300
     25 C19         4.0680    5.5180   -4.3550 cq        1 MWL     -0.011000
     26 C30         3.1900    6.0390   -5.3150 ca        1 MWL     -0.227300
     27 C26         5.3470    5.1160   -4.7700 ca        1 MWL     -0.227300
     28 C27         5.6920    5.2620   -6.1240 ca        1 MWL      0.392200
     29 N28         4.8570    5.7610   -7.0570 nb        1 MWL     -0.657000
     30 C29         3.6310    6.1380   -6.6470 ca        1 MWL      0.392200
     31 H1         -0.5130   -2.2800   -0.0340 h4        1 MWL      0.027100
     32 H2         -1.4640   -2.0470    2.3310 ha        1 MWL      0.156000
     33 H3         -0.1250   -0.6120    3.9750 h4        1 MWL      0.027100
     34 H4          3.0990   -0.6730   -0.9980 h1        1 MWL      0.080950
     35 H5          4.6480    0.0860   -0.4200 h1        1 MWL      0.080950
     36 H6          2.0040    1.5000   -1.2670 h1        1 MWL      0.058450
     37 H7          3.6160    1.5010   -2.1190 h1        1 MWL      0.058450
     38 H8          3.2650    1.3070    2.7740 h1        1 MWL      0.080950
     39 H9          4.7450    1.2020    1.7220 h1        1 MWL      0.080950
     40 H10         2.1230    2.8120    1.2300 h1        1 MWL      0.058450
     41 H11         3.7990    3.4460    1.5750 h1        1 MWL      0.058450
     42 H12         4.2110    3.2550   -2.9510 ha        1 MWL      0.156000
     43 H13         5.0820    7.9490   -3.2090 ha        1 MWL      0.140000
     44 H14         4.8580   10.2980   -4.0120 ha        1 MWL      0.134500
     45 H15         2.6440   11.4470   -3.9190 ha        1 MWL      0.133000
     46 H16         0.6550   10.2460   -3.0070 ha        1 MWL      0.134500
     47 H17         0.8750    7.9030   -2.1870 ha        1 MWL      0.140000
     48 H18         2.1810    6.3710   -5.0340 ha        1 MWL      0.151500
     49 H19         6.0670    4.7000   -4.0520 ha        1 MWL      0.151500
     50 H20         6.6920    4.9620   -6.4860 h4        1 MWL      0.025600
     51 H21         2.9660    6.5440   -7.4300 h4        1 MWL      0.025600
@<TRIPOS>BOND
     1    1    2 ar  
     2    1    3 ar  
     3    1   31 1   
     4    2    6 ar  
     5    3    4 ar  
     6    3   32 1   
     7    4    5 ar  
     8    4   33 1   
     9    5    6 ar  
    10    6    7 1   
    11    7    8 1   
    12    7   10 1   
    13    8    9 1   
    14    8   34 1   
    15    8   35 1   
    16    9   12 1   
    17    9   36 1   
    18    9   37 1   
    19   10   11 1   
    20   10   38 1   
    21   10   39 1   
    22   11   12 1   
    23   11   40 1   
    24   11   41 1   
    25   12   13 1   
    26   13   14 ar  
    27   13   15 ar  
    28   14   24 2   
    29   14   42 1   
    30   15   16 ar  
    31   16   17 ar  
    32   17   18 1   
    33   17   24 1   
    34   18   19 ar  
    35   18   23 ar  
    36   19   20 ar  
    37   19   43 1   
    38   20   21 ar  
    39   20   44 1   
    40   21   22 ar  
    41   21   45 1   
    42   22   23 ar  
    43   22   46 1   
    44   23   47 1   
    45   24   25 1   
    46   25   26 1   
    47   25   27 2   
    48   26   30 ar  
    49   26   48 1   
    50   27   28 ar  
    51   27   49 1   
    52   28   29 ar  
    53   28   50 1   
    54   29   30 ar  
    55   30   51 1   
@<TRIPOS>SUBSTRUCTURE
     1 MWL         1 TEMP              0 ****  ****    0 ROOT
