@<TRIPOS>MOLECULE
MWP
   20    21     1     0     0
SMALL
bcc


@<TRIPOS>ATOM
      1 O11         0.1380   -0.1320   -0.1850 o         1 MWP     -0.604800
      2 S9          1.5170   -0.0700   -0.0730 sy        1 MWP      1.397200
      3 O10         2.2910   -0.9260   -0.8390 o         1 MWP     -0.604800
      4 C8          2.0410    0.0270    1.5330 ce        1 MWP     -0.379100
      5 C7          2.5850    1.2040    1.8950 cf        1 MWP      0.032800
      6 C2          2.5960    2.1590    0.7720 ca        1 MWP      0.021200
      7 C3          2.0290    1.5800   -0.3910 ca        1 MWP     -0.271500
      8 C4          1.9430    2.3100   -1.5570 ca        1 MWP      0.023000
      9 C5          2.4310    3.6370   -1.5590 ca        1 MWP     -0.092400
     10 N12         2.3430    4.4170   -2.7950 n4        1 MWP     -0.701000
     11 C6          2.9930    4.2120   -0.4080 ca        1 MWP     -0.052000
     12 C1          3.0750    3.4620    0.7700 ca        1 MWP     -0.087000
     13 H1          1.9410   -0.8180    2.2290 h4        1 MWP      0.218000
     14 H2          2.9860    1.4810    2.8770 ha        1 MWP      0.183000
     15 H3          1.5010    1.8600   -2.4640 ha        1 MWP      0.169000
     16 H4          1.3590    4.5000   -3.0790 hn        1 MWP      0.467133
     17 H5          2.8690    3.9420   -3.5390 hn        1 MWP      0.467133
     18 H6          3.3750    5.2470   -0.4070 ha        1 MWP      0.163000
     19 H7          3.5160    3.9090    1.6770 ha        1 MWP      0.184000
     20 H123        2.7330    5.3550   -2.6520 hn        1 MWP      0.467133
@<TRIPOS>BOND
     1    1    2 2   
     2    2    3 2   
     3    2    4 1   
     4    2    7 1   
     5    4    5 2   
     6    4   13 1   
     7    5    6 1   
     8    5   14 1   
     9    6    7 ar  
    10    6   12 ar  
    11    7    8 ar  
    12    8    9 ar  
    13    8   15 1   
    14    9   10 1   
    15    9   11 ar  
    16   10   16 1   
    17   10   17 1   
    18   10   20 1   
    19   11   12 ar  
    20   11   18 1   
    21   12   19 1   
@<TRIPOS>SUBSTRUCTURE
     1 MWP         1 TEMP              0 ****  ****    0 ROOT
