@<TRIPOS>MOLECULE
MWP
   19    20     1     0     0
SMALL
bcc


@<TRIPOS>ATOM
      1 O11         1.9750    1.1890   -1.1850 o         1 MWP     -0.643300
      2 S9          1.6330    0.5360    0.0010 sy        1 MWP      1.406200
      3 O10         2.0080    1.1730    1.1850 o         1 MWP     -0.643300
      4 C8          2.1020   -1.0850   -0.0160 ce        1 MWP     -0.444100
      5 C7          1.0740   -1.9580   -0.0120 cf        1 MWP      0.065800
      6 C2         -0.2200   -1.2690    0.0060 ca        1 MWP     -0.111800
      7 C3         -0.0420    0.1420    0.0170 ca        1 MWP     -0.268500
      8 C4         -1.1350    0.9730    0.0330 ca        1 MWP     -0.056000
      9 C5         -2.4530    0.4190    0.0400 ca        1 MWP      0.161600
     10 N12        -3.5590    1.2530    0.1400 nh        1 MWP     -0.833200
     11 C6         -2.6020   -0.9850    0.0210 ca        1 MWP     -0.175000
     12 C1         -1.4860   -1.8250    0.0090 ca        1 MWP     -0.049000
     13 H1          3.1520   -1.3920   -0.0290 h4        1 MWP      0.191000
     14 H2          1.1340   -3.0510   -0.0200 ha        1 MWP      0.153000
     15 H3         -1.0030    2.0670    0.0470 ha        1 MWP      0.148000
     16 H4         -3.4200    2.1990   -0.1300 hn        1 MWP      0.408800
     17 H5         -4.4300    0.8610   -0.1320 hn        1 MWP      0.408800
     18 H6         -3.6070   -1.4340    0.0250 ha        1 MWP      0.140000
     19 H7         -1.6230   -2.9170    0.0010 ha        1 MWP      0.142000
@<TRIPOS>BOND
     1    1    2 2   
     2    2    3 2   
     3    2    4 1   
     4    2    7 1   
     5    4    5 2   
     6    4   13 1   
     7    5    6 1   
     8    5   14 1   
     9    6    7 ar  
    10    6   12 ar  
    11    7    8 ar  
    12    8    9 ar  
    13    8   15 1   
    14    9   10 1   
    15    9   11 ar  
    16   10   16 1   
    17   10   17 1   
    18   11   12 ar  
    19   11   18 1   
    20   12   19 1   
@<TRIPOS>SUBSTRUCTURE
     1 MWP         1 TEMP              0 ****  ****    0 ROOT
