@<TRIPOS>MOLECULE
MWP
   19    20     1     0     0
SMALL
bcc


@<TRIPOS>ATOM
      1 O11        -0.1380    0.1220   -0.0410 o         1 MWP     -0.643300
      2 S9          1.2580    0.0880    0.0090 sy        1 MWP      1.406200
      3 O10         1.8760   -0.9210   -0.7310 o         1 MWP     -0.643300
      4 C8          1.8300    0.1450    1.5960 ce        1 MWP     -0.444100
      5 C7          2.5110    1.2700    1.8980 cf        1 MWP      0.065800
      6 C2          2.5840    2.1810    0.7520 ca        1 MWP     -0.111800
      7 C3          1.9170    1.6290   -0.3770 ca        1 MWP     -0.268500
      8 C4          1.8700    2.3290   -1.5580 ca        1 MWP     -0.056000
      9 C5          2.4930    3.6120   -1.6530 ca        1 MWP      0.161600
     10 N12         2.5190    4.2860   -2.8670 nh        1 MWP     -0.833200
     11 C6          3.1430    4.1400   -0.5160 ca        1 MWP     -0.175000
     12 C1          3.1910    3.4220    0.6810 ca        1 MWP     -0.049000
     13 H1          1.6600   -0.6650    2.3100 h4        1 MWP      0.191000
     14 H2          2.9720    1.5270    2.8560 ha        1 MWP      0.153000
     15 H3          1.3590    1.9050   -2.4370 ha        1 MWP      0.148000
     16 H4          1.8310    4.0190   -3.5310 hn        1 MWP      0.408800
     17 H5          2.7070    5.2600   -2.8230 hn        1 MWP      0.408800
     18 H6          3.6280    5.1270   -0.5650 ha        1 MWP      0.140000
     19 H7          3.7070    3.8480    1.5550 ha        1 MWP      0.142000
@<TRIPOS>BOND
     1    1    2 2   
     2    2    3 2   
     3    2    4 1   
     4    2    7 1   
     5    4    5 2   
     6    4   13 1   
     7    5    6 1   
     8    5   14 1   
     9    6    7 ar  
    10    6   12 ar  
    11    7    8 ar  
    12    8    9 ar  
    13    8   15 1   
    14    9   10 1   
    15    9   11 ar  
    16   10   16 1   
    17   10   17 1   
    18   11   12 ar  
    19   11   18 1   
    20   12   19 1   
@<TRIPOS>SUBSTRUCTURE
     1 MWP         1 TEMP              0 ****  ****    0 ROOT
