@<TRIPOS>MOLECULE
MWP
   19    20     1     0     0
SMALL
bcc


@<TRIPOS>ATOM
      1 O11         0.0420   -0.1040   -0.1680 o         1 MWP     -0.643300
      2 S9          1.4270    0.0130   -0.0390 sy        1 MWP      1.406200
      3 O10         2.1910   -0.9170   -0.7480 o         1 MWP     -0.643300
      4 C8          1.9020    0.1150    1.5770 ce        1 MWP     -0.444100
      5 C7          2.4480    1.3000    1.9180 cf        1 MWP      0.065800
      6 C2          2.4940    2.2220    0.7790 ca        1 MWP     -0.111800
      7 C3          1.9460    1.6160   -0.3850 ca        1 MWP     -0.268500
      8 C4          1.8970    2.3160   -1.5660 ca        1 MWP     -0.056000
      9 C5          2.3960    3.6540   -1.6240 ca        1 MWP      0.161600
     10 N12         2.2720    4.3930   -2.7940 nv        1 MWP     -0.833200
     11 C6          2.9410    4.2300   -0.4570 ca        1 MWP     -0.175000
     12 C1          2.9840    3.5150    0.7430 ca        1 MWP     -0.049000
     13 H1          1.7740   -0.7130    2.2800 h4        1 MWP      0.191000
     14 H2          2.8250    1.5960    2.9020 ha        1 MWP      0.153000
     15 H3          1.4680    1.8530   -2.4700 ha        1 MWP      0.148000
     16 H4          2.1510    3.8710   -3.6310 hn        1 MWP      0.408800
     17 H5          2.8620    5.1880   -2.8740 hn        1 MWP      0.408800
     18 H6          3.3330    5.2580   -0.4780 ha        1 MWP      0.140000
     19 H7          3.4080    3.9830    1.6440 ha        1 MWP      0.142000
@<TRIPOS>BOND
     1    1    2 2   
     2    2    3 2   
     3    2    4 1   
     4    2    7 1   
     5    4    5 2   
     6    4   13 1   
     7    5    6 1   
     8    5   14 1   
     9    6    7 ar  
    10    6   12 ar  
    11    7    8 ar  
    12    8    9 ar  
    13    8   15 1   
    14    9   10 1   
    15    9   11 ar  
    16   10   16 1   
    17   10   17 1   
    18   11   12 ar  
    19   11   18 1   
    20   12   19 1   
@<TRIPOS>SUBSTRUCTURE
     1 MWP         1 TEMP              0 ****  ****    0 ROOT
