@<TRIPOS>MOLECULE
MX1
   45    46     1     0     0
SMALL
bcc


@<TRIPOS>ATOM
      1 O4          2.1800    3.6590    0.9980 o         1 MX1     -0.845800
      2 C7          1.7470    2.7150    1.7190 c         1 MX1      0.841300
      3 O3          1.0650    2.8960    2.7650 o         1 MX1     -0.845800
      4 C4          2.1510    1.2730    1.3550 ce        1 MX1      0.403600
      5 N1          1.3410    0.4330    0.8010 n2        1 MX1     -0.571900
      6 C5          3.5450    0.9250    1.7430 ce        1 MX1     -0.198800
      7 C8          4.4310    1.8150    2.1950 c2        1 MX1     -0.241000
      8 C6          3.8750   -0.5290    1.5960 c3        1 MX1      0.161600
      9 O2          3.1970   -1.1200    0.5030 os        1 MX1     -0.400600
     10 C3          1.7590   -0.9390    0.5810 c3        1 MX1      0.294300
     11 C2          1.2220   -1.6250   -0.7410 c3        1 MX1      0.233200
     12 C1          1.7380   -3.1270   -0.7470 c         1 MX1      0.922600
     13 O32         1.9040   -3.7050    0.3580 o         1 MX1     -0.838800
     14 O31         1.9760   -3.6670   -1.8650 o         1 MX1     -0.838800
     15 O5          1.8300   -0.8550   -1.7910 os        1 MX1     -0.420600
     16 C9          1.7390   -1.3770   -3.1020 c3        1 MX1      0.144700
     17 N2         -0.2260   -1.5230   -0.8850 n         1 MX1     -0.545900
     18 C10        -1.1750   -1.7620    0.0660 c         1 MX1      0.686100
     19 O6         -0.9100   -2.1170    1.2420 o         1 MX1     -0.679100
     20 C11        -2.6540   -1.5730   -0.3030 c3        1 MX1     -0.215400
     21 C12        -3.0910   -1.9820   -1.7360 c         1 MX1      0.925600
     22 O8         -4.1910   -2.6120   -1.8250 o         1 MX1     -0.849800
     23 O7         -2.4070   -1.6560   -2.7450 o         1 MX1     -0.849800
     24 C13        -3.1310   -0.1900   -0.0050 ca        1 MX1     -0.042300
     25 C14        -4.4620    0.1410   -0.3030 ca        1 MX1     -0.097500
     26 C18        -2.3100    0.7760    0.5930 ca        1 MX1     -0.097500
     27 C17        -2.8050    2.0430    0.8930 ca        1 MX1     -0.193500
     28 C16        -4.1380    2.3490    0.5950 ca        1 MX1      0.059100
     29 O9         -4.6890    3.5910    0.8830 oh        1 MX1     -0.546100
     30 C15        -4.9760    1.4010   -0.0070 ca        1 MX1     -0.193500
     31 H81         4.1760    2.8790    2.2970 ha        1 MX1      0.099500
     32 H82         5.4540    1.5320    2.4710 ha        1 MX1      0.099500
     33 H61         4.9630   -0.6890    1.3690 h1        1 MX1      0.022700
     34 H62         3.6120   -1.0700    2.5470 h1        1 MX1      0.022700
     35 H3          1.3620   -1.5780    1.4330 h2        1 MX1      0.113700
     36 H91         0.9060   -2.1050   -3.2380 h1        1 MX1      0.017700
     37 H92         1.5890   -0.4820   -3.7630 h1        1 MX1      0.017700
     38 H93         2.7080   -1.8790   -3.3500 h1        1 MX1      0.017700
     39 HN2        -0.5510   -1.2780   -1.8000 hn        1 MX1      0.345500
     40 H11        -3.2110   -2.2710    0.3920 hc        1 MX1      0.072700
     41 H14        -5.0920   -0.6190   -0.7980 ha        1 MX1      0.178000
     42 H18        -1.2560    0.5430    0.8350 ha        1 MX1      0.178000
     43 H17        -2.1420    2.7890    1.3550 ha        1 MX1      0.126000
     44 HO9        -3.9660    4.1430    1.2080 ho        1 MX1      0.404000
     45 H15        -6.0150    1.6590   -0.2430 ha        1 MX1      0.126000
@<TRIPOS>BOND
     1    1    2 1   
     2    2    3 1   
     3    2    4 1   
     4    4    5 2   
     5    4    6 1   
     6    5   10 1   
     7    6    7 2   
     8    6    8 1   
     9    7   31 1   
    10    7   32 1   
    11    8    9 1   
    12    8   33 1   
    13    8   34 1   
    14    9   10 1   
    15   10   11 1   
    16   10   35 1   
    17   11   12 1   
    18   11   15 1   
    19   11   17 1   
    20   12   13 1   
    21   12   14 1   
    22   15   16 1   
    23   16   36 1   
    24   16   37 1   
    25   16   38 1   
    26   17   18 1   
    27   17   39 1   
    28   18   19 2   
    29   18   20 1   
    30   20   21 1   
    31   20   24 1   
    32   20   40 1   
    33   21   22 1   
    34   21   23 1   
    35   24   25 ar  
    36   24   26 ar  
    37   25   30 ar  
    38   25   41 1   
    39   26   27 ar  
    40   26   42 1   
    41   27   28 ar  
    42   27   43 1   
    43   28   29 1   
    44   28   30 ar  
    45   29   44 1   
    46   30   45 1   
@<TRIPOS>SUBSTRUCTURE
     1 MX1         1 TEMP              0 ****  ****    0 ROOT
