@<TRIPOS>MOLECULE
MX1
   46    47     1     0     0
SMALL
bcc


@<TRIPOS>ATOM
      1 O4          2.4820    1.8220    0.9680 o         1 MX1     -0.814800
      2 C7          2.9450    0.7540    0.4900 c         1 MX1      0.841300
      3 O3          3.4130   -0.2070    1.1520 o         1 MX1     -0.814800
      4 C4          3.0170    0.6390   -1.0550 ce        1 MX1      0.458600
      5 N1          2.1830   -0.0770   -1.7310 n2        1 MX1     -0.658900
      6 C5          4.1430    1.3730   -1.6860 ce        1 MX1     -0.238800
      7 C8          4.8710    2.2830   -1.0340 c2        1 MX1     -0.184000
      8 C6          4.3940    1.0070   -3.1140 c3        1 MX1      0.164600
      9 O2          3.1970    0.7220   -3.8250 os        1 MX1     -0.407600
     10 C3          2.3570   -0.2450   -3.1590 c3        1 MX1      0.303300
     11 C2          1.0060   -0.1820   -3.9820 c3        1 MX1      0.241000
     12 C1          1.2830   -0.8200   -5.4090 c         1 MX1      0.914600
     13 O32         0.8560   -0.2160   -6.4210 o         1 MX1     -0.788800
     14 O31         1.8910   -1.9190   -5.4010 o         1 MX1     -0.788800
     15 O5          0.6170    1.1690   -3.9540 os        1 MX1     -0.387600
     16 C9         -0.3420    1.6000   -4.9150 c3        1 MX1      0.115700
     17 N2         -0.0960   -0.9620   -3.2480 n4        1 MX1     -0.704800
     18 C10        -0.5560   -2.2340   -3.8900 c         1 MX1      0.607100
     19 O6         -0.2060   -3.2690   -3.3260 o         1 MX1     -0.505100
     20 C11        -1.4930   -2.0970   -5.0650 c3        1 MX1     -0.230400
     21 C12        -2.8620   -1.5240   -4.5670 c         1 MX1      0.928600
     22 O8         -3.9310   -1.9220   -5.0850 o         1 MX1     -0.814800
     23 O7         -2.7990   -0.6230   -3.6750 o         1 MX1     -0.814800
     24 C13        -1.5410   -3.3740   -5.8360 ca        1 MX1     -0.076300
     25 C14        -0.4820   -3.6560   -6.7160 ca        1 MX1     -0.062500
     26 C18        -2.5970   -4.2820   -5.7220 ca        1 MX1     -0.062500
     27 C17        -2.6120   -5.4500   -6.4820 ca        1 MX1     -0.205500
     28 C16        -1.5540   -5.7120   -7.3610 ca        1 MX1      0.096100
     29 O9         -1.5140   -6.8510   -8.1470 oh        1 MX1     -0.522100
     30 C15        -0.4810   -4.8180   -7.4810 ca        1 MX1     -0.205500
     31 H81         5.6910    2.8290   -1.5160 ha        1 MX1      0.115000
     32 H82         4.6670    2.5320    0.0180 ha        1 MX1      0.115000
     33 H61         5.0740    0.1120   -3.1610 h1        1 MX1      0.037200
     34 H62         4.8510    1.8550   -3.6920 h1        1 MX1      0.037200
     35 H3          2.7950   -1.2750   -3.3500 h2        1 MX1      0.095700
     36 H91        -0.7860    2.5160   -4.4470 h1        1 MX1      0.045367
     37 H92         0.1790    1.8490   -5.8710 h1        1 MX1      0.045367
     38 H93        -1.1330    0.8320   -5.0960 h1        1 MX1      0.045367
     39 HN2         0.2240   -1.1790   -2.2980 hn        1 MX1      0.473300
     40 H11        -1.0920   -1.2930   -5.7600 hc        1 MX1      0.131700
     41 H14         0.3700   -2.9480   -6.7810 ha        1 MX1      0.180000
     42 H18        -3.4390   -4.0560   -5.0450 ha        1 MX1      0.180000
     43 H17        -3.4480   -6.1560   -6.3940 ha        1 MX1      0.122000
     44 HO9        -2.3020   -7.3690   -7.9380 ho        1 MX1      0.399000
     45 H15         0.3450   -5.0430   -8.1670 ha        1 MX1      0.122000
     46 H22        -0.9340   -0.3420   -3.1800 hn        1 MX1      0.473300
@<TRIPOS>BOND
     1    1    2 1   
     2    2    3 1   
     3    2    4 1   
     4    4    5 2   
     5    4    6 1   
     6    5   10 1   
     7    6    7 2   
     8    6    8 1   
     9    7   31 1   
    10    7   32 1   
    11    8    9 1   
    12    8   33 1   
    13    8   34 1   
    14    9   10 1   
    15   10   11 1   
    16   10   35 1   
    17   11   12 1   
    18   11   15 1   
    19   11   17 1   
    20   12   13 1   
    21   12   14 1   
    22   15   16 1   
    23   16   36 1   
    24   16   37 1   
    25   16   38 1   
    26   17   18 1   
    27   17   39 1   
    28   17   46 1   
    29   18   19 2   
    30   18   20 1   
    31   20   21 1   
    32   20   24 1   
    33   20   40 1   
    34   21   22 1   
    35   21   23 1   
    36   24   25 ar  
    37   24   26 ar  
    38   25   30 ar  
    39   25   41 1   
    40   26   27 ar  
    41   26   42 1   
    42   27   28 ar  
    43   27   43 1   
    44   28   29 1   
    45   28   30 ar  
    46   29   44 1   
    47   30   45 1   
@<TRIPOS>SUBSTRUCTURE
     1 MX1         1 TEMP              0 ****  ****    0 ROOT
