@<TRIPOS>MOLECULE
MX1
   46    47     1     0     0
SMALL
bcc


@<TRIPOS>ATOM
      1 O4          2.6120    1.7720    0.9520 o         1 MX1     -0.814800
      2 C7          3.0410    0.6920    0.4700 c         1 MX1      0.841300
      3 O3          3.4880   -0.2820    1.1290 o         1 MX1     -0.814800
      4 C4          3.0950    0.5740   -1.0750 ce        1 MX1      0.458600
      5 N1          2.2360   -0.1190   -1.7430 n2        1 MX1     -0.658900
      6 C5          4.2360    1.2760   -1.7170 ce        1 MX1     -0.238800
      7 C8          4.9950    2.1640   -1.0730 c2        1 MX1     -0.184000
      8 C6          4.4630    0.9030   -3.1470 c3        1 MX1      0.164600
      9 O2          3.2510    0.6510   -3.8470 os        1 MX1     -0.407600
     10 C3          2.3920   -0.2920   -3.1730 c3        1 MX1      0.303300
     11 C2          1.0350   -0.1920   -3.9830 c3        1 MX1      0.241000
     12 C1          1.2810   -0.8380   -5.4120 c         1 MX1      0.914600
     13 O32         1.8600   -1.9530   -5.4100 o         1 MX1     -0.788800
     14 O31         0.8610   -0.2240   -6.4200 o         1 MX1     -0.788800
     15 O5          0.6840    1.1690   -3.9530 os        1 MX1     -0.387600
     16 C9         -0.2730    1.6250   -4.9050 c3        1 MX1      0.115700
     17 N2         -0.0810   -0.9420   -3.2390 n4        1 MX1     -0.704800
     18 C10        -0.5800   -2.2020   -3.8750 c         1 MX1      0.607100
     19 O6         -0.2520   -3.2450   -3.3120 o         1 MX1     -0.505100
     20 C11        -1.5240   -2.0420   -5.0410 c3        1 MX1     -0.230400
     21 C12        -2.8730   -1.4320   -4.5300 c         1 MX1      0.928600
     22 O8         -3.9570   -1.8030   -5.0360 o         1 MX1     -0.814800
     23 O7         -2.7770   -0.5310   -3.6420 o         1 MX1     -0.814800
     24 C13        -1.6130   -3.3170   -5.8100 ca        1 MX1     -0.076300
     25 C14        -0.5700   -3.6270   -6.7010 ca        1 MX1     -0.062500
     26 C18        -2.6910   -4.1970   -5.6840 ca        1 MX1     -0.062500
     27 C17        -2.7430   -5.3660   -6.4440 ca        1 MX1     -0.205500
     28 C16        -1.7020   -5.6550   -7.3320 ca        1 MX1      0.096100
     29 O9         -1.6980   -6.7950   -8.1170 oh        1 MX1     -0.522100
     30 C15        -0.6070   -4.7890   -7.4650 ca        1 MX1     -0.205500
     31 H81         4.8080    2.4190   -0.0180 ha        1 MX1      0.115000
     32 H82         5.8260    2.6870   -1.5620 ha        1 MX1      0.115000
     33 H61         4.9370    1.7380   -3.7290 h1        1 MX1      0.037200
     34 H62         5.1170   -0.0110   -3.2010 h1        1 MX1      0.037200
     35 H3          2.8000   -1.3340   -3.3670 h2        1 MX1      0.095700
     36 H91        -1.0860    0.8790   -5.0780 h1        1 MX1      0.045367
     37 H92        -0.6870    2.5530   -4.4330 h1        1 MX1      0.045367
     38 H93         0.2470    1.8600   -5.8650 h1        1 MX1      0.045367
     39 HN2         0.2410   -1.1660   -2.2910 hn        1 MX1      0.473300
     40 H11        -1.1090   -1.2490   -5.7400 hc        1 MX1      0.131700
     41 H14         0.2990   -2.9410   -6.7740 ha        1 MX1      0.180000
     42 H18        -3.5200   -3.9500   -4.9990 ha        1 MX1      0.180000
     43 H17        -3.5960   -6.0500   -6.3460 ha        1 MX1      0.122000
     44 HO9        -2.4980   -7.2930   -7.9000 ho        1 MX1      0.399000
     45 H15         0.2070   -5.0360   -8.1580 ha        1 MX1      0.122000
     46 H22        -0.9020   -0.2990   -3.1640 hn        1 MX1      0.473300
@<TRIPOS>BOND
     1    1    2 1   
     2    2    3 1   
     3    2    4 1   
     4    4    5 2   
     5    4    6 1   
     6    5   10 1   
     7    6    7 2   
     8    6    8 1   
     9    7   31 1   
    10    7   32 1   
    11    8    9 1   
    12    8   33 1   
    13    8   34 1   
    14    9   10 1   
    15   10   11 1   
    16   10   35 1   
    17   11   12 1   
    18   11   15 1   
    19   11   17 1   
    20   12   13 1   
    21   12   14 1   
    22   15   16 1   
    23   16   36 1   
    24   16   37 1   
    25   16   38 1   
    26   17   18 1   
    27   17   39 1   
    28   17   46 1   
    29   18   19 2   
    30   18   20 1   
    31   20   21 1   
    32   20   24 1   
    33   20   40 1   
    34   21   22 1   
    35   21   23 1   
    36   24   25 ar  
    37   24   26 ar  
    38   25   30 ar  
    39   25   41 1   
    40   26   27 ar  
    41   26   42 1   
    42   27   28 ar  
    43   27   43 1   
    44   28   29 1   
    45   28   30 ar  
    46   29   44 1   
    47   30   45 1   
@<TRIPOS>SUBSTRUCTURE
     1 MX1         1 TEMP              0 ****  ****    0 ROOT
