@<TRIPOS>MOLECULE
MX1
   45    42     1     0     0
SMALL
bcc


@<TRIPOS>ATOM
      1 O4         -3.3000    3.9760    2.9790 o         1 MX1     -0.578500
      2 C7         -2.0660    3.9620    3.1780 c2        1 MX1      0.382000
      3 O3         -1.6180    4.0000    4.3550 o         1 MX1     -0.578500
      4 C4         -1.1030    3.8240    1.9970 c2        1 MX1     -0.036000
      5 N1         -0.7550    2.4790    1.4780 n1        1 MX1     -0.151000
      6 C5         -0.8160    5.0320    1.1010 c2        1 MX1     -0.109000
      7 C8         -1.1120    6.3160    1.5350 c1        1 MX1     -0.234000
      8 C6         -0.2100    4.7950   -0.2330 c3        1 MX1      0.006000
      9 O2         -0.4720    3.5080   -0.7090 os        1 MX1     -0.244000
     10 C3         -0.1450    2.3920    0.1170 c2        1 MX1      0.064000
     11 C2         -0.5040    1.0590   -0.5730 c3        1 MX1      0.159000
     12 C1         -1.9770    0.8510   -0.5200 c2        1 MX1      0.342000
     13 O32        -2.7640    1.8550   -0.5050 o         1 MX1     -0.562000
     14 O31        -2.4680   -0.3820   -0.4250 o         1 MX1     -0.562000
     15 O5         -0.1000    1.1040   -1.8820 os        1 MX1     -0.281000
     16 C9         -1.1940    1.1600   -2.8260 c3        1 MX1     -0.072000
     17 N2          0.1620   -0.0410    0.1110 n         1 MX1     -0.337000
     18 C10         0.7520   -1.1460   -0.6620 c2        1 MX1      0.335000
     19 O6          0.2600   -1.4670   -1.7600 o         1 MX1     -0.454000
     20 C11         1.8170   -2.0220   -0.0250 c3        1 MX1     -0.167000
     21 C12         3.0760   -1.9510   -0.8410 c2        1 MX1      0.344000
     22 O8          4.1940   -1.7090   -0.2690 o         1 MX1     -0.582000
     23 O7          3.0160   -2.0140   -2.0830 o         1 MX1     -0.582000
     24 C13         1.3190   -3.4810    0.0330 c2        1 MX1     -0.043000
     25 C14         1.1000   -4.1860   -1.1380 c2        1 MX1     -0.110000
     26 C18         1.1630   -4.1070    1.2550 c1        1 MX1     -0.079000
     27 C17         0.7920   -5.4320    1.3060 c1        1 MX1     -0.200000
     28 C16         0.5740   -6.1380    0.1290 c1        1 MX1      0.019000
     29 O9          0.2110   -7.4930    0.1780 o         1 MX1     -0.299000
     30 C15         0.7280   -5.5140   -1.0850 c2        1 MX1     -0.187000
     31 H81        -1.5230    6.4590    2.4530 DU        1 MX1      0.142000
     32 H82        -0.9190    7.1110    0.9370 ha        1 MX1      0.061000
     33 H61        -0.4190    5.4480   -1.0160 h1        1 MX1      0.056000
     34 H62         0.7600    4.9660   -0.1120 h1        1 MX1      0.056000
     35 H3          0.8060    2.3040    0.1890 h4        1 MX1      0.115000
     36 H91        -0.8490    1.3850   -3.7150 h1        1 MX1      0.063667
     37 H92        -1.6470    0.2720   -2.8610 h1        1 MX1      0.063667
     38 H93        -1.8530    1.8630   -2.5340 h1        1 MX1      0.063667
     39 HN2         0.2070   -0.0510    1.0990 hn        1 MX1      0.259000
     40 H11         1.9890   -1.7230    0.8300 hc        1 MX1      0.111000
     41 H14         1.2080   -3.7380   -2.0170 ha        1 MX1      0.170000
     42 H18         1.3170   -3.6130    2.0770 ha        1 MX1      0.192000
     43 H17         0.7510   -5.8750    2.1300 ha        1 MX1      0.137000
     44 HO9         0.9750   -8.0140    0.2280 ho        1 MX1      0.202000
     45 H15         0.6400   -6.0260   -1.9060 ha        1 MX1      0.107000
@<TRIPOS>BOND
     1    1    2 1   
     2    2    3 1   
     3    2    4 1   
     4    4    5 1   
     5    4    6 1   
     6    6    7 1   
     7    6    8 1   
     8    7   32 1   
     9    8    9 1   
    10    8   33 1   
    11    8   34 1   
    12    9   10 1   
    13   10   11 1   
    14   10   35 1   
    15   11   12 1   
    16   11   15 1   
    17   11   17 1   
    18   12   13 1   
    19   12   14 1   
    20   15   16 1   
    21   16   36 1   
    22   16   37 1   
    23   16   38 1   
    24   17   18 1   
    25   17   39 1   
    26   18   19 1   
    27   18   20 1   
    28   20   21 1   
    29   20   24 1   
    30   20   40 1   
    31   21   22 1   
    32   21   23 1   
    33   24   25 1   
    34   24   26 1   
    35   25   30 1   
    36   25   41 1   
    37   26   42 1   
    38   27   28 1   
    39   27   43 1   
    40   28   30 1   
    41   29   44 1   
    42   30   45 1   
@<TRIPOS>SUBSTRUCTURE
     1 MX1         1 TEMP              0 ****  ****    0 ROOT
