@<TRIPOS>MOLECULE
MX1
   46    47     1     0     0
SMALL
bcc


@<TRIPOS>ATOM
      1 O4          2.0490    0.9400    1.1480 o         1 MX1     -0.815800
      2 C7          2.4750   -0.0430    0.4870 c         1 MX1      0.842300
      3 O3          2.7680   -1.1720    0.9560 o         1 MX1     -0.815800
      4 C4          2.7370    0.1790   -1.0250 ce        1 MX1      0.454600
      5 N1          1.9190   -0.2320   -1.9350 n2        1 MX1     -0.645900
      6 C5          4.0180    0.8610   -1.3410 ce        1 MX1     -0.236800
      7 C8          4.7530    1.4860   -0.4200 c2        1 MX1     -0.185000
      8 C6          4.4140    0.7850   -2.7800 c3        1 MX1      0.164600
      9 O2          3.3010    0.8550   -3.6620 os        1 MX1     -0.404600
     10 C3          2.2540   -0.0820   -3.3370 c3        1 MX1      0.307300
     11 C2          1.0380    0.3930   -4.2240 c3        1 MX1      0.227000
     12 C1          1.4440    0.2790   -5.7580 c         1 MX1      0.925600
     13 O32         1.4010   -0.8840   -6.2380 o         1 MX1     -0.782300
     14 O31         1.7590    1.3280   -6.3570 o         1 MX1     -0.782300
     15 O5          0.6810    1.6790   -3.7740 os        1 MX1     -0.387600
     16 C9          0.0190    2.5180   -4.7150 c3        1 MX1      0.117700
     17 N2         -0.1810   -0.4930   -3.9360 ny        1 MX1     -0.685800
     18 C10        -0.1560   -1.8460   -4.5880 c         1 MX1      0.637100
     19 O6          0.6620   -2.6440   -4.1370 o         1 MX1     -0.513100
     20 C11        -1.1640   -2.0900   -5.6830 c3        1 MX1     -0.239400
     21 C12        -2.5510   -1.3800   -5.5000 c         1 MX1      0.926600
     22 O8         -3.2930   -1.3350   -6.5110 o         1 MX1     -0.816800
     23 O7         -2.8310   -0.8770   -4.3740 o         1 MX1     -0.816800
     24 C13        -1.4070   -3.5370   -5.9580 ca        1 MX1     -0.044300
     25 C14        -1.8970   -3.8740   -7.2340 ca        1 MX1     -0.077500
     26 C18        -1.2200   -4.5530   -5.0170 ca        1 MX1     -0.077500
     27 C17        -1.4820   -5.8830   -5.3420 ca        1 MX1     -0.193000
     28 C16        -1.9490   -6.2000   -6.6220 ca        1 MX1      0.087100
     29 O9         -2.2220   -7.5000   -7.0100 oh        1 MX1     -0.522100
     30 C15        -2.1660   -5.1940   -7.5750 ca        1 MX1     -0.193000
     31 H81         5.6910    1.9980   -0.6680 ha        1 MX1      0.114500
     32 H82         4.4400    1.5230    0.6350 ha        1 MX1      0.114500
     33 H61         4.9740   -0.1730   -2.9680 h1        1 MX1      0.037200
     34 H62         5.0510    1.6580   -3.0890 h1        1 MX1      0.037200
     35 H3          2.5580   -1.1000   -3.7400 h2        1 MX1      0.088700
     36 H91         0.7890    3.1060   -5.2730 h1        1 MX1      0.040700
     37 H92        -0.6210    3.1850   -4.0830 h1        1 MX1      0.040700
     38 H93        -0.6050    1.9380   -5.4360 h1        1 MX1      0.040700
     39 HN2        -0.2570   -0.6320   -2.9220 hn        1 MX1      0.466300
     40 H11        -0.6950   -1.6170   -6.6040 hc        1 MX1      0.143700
     41 H14        -2.1020   -3.0610   -7.9510 ha        1 MX1      0.155500
     42 H18        -0.8530   -4.3140   -4.0060 ha        1 MX1      0.155500
     43 H17        -1.3220   -6.6740   -4.5970 ha        1 MX1      0.122500
     44 HO9        -2.0230   -8.0700   -6.2550 ho        1 MX1      0.401000
     45 H15        -2.5480   -5.4570   -8.5690 ha        1 MX1      0.122500
     46 H22        -1.0290    0.0130   -4.2400 hn        1 MX1      0.466300
@<TRIPOS>BOND
     1    1    2 1   
     2    2    3 1   
     3    2    4 1   
     4    4    5 2   
     5    4    6 1   
     6    5   10 1   
     7    6    7 2   
     8    6    8 1   
     9    7   31 1   
    10    7   32 1   
    11    8    9 1   
    12    8   33 1   
    13    8   34 1   
    14    9   10 1   
    15   10   11 1   
    16   10   35 1   
    17   11   12 1   
    18   11   15 1   
    19   11   17 1   
    20   12   13 1   
    21   12   14 1   
    22   15   16 1   
    23   16   36 1   
    24   16   37 1   
    25   16   38 1   
    26   17   18 1   
    27   17   39 1   
    28   17   46 1   
    29   18   19 2   
    30   18   20 1   
    31   20   21 1   
    32   20   24 1   
    33   20   40 1   
    34   21   22 1   
    35   21   23 1   
    36   24   25 ar  
    37   24   26 ar  
    38   25   30 ar  
    39   25   41 1   
    40   26   27 ar  
    41   26   42 1   
    42   27   28 ar  
    43   27   43 1   
    44   28   29 1   
    45   28   30 ar  
    46   29   44 1   
    47   30   45 1   
@<TRIPOS>SUBSTRUCTURE
     1 MX1         1 TEMP              0 ****  ****    0 ROOT
