@<TRIPOS>MOLECULE
MX3
   42    42     1     0     0
SMALL
bcc


@<TRIPOS>ATOM
      1 C1         -0.3170    0.5220   -0.2370 ca        1 MX3     -0.199300
      2 C2          1.0490    0.8350   -0.2770 ca        1 MX3     -0.110500
      3 N20        -5.6980    5.0330    0.2830 n3        1 MX3     -0.666600
      4 C3          1.6810    1.3550    0.8510 ca        1 MX3     -0.117500
      5 C4          0.9570    1.5560    2.0280 ca        1 MX3     -0.069000
      6 C5         -0.4040    1.2400    2.0730 ca        1 MX3     -0.117500
      7 C6         -1.0410    0.7250    0.9470 ca        1 MX3     -0.110500
      8 C7         -0.9600   -0.1640   -1.3890 c3        1 MX3      0.180100
      9 C9         -2.3100    2.9170   -1.4120 c3        1 MX3     -0.158400
     10 C10        -3.6210    3.5800   -1.0070 c3        1 MX3     -0.147400
     11 C11        -3.3600    4.9590   -0.4930 c         1 MX3      0.587100
     12 C15        -2.5920    1.6000   -2.0780 c         1 MX3      0.544100
     13 C12        -4.7560    6.9910   -0.9410 c3        1 MX3      0.006800
     14 C13        -5.3590    6.7190   -2.2960 c         1 MX3      0.610100
     15 C14        -0.3220    1.5430   -3.0890 c3        1 MX3      0.077100
     16 N2         -4.5740    5.8110   -0.0130 n4        1 MX3     -0.374000
     17 N3         -1.4280    0.7470   -2.5090 n4        1 MX3     -0.589200
     18 O4         -3.7040    1.1410   -2.3120 o         1 MX3     -0.416100
     19 O6         -2.2940    5.5390   -0.3800 o         1 MX3     -0.405100
     20 O7         -5.6320    5.4110   -2.5750 oh        1 MX3     -0.664100
     21 O8         -5.6070    7.5670   -3.1410 o         1 MX3     -0.406000
     22 H2          1.6370    0.6400   -1.1890 ha        1 MX3      0.140000
     23 H201       -6.0930    4.6410   -0.5680 hn        1 MX3      0.427300
     24 H202       -6.0680    5.3400   -3.4480 ho        1 MX3      0.502000
     25 H3          2.7590    1.5860    0.8200 ha        1 MX3      0.168500
     26 H4          1.4640    1.9450    2.9280 ha        1 MX3      0.173000
     27 H5         -0.9670    1.3710    3.0120 ha        1 MX3      0.168500
     28 H6         -2.1010    0.4340    1.0060 ha        1 MX3      0.140000
     29 H7C1       -1.8710   -0.7430   -1.0510 hx        1 MX3      0.120200
     30 H7C2       -0.2260   -0.8830   -1.8620 hx        1 MX3      0.120200
     31 H9C1       -1.6610    2.7370   -0.5040 hc        1 MX3      0.128200
     32 H9C2       -1.7350    3.5810   -2.1150 hc        1 MX3      0.128200
     33 H101       -4.3260    3.6380   -1.8880 hc        1 MX3      0.141200
     34 H102       -4.1290    2.9620   -0.2110 hc        1 MX3      0.141200
     35 H121       -3.7380    7.4670   -1.1000 hx        1 MX3      0.160700
     36 H122       -5.4200    7.7550   -0.4280 hx        1 MX3      0.160700
     37 H141       -0.7150    2.1880   -3.9200 hx        1 MX3      0.111367
     38 H142        0.4550    0.8410   -3.5020 hx        1 MX3      0.111367
     39 H143        0.1510    2.1780   -2.2920 hx        1 MX3      0.111367
     40 H203       -6.4030    5.6000    0.7470 hn        1 MX3      0.427300
     41 H21        -4.2630    6.2230    0.8960 hn        1 MX3      0.491800
     42 H31        -1.7880    0.1150   -3.2490 hn        1 MX3      0.473800
@<TRIPOS>BOND
     1    1    2 ar  
     2    1    7 ar  
     3    1    8 1   
     4    2    4 ar  
     5    2   22 1   
     6    3   16 1   
     7    3   23 1   
     8    3   40 1   
     9    4    5 ar  
    10    4   25 1   
    11    5    6 ar  
    12    5   26 1   
    13    6    7 ar  
    14    6   27 1   
    15    7   28 1   
    16    8   17 1   
    17    8   29 1   
    18    8   30 1   
    19    9   10 1   
    20    9   12 1   
    21    9   31 1   
    22    9   32 1   
    23   10   11 1   
    24   10   33 1   
    25   10   34 1   
    26   11   16 1   
    27   11   19 2   
    28   12   17 1   
    29   12   18 2   
    30   13   14 1   
    31   13   16 1   
    32   13   35 1   
    33   13   36 1   
    34   14   20 1   
    35   14   21 2   
    36   15   17 1   
    37   15   37 1   
    38   15   38 1   
    39   15   39 1   
    40   16   41 1   
    41   17   42 1   
    42   20   24 1   
@<TRIPOS>SUBSTRUCTURE
     1 MX3         1 TEMP              0 ****  ****    0 ROOT
