@<TRIPOS>MOLECULE
MX3
   42    42     1     0     0
SMALL
bcc


@<TRIPOS>ATOM
      1 C1         -0.3100    0.5230   -0.2590 ca        1 MX3     -0.199300
      2 C2          1.0540    0.8420   -0.2830 ca        1 MX3     -0.110500
      3 N20        -5.7180    4.9990    0.2850 n8        1 MX3     -0.666600
      4 C3          1.6750    1.3490    0.8580 ca        1 MX3     -0.117500
      5 C4          0.9410    1.5280    2.0320 ca        1 MX3     -0.069000
      6 C5         -0.4180    1.2060    2.0620 ca        1 MX3     -0.117500
      7 C6         -1.0440    0.7050    0.9230 ca        1 MX3     -0.110500
      8 C7         -0.9410   -0.1490   -1.4250 c3        1 MX3      0.180100
      9 C9         -2.3060    2.9250   -1.4130 c3        1 MX3     -0.158400
     10 C10        -3.6230    3.5760   -1.0090 c3        1 MX3     -0.147400
     11 C11        -3.3730    4.9480   -0.4710 c         1 MX3      0.587100
     12 C15        -2.5760    1.6160   -2.1010 c         1 MX3      0.544100
     13 C12        -4.7740    6.9800   -0.9000 c3        1 MX3      0.006800
     14 C13        -5.3630    6.7260   -2.2650 c         1 MX3      0.610100
     15 C14        -0.2980    1.5860   -3.0940 c3        1 MX3      0.077100
     16 N2         -4.5960    5.7870    0.0110 nx        1 MX3     -0.374000
     17 N3         -1.4050    0.7760   -2.5350 nx        1 MX3     -0.589200
     18 O4         -3.6830    1.1550   -2.3500 o         1 MX3     -0.416100
     19 O6         -2.3110    5.5300   -0.3390 o         1 MX3     -0.405100
     20 O7         -5.6280    5.4220   -2.5670 oh        1 MX3     -0.664100
     21 O8         -5.6070    7.5860   -3.0990 o         1 MX3     -0.406000
     22 H2          1.6510    0.6640   -1.1920 ha        1 MX3      0.140000
     23 H201       -6.1040    4.6190   -0.5760 hn        1 MX3      0.427300
     24 H202       -6.0560    5.3630   -3.4450 ho        1 MX3      0.502000
     25 H3          2.7520    1.5850    0.8390 ha        1 MX3      0.168500
     26 H4          1.4390    1.9070    2.9410 ha        1 MX3      0.173000
     27 H5         -0.9890    1.3190    2.9980 ha        1 MX3      0.168500
     28 H6         -2.1030    0.4070    0.9700 ha        1 MX3      0.140000
     29 H7C1       -1.8510   -0.7370   -1.1030 hx        1 MX3      0.120200
     30 H7C2       -0.1990   -0.8580   -1.9030 hx        1 MX3      0.120200
     31 H9C1       -1.6630    2.7350   -0.5020 hc        1 MX3      0.128200
     32 H9C2       -1.7280    3.6020   -2.1020 hc        1 MX3      0.128200
     33 H101       -4.3210    3.6440   -1.8960 hc        1 MX3      0.141200
     34 H102       -4.1360    2.9430   -0.2280 hc        1 MX3      0.141200
     35 H121       -3.7570    7.4630   -1.0420 hx        1 MX3      0.160700
     36 H122       -5.4470    7.7330   -0.3810 hx        1 MX3      0.160700
     37 H141       -0.6880    2.2410   -3.9180 hx        1 MX3      0.111367
     38 H142        0.4860    0.8930   -3.5110 hx        1 MX3      0.111367
     39 H143        0.1670    2.2110   -2.2840 hx        1 MX3      0.111367
     40 H203       -6.4300    5.5560    0.7510 hn        1 MX3      0.427300
     41 H21        -4.2940    6.1860    0.9290 hn        1 MX3      0.491800
     42 H31        -1.7550    0.1530   -3.2870 hn        1 MX3      0.473800
@<TRIPOS>BOND
     1    1    2 ar  
     2    1    7 ar  
     3    1    8 1   
     4    2    4 ar  
     5    2   22 1   
     6    3   16 1   
     7    3   23 1   
     8    3   40 1   
     9    4    5 ar  
    10    4   25 1   
    11    5    6 ar  
    12    5   26 1   
    13    6    7 ar  
    14    6   27 1   
    15    7   28 1   
    16    8   17 1   
    17    8   29 1   
    18    8   30 1   
    19    9   10 1   
    20    9   12 1   
    21    9   31 1   
    22    9   32 1   
    23   10   11 1   
    24   10   33 1   
    25   10   34 1   
    26   11   16 1   
    27   11   19 2   
    28   12   17 1   
    29   12   18 2   
    30   13   14 1   
    31   13   16 1   
    32   13   35 1   
    33   13   36 1   
    34   14   20 1   
    35   14   21 2   
    36   15   17 1   
    37   15   37 1   
    38   15   38 1   
    39   15   39 1   
    40   16   41 1   
    41   17   42 1   
    42   20   24 1   
@<TRIPOS>SUBSTRUCTURE
     1 MX3         1 TEMP              0 ****  ****    0 ROOT
