@<TRIPOS>MOLECULE
MX3
   42    40     1     0     0
SMALL
bcc


@<TRIPOS>ATOM
      1 C1         -0.0950    0.4720    0.0780 ca        1 MX3     -0.195300
      2 C2          1.2790    0.7460    0.1120 ca        1 MX3     -0.110000
      3 N20        -6.6450    4.8740   -1.6380 n3        1 MX3     -1.024400
      4 C3          1.8270    1.4390    1.1900 ca        1 MX3     -0.117000
      5 C4          1.0100    1.8530    2.2430 ca        1 MX3     -0.070000
      6 C5         -0.3590    1.5760    2.2160 ca        1 MX3     -0.117000
      7 C6         -0.9120    0.8880    1.1380 ca        1 MX3     -0.110000
      8 C7         -0.6590   -0.3810   -1.0020 c3        1 MX3      0.179100
      9 C9         -1.9240    2.6740   -1.6450 c3        1 MX3     -0.154400
     10 C10        -3.2340    3.4430   -1.5620 c3        1 MX3     -0.148400
     11 C11        -2.9660    4.8780   -1.1870 c         1 MX3      0.636100
     12 C15        -2.1800    1.2690   -2.1050 c         1 MX3      0.546100
     13 C12        -4.0300    7.0100   -0.7970 c2        1 MX3      0.385400
     14 C13        -7.9750    8.7150   -1.0320 c1        1 MX3      0.911000
     15 C14         0.1710    1.0250   -2.8830 c3        1 MX3      0.078100
     16 N2         -4.1260    5.7530   -1.1110 n         1 MX3     -0.384500
     17 N3         -1.0020    0.3440   -2.2890 n4        1 MX3     -0.590200
     18 O4         -3.2760    0.7790   -2.3490 o         1 MX3     -0.424100
     19 O6         -1.8520    5.3410   -0.9480 o         1 MX3     -0.456100
     20 O7         -7.1130    7.8800   -1.0770 o         1 MX3     -0.453000
     21 O8         -8.8230    9.5340   -0.9880 o         1 MX3     -0.453000
     22 H2          1.9370    0.3890   -0.6970 ha        1 MX3      0.138500
     23 H201       -7.2040    5.7070   -1.5770 hn        1 MX3      0.388467
     24 H202       -6.9750    4.2120   -0.9630 hn        1 MX3      0.388467
     25 H3          2.9110    1.6420    1.2190 ha        1 MX3      0.167000
     26 H4          1.4490    2.3840    3.1060 ha        1 MX3      0.171000
     27 H5         -0.9980    1.8790    3.0610 ha        1 MX3      0.167000
     28 H6         -1.9830    0.6340    1.1460 ha        1 MX3      0.138500
     29 H7C1       -1.6120   -0.8810   -0.6580 hx        1 MX3      0.118200
     30 H7C2        0.0900   -1.1800   -1.2860 hx        1 MX3      0.118200
     31 H9C1       -1.2200    3.1930   -2.3550 hc        1 MX3      0.129200
     32 H9C2       -1.4180    2.6430   -0.6350 hc        1 MX3      0.129200
     33 H101       -3.7710    3.4040   -2.5510 hc        1 MX3      0.114200
     34 H102       -3.9100    2.9740   -0.7940 hc        1 MX3      0.114200
     35 H121       -4.9500    7.6420   -0.7560 h4        1 MX3      0.084800
     36 H122       -3.0470    7.4850   -0.5660 h4        1 MX3      0.084800
     37 H141        0.9610    0.2560   -3.1120 hx        1 MX3      0.111033
     38 H142       -0.1310    1.5400   -3.8340 hx        1 MX3      0.111033
     39 H143        0.5920    1.7690   -2.1530 hx        1 MX3      0.111033
     40 H203       -6.7440    4.4840   -2.5550 hn        1 MX3      0.388467
     41 H21        -5.1090    5.3110   -1.3380 hn        1 MX3      0.429500
     42 H31        -1.3110   -0.3930   -2.9500 hn        1 MX3      0.470800
@<TRIPOS>BOND
     1    1    2 ar  
     2    1    7 ar  
     3    1    8 1   
     4    2    4 ar  
     5    2   22 1   
     6    3   23 1   
     7    3   24 1   
     8    3   40 1   
     9    4    5 ar  
    10    4   25 1   
    11    5    6 ar  
    12    5   26 1   
    13    6    7 ar  
    14    6   27 1   
    15    7   28 1   
    16    8   17 1   
    17    8   29 1   
    18    8   30 1   
    19    9   10 1   
    20    9   12 1   
    21    9   31 1   
    22    9   32 1   
    23   10   11 1   
    24   10   33 1   
    25   10   34 1   
    26   11   16 1   
    27   11   19 2   
    28   12   17 1   
    29   12   18 2   
    30   13   16 2   
    31   13   35 1   
    32   13   36 1   
    33   14   20 2   
    34   14   21 2   
    35   15   17 1   
    36   15   37 1   
    37   15   38 1   
    38   15   39 1   
    39   16   41 1   
    40   17   42 1   
@<TRIPOS>SUBSTRUCTURE
     1 MX3         1 TEMP              0 ****  ****    0 ROOT
