@<TRIPOS>MOLECULE
MX3
   39    39     1     0     0
SMALL
bcc


@<TRIPOS>ATOM
      1 C1         -4.3520    0.2940    0.3700 ca        1 MX3     -0.107300
      2 C2         -5.4420    1.0740   -0.0230 ca        1 MX3     -0.116500
      3 N20         3.9210   -1.8830    0.8650 n3        1 MX3     -0.668800
      4 C3         -6.5180    0.4870   -0.6880 ca        1 MX3     -0.137500
      5 C4         -6.5050   -0.8790   -0.9700 ca        1 MX3     -0.133000
      6 C5         -5.4150   -1.6590   -0.5840 ca        1 MX3     -0.137500
      7 C6         -4.3400   -1.0760    0.0840 ca        1 MX3     -0.116500
      8 C7         -3.2000    0.9060    1.1200 c3        1 MX3      0.139300
      9 C9          0.2770    0.1930   -0.3270 c3        1 MX3     -0.135400
     10 C10         1.3820   -0.6990    0.1960 c3        1 MX3     -0.166400
     11 C11         2.5770   -0.6560   -0.7450 c         1 MX3      0.613100
     12 C15        -0.9980    0.0170    0.4670 c         1 MX3      0.666100
     13 C12         4.9970   -0.5460   -0.7900 c3        1 MX3     -0.069000
     14 C13         5.4330    0.6030    0.1610 c         1 MX3      0.899600
     15 C14        -1.8390    2.0900   -0.5630 c3        1 MX3      0.083300
     16 N2          3.7950   -1.3010   -0.3740 n         1 MX3     -0.256200
     17 N3         -1.9720    1.0100    0.3710 n         1 MX3     -0.484800
     18 O4         -1.2050   -0.9770    1.1950 o         1 MX3     -0.629100
     19 O6          2.4420   -0.1720   -1.8880 o         1 MX3     -0.619100
     20 O7          4.7220    0.8630    1.1770 o         1 MX3     -0.842800
     21 O8          6.4890    1.2140   -0.1490 o         1 MX3     -0.842800
     22 H2         -5.4530    2.1520    0.1940 ha        1 MX3      0.143500
     23 H201        4.2040   -1.1930    1.5610 hn        1 MX3      0.349800
     24 H202        3.0270   -2.2590    1.1520 hn        1 MX3      0.349800
     25 H3         -7.3760    1.1030   -0.9940 ha        1 MX3      0.126500
     26 H4         -7.3530   -1.3400   -1.4970 ha        1 MX3      0.123000
     27 H5         -5.4010   -2.7360   -0.8080 ha        1 MX3      0.126500
     28 H6         -3.4700   -1.6810    0.3940 ha        1 MX3      0.143500
     29 H7C1       -3.0020    0.2730    2.0350 h1        1 MX3      0.063200
     30 H7C2       -3.4900    1.9410    1.4640 h1        1 MX3      0.063200
     31 H9C1        0.0630   -0.0590   -1.4020 hc        1 MX3      0.084700
     32 H9C2        0.6250    1.2600   -0.2960 hc        1 MX3      0.084700
     33 H101        1.6920   -0.3400    1.2140 hc        1 MX3      0.076700
     34 H102        1.0090   -1.7520    0.2930 hc        1 MX3      0.076700
     35 H121        5.8440   -1.2790   -0.8740 h1        1 MX3      0.063700
     36 H122        4.7930   -0.1130   -1.8050 h1        1 MX3      0.063700
     37 H141       -1.1230    2.8610   -0.1650 h1        1 MX3      0.039367
     38 H142       -1.4510    1.7200   -1.5500 h1        1 MX3      0.039367
     39 H143       -2.8350    2.5770   -0.7330 h1        1 MX3      0.039367
@<TRIPOS>BOND
     1    1    2 ar  
     2    1    7 ar  
     3    1    8 1   
     4    2    4 ar  
     5    2   22 1   
     6    3   16 1   
     7    3   23 1   
     8    3   24 1   
     9    4    5 ar  
    10    4   25 1   
    11    5    6 ar  
    12    5   26 1   
    13    6    7 ar  
    14    6   27 1   
    15    7   28 1   
    16    8   17 1   
    17    8   29 1   
    18    8   30 1   
    19    9   10 1   
    20    9   12 1   
    21    9   31 1   
    22    9   32 1   
    23   10   11 1   
    24   10   33 1   
    25   10   34 1   
    26   11   16 1   
    27   11   19 2   
    28   12   17 1   
    29   12   18 2   
    30   13   14 1   
    31   13   16 1   
    32   13   35 1   
    33   13   36 1   
    34   14   20 1   
    35   14   21 1   
    36   15   17 1   
    37   15   37 1   
    38   15   38 1   
    39   15   39 1   
@<TRIPOS>SUBSTRUCTURE
     1 MX3         1 TEMP              0 ****  ****    0 ROOT
