@<TRIPOS>MOLECULE
MX3
   39    36     1     0     0
SMALL
bcc


@<TRIPOS>ATOM
      1 C1          2.1570   -3.1350   -0.4830 c1        1 MX3     -0.078100
      2 C2          3.5250   -3.3610   -0.3740 c1        1 MX3     -0.075250
      3 N20        -4.2910    2.5780   -0.4370 n3        1 MX3     -0.640800
      4 C3          3.9960   -4.6070    0.0660 c1        1 MX3     -0.075250
      5 C4          3.0950   -5.6160    0.3930 c1        1 MX3     -0.075250
      6 C5          1.7190   -5.3880    0.2830 c1        1 MX3     -0.075250
      7 C6          1.2510   -4.1520   -0.1530 c1        1 MX3     -0.050500
      8 C7          1.6420   -1.8100   -1.0750 c3        1 MX3      0.100100
      9 C9         -0.1350    1.1780    0.2790 c3        1 MX3     -0.140400
     10 C10        -1.6430    1.4390    0.2830 c3        1 MX3     -0.127400
     11 C11        -1.9030    2.9200    0.0180 c         1 MX3      0.660100
     12 C15         0.1270   -0.3310    0.2890 c         1 MX3      0.658100
     13 C12        -3.5520    4.7190    0.5000 c3        1 MX3     -0.055000
     14 C13        -3.3960    5.7550   -0.6000 c         1 MX3      0.906600
     15 C14         2.6150   -0.2610    0.6440 c3        1 MX3      0.080300
     16 N2         -3.2530    3.4170   -0.0230 n         1 MX3     -0.337200
     17 N3          1.4600   -0.8400   -0.0090 n         1 MX3     -0.478800
     18 O4         -0.7890   -1.1060    0.4960 o         1 MX3     -0.615100
     19 O6         -0.9690    3.6910   -0.0850 o         1 MX3     -0.667100
     20 O7         -4.2180    5.7890   -1.5540 o         1 MX3     -0.834300
     21 O8         -2.4640    6.6070   -0.5380 o         1 MX3     -0.834300
     22 H2          4.1470   -2.6910   -0.6740 ha        1 MX3      0.068250
     23 H201       -4.7120    2.9470   -1.1640 hn        1 MX3      0.362800
     24 H202       -4.8960    2.4770    0.2500 hn        1 MX3      0.362800
     25 H3          4.9500   -4.7660    0.1430 ha        1 MX3      0.068250
     26 H4          3.4210   -6.4780    0.6970 ha        1 MX3      0.068250
     27 H5          1.0910   -6.0700    0.5710 ha        1 MX3      0.068250
     28 H6          0.2930   -3.9940   -0.2300 ha        1 MX3      0.105500
     29 H7C1        2.2880   -1.4680   -1.7190 h1        1 MX3      0.063700
     30 H7C2        0.7830   -1.9660   -1.5250 h1        1 MX3      0.063700
     31 H9C1        0.2670    1.5830    1.0710 hc        1 MX3      0.079700
     32 H9C2        0.2620    1.5710   -0.5250 hc        1 MX3      0.079700
     33 H101       -2.0150    1.1940    1.1540 hc        1 MX3      0.079700
     34 H102       -2.0680    0.9050   -0.4130 hc        1 MX3      0.079700
     35 H121       -4.4780    4.7340    0.8350 h1        1 MX3      0.044700
     36 H122       -2.9350    4.9270    1.2360 h1        1 MX3      0.044700
     37 H141        2.7290   -0.6680    1.5270 h1        1 MX3      0.038367
     38 H142        2.4820    0.7070    0.7450 h1        1 MX3      0.038367
     39 H143        3.4160   -0.4260    0.1020 h1        1 MX3      0.038367
@<TRIPOS>BOND
     1    1    7 3   
     2    1    8 1   
     3    2    4 3   
     4    2   22 1   
     5    3   16 1   
     6    3   23 1   
     7    3   24 1   
     8    4   25 1   
     9    5    6 3   
    10    5   26 1   
    11    6   27 1   
    12    7   28 1   
    13    8   17 1   
    14    8   29 1   
    15    8   30 1   
    16    9   10 1   
    17    9   12 1   
    18    9   31 1   
    19    9   32 1   
    20   10   11 1   
    21   10   33 1   
    22   10   34 1   
    23   11   16 1   
    24   11   19 2   
    25   12   17 1   
    26   12   18 2   
    27   13   14 1   
    28   13   16 1   
    29   13   35 1   
    30   13   36 1   
    31   14   20 1   
    32   14   21 1   
    33   15   17 1   
    34   15   37 1   
    35   15   38 1   
    36   15   39 1   
@<TRIPOS>SUBSTRUCTURE
     1 MX3         1 TEMP              0 ****  ****    0 ROOT
