@<TRIPOS>MOLECULE
MX4
   37    37     1     0     0
SMALL
bcc


@<TRIPOS>ATOM
      1 C2          0.7390   -1.2210   -1.4600 c3        1 MX4     -0.128400
      2 C3          2.1510   -1.0150   -0.9430 c3        1 MX4     -0.151400
      3 C4          2.1750   -0.2000    0.3170 c         1 MX4      0.651100
      4 O5          1.2280    0.4820    0.7550 o         1 MX4     -0.660000
      5 O6          3.3430   -0.2300    0.9740 os        1 MX4     -0.386900
      6 C7          0.0210    0.0900   -1.5450 c         1 MX4      0.617100
      7 O8          0.2660    1.0490   -2.2550 o         1 MX4     -0.425100
      8 N9         -1.2380    0.3630   -0.6360 nx        1 MX4     -0.376000
      9 C10        -2.4530    0.4300   -1.5320 c3        1 MX4      0.013800
     10 C12         5.1670   -0.6160    3.5520 ca        1 MX4     -0.098000
     11 C13         6.4690   -0.7440    4.0330 ca        1 MX4     -0.128500
     12 C14         7.4560    0.1560    3.6290 ca        1 MX4     -0.098000
     13 C15         7.1400    1.1870    2.7430 ca        1 MX4     -0.128500
     14 C16         5.8400    1.3180    2.2590 ca        1 MX4     -0.098000
     15 C17         4.8480    0.4190    2.6660 ca        1 MX4     -0.129300
     16 C18        -2.6890   -0.8670   -2.2900 c         1 MX4      0.640100
     17 C9          3.4510    0.5810    2.1810 c3        1 MX4      0.197700
     18 O19        -3.9370   -1.1850   -2.6930 oh        1 MX4     -0.514100
     19 N16        -1.4250   -0.5510    0.4090 n8        1 MX4     -0.663600
     20 O20        -1.8030   -1.6570   -2.6060 o         1 MX4     -0.473000
     21 H2C1        0.7740   -1.6230   -2.5180 hc        1 MX4      0.134700
     22 H2C2        0.1920   -1.9920   -0.8570 hc        1 MX4      0.134700
     23 H3C1        2.6270   -2.0170   -0.7550 hc        1 MX4      0.124700
     24 H3C2        2.7830   -0.4830   -1.7080 hc        1 MX4      0.124700
     25 H101       -3.3580    0.6960   -0.9140 hx        1 MX4      0.128700
     26 H102       -2.2640    1.2530   -2.2850 hx        1 MX4      0.128700
     27 H15         7.9180    1.8970    2.4240 ha        1 MX4      0.146000
     28 H16         5.5930    2.1310    1.5590 ha        1 MX4      0.133500
     29 H9C1        2.6960    0.1980    2.9160 h1        1 MX4      0.065200
     30 H9C2        3.2130    1.6420    1.9070 h1        1 MX4      0.065200
     31 H161       -2.0770   -0.1640    1.0830 hn        1 MX4      0.414300
     32 H162       -0.5340   -0.7150    0.8730 hn        1 MX4      0.414300
     33 H12         4.3910   -1.3270    3.8710 ha        1 MX4      0.133500
     34 H13         6.7180   -1.5570    4.7320 ha        1 MX4      0.146000
     35 H91        -1.0850    1.3290   -0.2760 hn        1 MX4      0.447800
     36 H163       -4.5830   -0.5140   -2.4190 ho        1 MX4      0.448000
     37 H14         8.4830    0.0540    4.0110 ha        1 MX4      0.147000
@<TRIPOS>BOND
     1    1    2 1   
     2    1    6 1   
     3    1   21 1   
     4    1   22 1   
     5    2    3 1   
     6    2   23 1   
     7    2   24 1   
     8    3    4 2   
     9    3    5 1   
    10    5   17 1   
    11    6    7 2   
    12    6    8 1   
    13    8    9 1   
    14    8   19 1   
    15    8   35 1   
    16    9   16 1   
    17    9   25 1   
    18    9   26 1   
    19   10   11 ar  
    20   10   15 ar  
    21   10   33 1   
    22   11   12 ar  
    23   11   34 1   
    24   12   13 ar  
    25   12   37 1   
    26   13   14 ar  
    27   13   27 1   
    28   14   15 ar  
    29   14   28 1   
    30   15   17 1   
    31   16   18 1   
    32   16   20 2   
    33   17   29 1   
    34   17   30 1   
    35   18   36 1   
    36   19   31 1   
    37   19   32 1   
@<TRIPOS>SUBSTRUCTURE
     1 MX4         1 TEMP              0 ****  ****    0 ROOT
