@<TRIPOS>MOLECULE
MX4
   37    37     1     0     0
SMALL
bcc


@<TRIPOS>ATOM
      1 C2          0.6420   -1.4100   -1.2780 c3        1 MX4     -0.128400
      2 C3          2.0660   -1.2550   -0.7780 c3        1 MX4     -0.151400
      3 C4          2.1650   -0.2580    0.3380 c         1 MX4      0.651100
      4 O5          1.2850    0.5690    0.6490 o         1 MX4     -0.660000
      5 O6          3.3250   -0.2900    1.0100 os        1 MX4     -0.386900
      6 C7          0.0490   -0.0690   -1.5790 c         1 MX4      0.617100
      7 O8          0.3820    0.7390   -2.4270 o         1 MX4     -0.425100
      8 N9         -1.1800    0.4590   -0.7430 n4        1 MX4     -0.376000
      9 C10        -2.3840    0.4940   -1.6570 c3        1 MX4      0.013800
     10 C12         5.0930   -0.4290    3.6560 ca        1 MX4     -0.098000
     11 C13         6.3740   -0.6030    4.1760 ca        1 MX4     -0.128500
     12 C14         7.4470    0.1170    3.6490 ca        1 MX4     -0.098000
     13 C15         7.2370    1.0130    2.5990 ca        1 MX4     -0.128500
     14 C16         5.9570    1.1900    2.0760 ca        1 MX4     -0.098000
     15 C17         4.8800    0.4720    2.6070 ca        1 MX4     -0.129300
     16 C18        -2.7390   -0.8780   -2.2050 c         1 MX4      0.640100
     17 C9          3.5080    0.6880    2.0760 c3        1 MX4      0.197700
     18 O19        -4.0110   -1.1410   -2.5720 oh        1 MX4     -0.514100
     19 N16        -1.4520   -0.2580    0.4300 n3        1 MX4     -0.663600
     20 O20        -1.9290   -1.7870   -2.3790 o         1 MX4     -0.473000
     21 H2C1        0.6390   -1.9760   -2.2590 hc        1 MX4      0.134700
     22 H2C2        0.0250   -2.0230   -0.5690 hc        1 MX4      0.134700
     23 H3C1        2.4470   -2.2550   -0.4270 hc        1 MX4      0.125200
     24 H3C2        2.7450   -0.9110   -1.6070 hc        1 MX4      0.125200
     25 H101       -3.2590    0.9360   -1.1020 hx        1 MX4      0.128700
     26 H102       -2.1180    1.1670   -2.5270 hx        1 MX4      0.128700
     27 H15         8.0830    1.5810    2.1830 ha        1 MX4      0.146000
     28 H16         5.7950    1.8970    1.2480 ha        1 MX4      0.133500
     29 H9C1        2.7160    0.5010    2.8480 h1        1 MX4      0.065200
     30 H9C2        3.3760    1.7100    1.6330 h1        1 MX4      0.065200
     31 H161       -2.0640    0.2890    1.0240 hn        1 MX4      0.414300
     32 H162       -0.5800   -0.4280    0.9270 hn        1 MX4      0.414300
     33 H12         4.2480   -0.9990    4.0720 ha        1 MX4      0.133500
     34 H13         6.5390   -1.3100    5.0030 ha        1 MX4      0.146000
     35 H91        -0.9380    1.4510   -0.5370 hn        1 MX4      0.447800
     36 H163       -4.5910   -0.3790   -2.4160 ho        1 MX4      0.448000
     37 H14         8.4580   -0.0210    4.0610 ha        1 MX4      0.147000
@<TRIPOS>BOND
     1    1    2 1   
     2    1    6 1   
     3    1   21 1   
     4    1   22 1   
     5    2    3 1   
     6    2   23 1   
     7    2   24 1   
     8    3    4 2   
     9    3    5 1   
    10    5   17 1   
    11    6    7 2   
    12    6    8 1   
    13    8    9 1   
    14    8   19 1   
    15    8   35 1   
    16    9   16 1   
    17    9   25 1   
    18    9   26 1   
    19   10   11 ar  
    20   10   15 ar  
    21   10   33 1   
    22   11   12 ar  
    23   11   34 1   
    24   12   13 ar  
    25   12   37 1   
    26   13   14 ar  
    27   13   27 1   
    28   14   15 ar  
    29   14   28 1   
    30   15   17 1   
    31   16   18 1   
    32   16   20 2   
    33   17   29 1   
    34   17   30 1   
    35   18   36 1   
    36   19   31 1   
    37   19   32 1   
@<TRIPOS>SUBSTRUCTURE
     1 MX4         1 TEMP              0 ****  ****    0 ROOT
