@<TRIPOS>MOLECULE
MX4
   37    37     1     0     0
SMALL
bcc


@<TRIPOS>ATOM
      1 C2          0.1750   -1.9040   -0.2260 c3        1 MX4     -0.127400
      2 C3          1.2970   -2.1960    0.7520 c3        1 MX4     -0.152400
      3 C4          1.7130   -0.9740    1.5170 c         1 MX4      0.659100
      4 O5          1.3990    0.1960    1.2310 o         1 MX4     -0.651000
      5 O6          2.4830   -1.2360    2.5860 os        1 MX4     -0.393900
      6 C7          0.5320   -0.7360   -1.0910 c         1 MX4      0.617100
      7 O8          1.4260   -0.6420   -1.9130 o         1 MX4     -0.423100
      8 N9         -0.3010    0.6000   -1.0020 n4        1 MX4     -0.376000
      9 C10        -1.0300    0.7790   -2.3150 c3        1 MX4      0.013800
     10 C12         5.3830   -0.7090    2.6380 ca        1 MX4     -0.105000
     11 C13         6.6410   -0.3400    2.1660 ca        1 MX4     -0.129500
     12 C14         6.9040    0.9920    1.8460 ca        1 MX4     -0.103000
     13 C15         5.9050    1.9550    1.9950 ca        1 MX4     -0.129500
     14 C16         4.6430    1.5890    2.4600 ca        1 MX4     -0.105000
     15 C17         4.3780    0.2540    2.7850 ca        1 MX4     -0.150300
     16 C18        -1.9770   -0.3710   -2.6120 c         1 MX4      0.640100
     17 C9          3.0490   -0.1310    3.3340 c3        1 MX4      0.189700
     18 O19        -3.0500   -0.1650   -3.4040 oh        1 MX4     -0.514100
     19 N16        -1.1830    0.6800    0.0840 n3        1 MX4     -0.663600
     20 O20        -1.8210   -1.5210   -2.2050 o         1 MX4     -0.474000
     21 H2C1       -0.8070   -1.7870    0.3020 hc        1 MX4      0.134200
     22 H2C2        0.0440   -2.7810   -0.9320 hc        1 MX4      0.134200
     23 H3C1        0.9630   -2.9960    1.4700 hc        1 MX4      0.124200
     24 H3C2        2.2040   -2.5880    0.2130 hc        1 MX4      0.124200
     25 H101       -0.2430    0.8120   -3.1280 hx        1 MX4      0.129700
     26 H102       -1.5890    1.7580   -2.3010 hx        1 MX4      0.129700
     27 H15         6.1150    3.0080    1.7500 ha        1 MX4      0.144500
     28 H16         3.8600    2.3520    2.5800 ha        1 MX4      0.136500
     29 H9C1        3.1490   -0.5780    4.3630 h1        1 MX4      0.085200
     30 H9C2        2.3300    0.7290    3.3430 h1        1 MX4      0.085200
     31 H161       -1.4750    1.6430    0.2090 hn        1 MX4      0.414300
     32 H162       -3.1050    0.7600   -3.6960 ho        1 MX4      0.448000
     33 H12         5.1730   -1.7580    2.9010 ha        1 MX4      0.136500
     34 H13         7.4300   -1.1000    2.0550 ha        1 MX4      0.144500
     35 H91         0.4230    1.3480   -0.9630 hn        1 MX4      0.447800
     36 H163       -0.7030    0.3710    0.9270 hn        1 MX4      0.414300
     37 H14         7.9010    1.2840    1.4820 ha        1 MX4      0.146000
@<TRIPOS>BOND
     1    1    2 1   
     2    1    6 1   
     3    1   21 1   
     4    1   22 1   
     5    2    3 1   
     6    2   23 1   
     7    2   24 1   
     8    3    4 2   
     9    3    5 1   
    10    5   17 1   
    11    6    7 2   
    12    6    8 1   
    13    8    9 1   
    14    8   19 1   
    15    8   35 1   
    16    9   16 1   
    17    9   25 1   
    18    9   26 1   
    19   10   11 ar  
    20   10   15 ar  
    21   10   33 1   
    22   11   12 ar  
    23   11   34 1   
    24   12   13 ar  
    25   12   37 1   
    26   13   14 ar  
    27   13   27 1   
    28   14   15 ar  
    29   14   28 1   
    30   15   17 1   
    31   16   18 1   
    32   16   20 2   
    33   17   29 1   
    34   17   30 1   
    35   18   32 1   
    36   19   31 1   
    37   19   36 1   
@<TRIPOS>SUBSTRUCTURE
     1 MX4         1 TEMP              0 ****  ****    0 ROOT
