@<TRIPOS>MOLECULE
MX4
   35    35     1     0     0
SMALL
bcc


@<TRIPOS>ATOM
      1 C2         -1.5180    1.1470   -0.4630 c3        1 MX4     -0.192400
      2 C3         -0.3120    0.7020   -1.2620 c3        1 MX4     -0.114400
      3 C4          0.9120    1.4510   -0.8460 c         1 MX4      0.641100
      4 O5          1.0750    2.6590   -0.6570 o         1 MX4     -0.563000
      5 O6          2.0030    0.6330   -0.6880 os        1 MX4     -0.440900
      6 C7         -2.7960    0.6010   -1.0760 c         1 MX4      0.616100
      7 O8         -2.7770    0.0480   -2.1900 o         1 MX4     -0.594100
      8 N9         -4.0570    0.7940   -0.3900 n         1 MX4     -0.246200
      9 C10        -4.6600   -0.5220   -0.0700 c3        1 MX4     -0.081000
     10 C12         3.8710   -1.0860    0.3560 ca        1 MX4     -0.113500
     11 C13         4.8490   -2.0460    0.6140 ca        1 MX4     -0.134500
     12 C14         6.2000   -1.7230    0.4890 ca        1 MX4     -0.135000
     13 C15         6.5730   -0.4360    0.0990 ca        1 MX4     -0.134500
     14 C16         5.6000    0.5250   -0.1640 ca        1 MX4     -0.113500
     15 C17         4.2430    0.2050   -0.0330 ca        1 MX4     -0.086300
     16 C18        -3.9750   -1.2960    1.0890 c         1 MX4      0.896600
     17 C9          3.2260    1.2670   -0.2840 c3        1 MX4      0.182700
     18 O19        -2.9190   -0.8110    1.6010 o         1 MX4     -0.844300
     19 N16        -4.0960    1.6670    0.6720 n3        1 MX4     -0.675800
     20 O20        -4.5150   -2.3730    1.4520 o         1 MX4     -0.844300
     21 H2C1       -1.5490    2.2660   -0.4210 hc        1 MX4      0.093700
     22 H2C2       -1.4520    0.7370    0.5870 hc        1 MX4      0.093700
     23 H3C1       -0.1540   -0.4020   -1.1350 hc        1 MX4      0.094200
     24 H3C2       -0.4780    0.8960   -2.3580 hc        1 MX4      0.094200
     25 H101       -5.7370   -0.3510    0.1970 h1        1 MX4      0.064200
     26 H102       -4.6140   -1.1450   -1.0020 h1        1 MX4      0.064200
     27 H14         6.9690   -2.4800    0.6950 ha        1 MX4      0.124000
     28 H15         7.6370   -0.1790   -0.0020 ha        1 MX4      0.128000
     29 H16         5.8960    1.5380   -0.4760 ha        1 MX4      0.144000
     30 H9C1        3.5510    1.9660   -1.1000 h1        1 MX4      0.057200
     31 H9C2        3.0360    1.8610    0.6510 h1        1 MX4      0.057200
     32 H161       -3.6890    1.2520    1.5100 hn        1 MX4      0.345800
     33 H162       -3.5490    2.4860    0.4430 hn        1 MX4      0.345800
     34 H12         2.8020   -1.3380    0.4500 ha        1 MX4      0.144000
     35 H13         4.5500   -3.0600    0.9190 ha        1 MX4      0.128000
@<TRIPOS>BOND
     1    1    2 1   
     2    1    6 1   
     3    1   21 1   
     4    1   22 1   
     5    2    3 1   
     6    2   23 1   
     7    2   24 1   
     8    3    4 2   
     9    3    5 1   
    10    5   17 1   
    11    6    7 2   
    12    6    8 1   
    13    8    9 1   
    14    8   19 1   
    15    9   16 1   
    16    9   25 1   
    17    9   26 1   
    18   10   11 ar  
    19   10   15 ar  
    20   10   34 1   
    21   11   12 ar  
    22   11   35 1   
    23   12   13 ar  
    24   12   27 1   
    25   13   14 ar  
    26   13   28 1   
    27   14   15 ar  
    28   14   29 1   
    29   15   17 1   
    30   16   18 1   
    31   16   20 1   
    32   17   30 1   
    33   17   31 1   
    34   19   32 1   
    35   19   33 1   
@<TRIPOS>SUBSTRUCTURE
     1 MX4         1 TEMP              0 ****  ****    0 ROOT
