@<TRIPOS>MOLECULE
MX5
   42    40     1     0     0
SMALL
bcc


@<TRIPOS>ATOM
      1 C1         -0.4150   -0.5180    0.8770 ce        1 MX5     -0.140300
      2 C2          0.2070    0.5880    0.1970 ce        1 MX5     -0.121000
      3 N20        -4.9180   -0.2130    8.1400 n3        1 MX5     -0.709600
      4 C4         -2.7070   -2.0520    1.6170 ce        1 MX5     -0.047000
      5 C5         -1.7810   -2.5610    0.5900 ce        1 MX5     -0.176100
      6 C6         -0.8540   -1.6500    0.3360 c1        1 MX5      0.075200
      7 C7         -0.8830   -0.4380    2.3330 c3        1 MX5      0.124400
      8 C9          4.6090   -5.4430    4.1230 c3        1 MX5     -0.022900
      9 C10         3.7620   -4.7660    5.1250 c2        1 MX5     -0.374300
     10 C11         2.8690   -3.8560    4.8320 c1        1 MX5      0.552600
     11 C12        -2.6850    0.4680    7.6710 c3        1 MX5      0.073800
     12 C13        -2.5290   -0.0650    6.2650 c         1 MX5      0.690100
     13 C14         1.3310   -0.1680    3.5170 c3        1 MX5     -0.001400
     14 N2         -3.5990   -0.3430    8.4810 n3        1 MX5     -0.589000
     15 N3          0.1120   -0.9410    3.3150 n3        1 MX5     -0.145400
     16 O4         -0.5310   -2.7210    4.9080 o         1 MX5     -0.198500
     17 O6          2.0450   -3.0180    4.5820 o         1 MX5     -0.508500
     18 O7         -3.5830   -0.2410    5.4340 oh        1 MX5     -0.595100
     19 C19         0.5790    1.7460    0.7490 c2        1 MX5     -0.196000
     20 O8         -1.4440   -0.3310    5.7230 o         1 MX5     -0.620000
     21 C24        -2.2240   -1.1400    2.4920 c2        1 MX5     -0.269200
     22 H2C1        0.4420    1.9930    1.8100 ha        1 MX5      0.123500
     23 H2C2        0.3710    0.4130   -0.8850 ha        1 MX5      0.159000
     24 H201       -5.3480   -1.1220    8.2580 hn        1 MX5      0.369800
     25 H202       -5.4150    0.4500    8.7200 hn        1 MX5      0.369800
     26 H4         -2.8020   -0.8190    3.3780 ha        1 MX5      0.185000
     27 H5         -3.7040   -2.5070    1.7130 ha        1 MX5      0.172000
     28 H6         -1.8440   -3.5940    0.2330 ha        1 MX5      0.192000
     29 H9C1        5.6880   -5.2510    4.3530 hc        1 MX5      0.053700
     30 H9C2        4.4300   -6.5470    4.1660 hc        1 MX5      0.053700
     31 H101        4.4000   -5.0900    3.0840 hc        1 MX5      0.053700
     32 H102        3.9020   -5.0560    6.1810 ha        1 MX5      0.194000
     33 H121       -1.6730    0.4230    8.1680 h1        1 MX5      0.085700
     34 H122       -2.9890    1.5530    7.5740 h1        1 MX5      0.085700
     35 H141        2.1110   -0.7980    4.0220 h1        1 MX5      0.094367
     36 H142        1.6920    0.1410    2.4970 h1        1 MX5      0.094367
     37 H191        1.1070    0.7410    4.1380 h1        1 MX5      0.094367
     38 H192        1.0500    2.5390    0.1510 ha        1 MX5      0.123500
     39 H24        -1.0360    0.6620    2.5640 h1        1 MX5      0.119700
     40 C15        -0.2480   -1.8380    4.1920 c1        1 MX5      0.726500
     41 H203       -4.4270   -0.0630    5.8830 ho        1 MX5      0.479000
     42 H21        -3.4200   -0.1120    9.4530 hn        1 MX5      0.370800
@<TRIPOS>BOND
     1    1    2 1   
     2    1    6 2   
     3    1    7 1   
     4    2   19 2   
     5    2   23 1   
     6    3   14 1   
     7    3   24 1   
     8    3   25 1   
     9    4    5 1   
    10    4   21 2   
    11    4   27 1   
    12    5    6 2   
    13    5   28 1   
    14    7   15 1   
    15    7   21 1   
    16    7   39 1   
    17    8    9 1   
    18    8   29 1   
    19    8   30 1   
    20    8   31 1   
    21    9   10 2   
    22    9   32 1   
    23   10   17 2   
    24   11   12 1   
    25   11   14 1   
    26   11   33 1   
    27   11   34 1   
    28   12   18 1   
    29   12   20 2   
    30   13   15 1   
    31   13   35 1   
    32   13   36 1   
    33   13   37 1   
    34   14   42 1   
    35   15   40 2   
    36   16   40 2   
    37   18   41 1   
    38   19   22 1   
    39   19   38 1   
    40   21   26 1   
@<TRIPOS>SUBSTRUCTURE
     1 MX5         1 TEMP              0 ****  ****    0 ROOT
