@<TRIPOS>MOLECULE
MX5
   42    41     1     0     0
SMALL
bcc


@<TRIPOS>ATOM
      1 C1          0.3920    0.1870    0.1780 ce        1 MX5     -0.131300
      2 C2          1.5490    0.8960    0.6600 ce        1 MX5     -0.113000
      3 N20        -0.8560   -1.7380    7.8860 n4        1 MX5     -0.603600
      4 C4         -2.0290    0.0700   -1.3170 ce        1 MX5     -0.100000
      5 C5         -0.8140   -0.5860   -1.8290 ce        1 MX5     -0.174100
      6 C6          0.2150   -0.3170   -1.0380 c1        1 MX5      0.019200
      7 C7         -0.9200    0.1170    0.9780 c3        1 MX5      0.166100
      8 C9         -1.1770   -2.1250    4.0640 ce        1 MX5     -0.077200
      9 C10        -0.3670   -2.2790    5.1160 cf        1 MX5     -0.266200
     10 C11        -0.4960   -3.3850    6.0810 c         1 MX5      0.652300
     11 C12         0.4020   -3.3540   11.6210 cx        1 MX5      0.108400
     12 C13        -0.4140   -2.3250   11.0140 c         1 MX5      0.701600
     13 C14        -1.2380   -2.3430    1.2510 c3        1 MX5      0.063300
     14 N2         -0.9260   -3.0380    7.4200 n         1 MX5     -0.487300
     15 N3         -1.0790   -1.0420    1.8440 n         1 MX5     -0.427800
     16 O4         -0.8620    0.2020    3.7830 o         1 MX5     -0.627100
     17 O6         -0.3340   -4.5840    5.8760 o         1 MX5     -0.444100
     18 O7          0.2660   -3.1700   10.1510 os        1 MX5     -0.533900
     19 C19         1.7170    1.3540    1.9040 c2        1 MX5     -0.210000
     20 O8         -1.1400   -1.4100   10.6940 o         1 MX5     -0.538500
     21 C24        -2.0960    0.2850    0.0150 c2        1 MX5     -0.196200
     22 H2C1        0.9680    1.2400    2.7000 ha        1 MX5      0.122000
     23 H2C2        2.3420    1.0390   -0.0990 ha        1 MX5      0.144000
     24 H201       -1.0230   -1.0730    7.1050 hn        1 MX5      0.476800
     25 H202        0.0530   -1.5210    8.3310 hn        1 MX5      0.476800
     26 H4         -3.0280    0.6180    0.4960 ha        1 MX5      0.146000
     27 H5         -2.8650    0.2610   -2.0020 ha        1 MX5      0.155000
     28 H6         -0.8610   -1.2790   -2.6740 ha        1 MX5      0.174000
     29 H9C1        0.0020    0.5060    6.4020 ha        1 MX5      0.003000
     30 H9C2       -2.0020   -2.8130    3.8160 ha        1 MX5      0.173000
     31 H101       -0.0860    0.9050    5.8580 ha        1 MX5      0.003000
     32 H102        0.4790   -1.5880    5.2940 ha        1 MX5      0.175000
     33 H121       -0.0570   -4.2870   12.0060 h1        1 MX5      0.137700
     34 H122        1.4110   -3.1170   12.0160 h1        1 MX5      0.137700
     35 H141       -2.2760   -2.7320    1.4350 h1        1 MX5      0.057367
     36 H142       -0.4950   -3.0670    1.6810 h1        1 MX5      0.057367
     37 H191       -1.0690   -2.2700    0.1420 h1        1 MX5      0.057367
     38 H192        2.6320    1.8860    2.1980 ha        1 MX5      0.122000
     39 H24        -0.9080    1.0470    1.6340 h1        1 MX5      0.121700
     40 C15        -1.0220   -0.9000    3.2080 c         1 MX5      0.642300
     41 H203       -1.6010   -1.6170    8.6050 hn        1 MX5      0.476800
     42 H21        -0.6980   -3.7240    8.1350 hn        1 MX5      0.360500
@<TRIPOS>BOND
     1    1    2 1   
     2    1    6 2   
     3    1    7 1   
     4    2   19 2   
     5    2   23 1   
     6    3   14 1   
     7    3   24 1   
     8    3   25 1   
     9    3   41 1   
    10    4    5 1   
    11    4   21 2   
    12    4   27 1   
    13    5    6 2   
    14    5   28 1   
    15    7   15 1   
    16    7   21 1   
    17    7   39 1   
    18    8    9 2   
    19    8   30 1   
    20    8   40 1   
    21    9   10 1   
    22    9   32 1   
    23   10   14 1   
    24   10   17 2   
    25   11   12 1   
    26   11   18 1   
    27   11   33 1   
    28   11   34 1   
    29   12   18 1   
    30   12   20 2   
    31   13   15 1   
    32   13   35 1   
    33   13   36 1   
    34   13   37 1   
    35   14   42 1   
    36   15   40 1   
    37   16   40 2   
    38   19   22 1   
    39   19   38 1   
    40   21   26 1   
    41   29   31 1   
@<TRIPOS>SUBSTRUCTURE
     1 MX5         1 TEMP              0 ****  ****    0 ROOT
