@<TRIPOS>MOLECULE
MX5
   42    40     1     0     0
SMALL
bcc


@<TRIPOS>ATOM
      1 C1         -0.2270   -0.0320    1.2900 ce        1 MX5     -0.122300
      2 C2          1.2020   -0.0820    1.4270 ce        1 MX5     -0.164000
      3 N20        -5.3260   -3.0970    7.5940 n8        1 MX5     -0.708600
      4 C4         -2.6190   -1.1950    0.3400 ce        1 MX5     -0.076000
      5 C5         -2.0930    0.0280   -0.3120 ce        1 MX5     -0.142100
      6 C6         -0.9200    0.3430    0.2100 c1        1 MX5      0.002200
      7 C7         -1.2350   -0.5270    2.3370 c3        1 MX5      0.117400
      8 C9          5.2570    0.7160    5.4160 c3        1 MX5     -0.023900
      9 C10         4.3890   -0.4400    5.7140 c2        1 MX5     -0.372300
     10 C11         3.2050   -0.6190    5.1890 c1        1 MX5      0.549600
     11 C12        -2.9590   -3.3500    7.6520 c3        1 MX5      0.074800
     12 C13        -2.5510   -2.3200    6.6250 c         1 MX5      0.687100
     13 C14        -0.0750   -2.5730    3.3280 c3        1 MX5      0.010600
     14 N2         -4.2710   -3.9390    7.3660 n7        1 MX5     -0.591000
     15 N3         -0.6100   -1.2220    3.4780 n3        1 MX5     -0.139400
     16 O4         -0.3800   -0.0060    5.6200 o         1 MX5     -0.191500
     17 O6          2.1160   -0.8010    4.7140 o         1 MX5     -0.508500
     18 O7         -3.3120   -1.2420    6.3250 oh        1 MX5     -0.594100
     19 C19         2.0290    0.4540    0.5180 c2        1 MX5     -0.135000
     20 O8         -1.4730   -2.3250    6.0050 o         1 MX5     -0.618000
     21 C24        -2.2440   -1.4350    1.6130 c2        1 MX5     -0.216200
     22 H2C1        1.6650    0.9720   -0.3810 ha        1 MX5      0.134000
     23 H2C2        1.6140   -0.5810    2.3220 ha        1 MX5      0.128000
     24 H201       -4.1600   -1.2590    6.8020 ho        1 MX5      0.481000
     25 H202       -5.7410   -3.2180    8.5080 hn        1 MX5      0.369300
     26 H4         -2.6890   -2.2440    2.2090 ha        1 MX5      0.159000
     27 H5         -3.3630   -1.8030   -0.1930 ha        1 MX5      0.171000
     28 H6         -2.6970    0.5850   -1.0330 ha        1 MX5      0.186000
     29 H9C1        5.4780    1.2740    6.3620 hc        1 MX5      0.054700
     30 H9C2        6.2260    0.3570    4.9840 hc        1 MX5      0.054700
     31 H101        4.7870    1.4230    4.6900 hc        1 MX5      0.054700
     32 H102        4.7770   -1.1890    6.4250 ha        1 MX5      0.194000
     33 H121       -2.2040   -4.1870    7.6150 h1        1 MX5      0.088200
     34 H122       -2.8850   -2.8450    8.6610 h1        1 MX5      0.088200
     35 H141       -0.6000   -3.2630    4.0440 h1        1 MX5      0.097700
     36 H142       -0.2580   -2.8930    2.2680 h1        1 MX5      0.097700
     37 H191        1.0290   -2.5660    3.5410 h1        1 MX5      0.097700
     38 H192        3.1210    0.3990    0.6250 ha        1 MX5      0.134000
     39 H24        -1.8280    0.3500    2.7500 h1        1 MX5      0.097700
     40 C15        -0.4910   -0.6010    4.6170 c1        1 MX5      0.730500
     41 H203       -6.0290   -3.3030    6.8960 hn        1 MX5      0.369300
     42 H21        -4.3330   -4.8000    7.9010 hn        1 MX5      0.370800
@<TRIPOS>BOND
     1    1    2 1   
     2    1    6 2   
     3    1    7 1   
     4    2   19 2   
     5    2   23 1   
     6    3   14 1   
     7    3   25 1   
     8    3   41 1   
     9    4    5 1   
    10    4   21 2   
    11    4   27 1   
    12    5    6 2   
    13    5   28 1   
    14    7   15 1   
    15    7   21 1   
    16    7   39 1   
    17    8    9 1   
    18    8   29 1   
    19    8   30 1   
    20    8   31 1   
    21    9   10 2   
    22    9   32 1   
    23   10   17 2   
    24   11   12 1   
    25   11   14 1   
    26   11   33 1   
    27   11   34 1   
    28   12   18 1   
    29   12   20 2   
    30   13   15 1   
    31   13   35 1   
    32   13   36 1   
    33   13   37 1   
    34   14   42 1   
    35   15   40 2   
    36   16   40 2   
    37   18   24 1   
    38   19   22 1   
    39   19   38 1   
    40   21   26 1   
@<TRIPOS>SUBSTRUCTURE
     1 MX5         1 TEMP              0 ****  ****    0 ROOT
