@<TRIPOS>MOLECULE
MX5
   40    41     1     0     0
SMALL
bcc


@<TRIPOS>ATOM
      1 C1          4.4490   -0.6320    0.3300 ca        1 MX5     -0.116300
      2 C2          4.1910   -2.0860    0.5270 c3        1 MX5     -0.029100
      3 N20        -4.0300    2.0100    0.0420 n3        1 MX5     -0.667800
      4 C4          5.0920    2.0680   -0.0380 ca        1 MX5     -0.121000
      5 C5          6.0400    1.1970    0.4970 ca        1 MX5     -0.156000
      6 C6          5.7130   -0.1430    0.6740 ca        1 MX5     -0.120000
      7 C7          3.4780    0.2510   -0.2090 ca        1 MX5      0.074600
      8 C9         -0.3020   -0.1160   -0.7230 c3        1 MX5     -0.138400
      9 C10        -1.4460    0.8510   -0.5000 c3        1 MX5     -0.164400
     10 C11        -2.7420    0.2480   -1.0250 c         1 MX5      0.613100
     11 C12        -5.1010   -0.0380   -0.5460 c3        1 MX5     -0.069000
     12 C13        -5.2280   -0.6000    0.8960 c         1 MX5      0.899600
     13 C14         2.1470   -1.6620   -0.8370 c3        1 MX5      0.085000
     14 N2         -3.9820    0.9020   -0.7710 n         1 MX5     -0.255200
     15 N3          2.2030   -0.2340   -0.5950 n         1 MX5     -0.381000
     16 O4          1.1070    1.7100   -0.0310 o         1 MX5     -0.597100
     17 O6         -2.6920   -0.7390   -1.7890 o         1 MX5     -0.622100
     18 O7         -4.3630   -0.2740    1.7620 o         1 MX5     -0.841800
     19 C19         2.7490   -2.4810    0.3030 c3        1 MX5     -0.103400
     20 O8         -6.2080   -1.3610    1.1140 o         1 MX5     -0.841800
     21 C24         3.8290    1.6080   -0.3930 ca        1 MX5     -0.129000
     22 H2C1        4.5010   -2.3800    1.5660 hc        1 MX5      0.045700
     23 H2C2        4.8480   -2.6580   -0.1850 hc        1 MX5      0.045700
     24 H201       -4.1160    1.7350    1.0210 hn        1 MX5      0.351300
     25 H202       -3.1720    2.5360   -0.0530 hn        1 MX5      0.351300
     26 H4          5.3400    3.1300   -0.1830 ha        1 MX5      0.127000
     27 H5          7.0360    1.5650    0.7780 ha        1 MX5      0.123000
     28 H6          6.4560   -0.8370    1.0940 ha        1 MX5      0.122000
     29 H9C1       -0.4610   -1.0140   -0.0670 hc        1 MX5      0.086700
     30 H9C2       -0.3100   -0.4620   -1.7930 hc        1 MX5      0.086700
     31 H101       -1.2380    1.8200   -1.0250 hc        1 MX5      0.077200
     32 H102       -1.5360    1.0610    0.5990 hc        1 MX5      0.077200
     33 H121       -6.0510    0.5010   -0.8040 h1        1 MX5      0.064200
     34 H122       -4.9700   -0.8980   -1.2550 h1        1 MX5      0.064200
     35 H141        1.0920   -2.0020   -1.0170 h1        1 MX5      0.060200
     36 H142        2.7350   -1.8680   -1.7790 h1        1 MX5      0.060200
     37 H191        2.1550   -2.3260    1.2410 hc        1 MX5      0.054700
     38 H192        2.6840   -3.5680    0.0380 hc        1 MX5      0.054700
     39 H24         3.0940    2.3180   -0.8060 ha        1 MX5      0.164000
     40 C15         1.0330    0.5250   -0.4050 c         1 MX5      0.666100
@<TRIPOS>BOND
     1    1    2 1   
     2    1    6 ar  
     3    1    7 ar  
     4    2   19 1   
     5    2   22 1   
     6    2   23 1   
     7    3   14 1   
     8    3   24 1   
     9    3   25 1   
    10    4    5 ar  
    11    4   21 ar  
    12    4   26 1   
    13    5    6 ar  
    14    5   27 1   
    15    6   28 1   
    16    7   15 1   
    17    7   21 ar  
    18    8    9 1   
    19    8   29 1   
    20    8   30 1   
    21    8   40 1   
    22    9   10 1   
    23    9   31 1   
    24    9   32 1   
    25   10   14 1   
    26   10   17 2   
    27   11   12 1   
    28   11   14 1   
    29   11   33 1   
    30   11   34 1   
    31   12   18 1   
    32   12   20 1   
    33   13   15 1   
    34   13   19 1   
    35   13   35 1   
    36   13   36 1   
    37   15   40 1   
    38   16   40 2   
    39   19   37 1   
    40   19   38 1   
    41   21   39 1   
@<TRIPOS>SUBSTRUCTURE
     1 MX5         1 TEMP              0 ****  ****    0 ROOT
