@<TRIPOS>MOLECULE
MX7
  119   118     1     0     0
SMALL
bcc


@<TRIPOS>ATOM
      1 C2I         0.4250    0.7530   -0.1870 c3        1 MX7     -0.091100
      2 C2H         1.8380    0.2330   -0.2590 c3        1 MX7     -0.081400
      3 C2G         2.4480    0.0870    1.1190 c3        1 MX7     -0.078400
      4 C2F         3.8660   -0.4360    1.0400 c3        1 MX7     -0.080400
      5 C2E         4.4760   -0.5820    2.4180 c3        1 MX7     -0.078400
      6 C2D         5.8940   -1.1050    2.3390 c3        1 MX7     -0.080400
      7 C2C         6.5030   -1.2530    3.7160 c3        1 MX7     -0.075400
      8 C2B         7.9220   -1.7770    3.6330 c3        1 MX7     -0.047200
      9 C2A         8.5440   -1.9320    4.9690 c2        1 MX7     -0.190200
     10 C29         9.7960   -2.3620    5.1570 c2        1 MX7     -0.159200
     11 C28        10.7150   -2.7340    4.0560 c3        1 MX7     -0.053200
     12 C27        12.0590   -3.2140    4.5610 c3        1 MX7     -0.077400
     13 C26        12.9750   -3.5830    3.4140 c3        1 MX7     -0.080400
     14 C25        14.3190   -4.0670    3.9140 c3        1 MX7     -0.077400
     15 C24        15.2340   -4.4320    2.7650 c3        1 MX7     -0.079400
     16 C23        16.5780   -4.9150    3.2670 c3        1 MX7     -0.074400
     17 C22        17.4830   -5.2880    2.1150 c3        1 MX7     -0.140400
     18 C21        18.8640   -5.6450    2.5920 c         1 MX7      0.640100
     19 O22        19.4020   -5.2720    3.6430 o         1 MX7     -0.600000
     20 O21        19.4930   -6.4670    1.7250 os        1 MX7     -0.394900
     21 C2         20.8870   -6.7850    1.9320 c3        1 MX7      0.075100
     22 C1         21.0440   -8.3170    1.7230 c3        1 MX7      0.225400
     23 O11        20.8050   -8.7260    0.4440 os        1 MX7     -0.566200
     24 P          22.1590   -9.4280   -0.3900 p5        1 MX7      1.321900
     25 O13        21.4720  -10.1780   -1.4970 o         1 MX7     -0.913500
     26 O12        22.8500   -8.1540   -0.8210 o         1 MX7     -0.913500
     27 O14        22.8370  -10.2060    0.6960 o         1 MX7     -0.913500
     28 C3         21.7440   -5.9690    0.9640 c3        1 MX7      0.066400
     29 O31        21.0240   -4.9130    0.3230 os        1 MX7     -0.447900
     30 C31        20.3770   -5.1660   -0.8660 c         1 MX7      0.666100
     31 O32        19.9460   -4.1110   -1.3630 o         1 MX7     -0.614000
     32 C32        20.2220   -6.5560   -1.3470 c3        1 MX7     -0.239400
     33 C33        19.5850   -6.7120   -2.7060 c3        1 MX7     -0.036400
     34 C34        19.5020   -8.1930   -3.0350 c3        1 MX7     -0.122400
     35 C35        20.0470   -8.5280   -4.4070 c3        1 MX7     -0.046400
     36 C36        20.3100  -10.0170   -4.5020 c3        1 MX7     -0.118400
     37 C37        21.0180  -10.3820   -5.7870 c3        1 MX7     -0.062400
     38 C38        21.3900  -11.8510   -5.7930 c3        1 MX7     -0.064200
     39 C39        22.0520  -12.2710   -7.0480 c2        1 MX7     -0.134200
     40 C3A        22.3740  -13.5370   -7.3390 c2        1 MX7     -0.221200
     41 C3B        22.1010  -14.6750   -6.4300 c3        1 MX7     -0.044200
     42 C3C        22.7310  -15.9640   -6.9160 c3        1 MX7     -0.072400
     43 C3D        22.4480  -17.1040   -5.9610 c3        1 MX7     -0.082400
     44 C3E        23.0770  -18.3940   -6.4410 c3        1 MX7     -0.076400
     45 C3F        22.7940  -19.5320   -5.4830 c3        1 MX7     -0.080400
     46 C3G        23.4230  -20.8230   -5.9610 c3        1 MX7     -0.077400
     47 C3H        23.1410  -21.9610   -5.0030 c3        1 MX7     -0.081400
     48 C3I        23.7650  -23.2500   -5.4730 c3        1 MX7     -0.090100
     49 H1         -0.2210    0.0580    0.4010 hc        1 MX7      0.030367
     50 H2          0.3990    1.7550    0.3060 hc        1 MX7      0.030367
     51 H3         -0.0050    0.8530   -1.2120 hc        1 MX7      0.030367
     52 H4          1.8470   -0.7610   -0.7790 hc        1 MX7      0.039700
     53 H5          2.4660    0.9310   -0.8740 hc        1 MX7      0.039700
     54 H6          1.8230   -0.6120    1.7340 hc        1 MX7      0.037700
     55 H7          2.4420    1.0810    1.6390 hc        1 MX7      0.037700
     56 H8          3.8730   -1.4290    0.5190 hc        1 MX7      0.040700
     57 H9          4.4920    0.2640    0.4250 hc        1 MX7      0.040700
     58 H10         4.4700    0.4120    2.9390 hc        1 MX7      0.037200
     59 H11         3.8510   -1.2810    3.0340 hc        1 MX7      0.037200
     60 H12         5.9000   -2.0980    1.8170 hc        1 MX7      0.041700
     61 H13         6.5190   -0.4060    1.7240 hc        1 MX7      0.041700
     62 H14         5.8790   -1.9530    4.3310 hc        1 MX7      0.037700
     63 H15         6.4990   -0.2600    4.2380 hc        1 MX7      0.037700
     64 H16         8.5460   -1.0780    3.0100 hc        1 MX7      0.049200
     65 H17         7.9260   -2.7690    3.1020 hc        1 MX7      0.049200
     66 H18         7.9090   -1.6710    5.8310 ha        1 MX7      0.115000
     67 H19        10.2030   -2.4590    6.1780 ha        1 MX7      0.121000
     68 H20        10.2400   -3.5380    3.4290 hc        1 MX7      0.048700
     69 H21        10.8630   -1.8470    3.3800 hc        1 MX7      0.048700
     70 H22        12.5380   -2.4110    5.1810 hc        1 MX7      0.039200
     71 H23        11.9150   -4.1050    5.2280 hc        1 MX7      0.039200
     72 H24        12.4950   -4.3850    2.7920 hc        1 MX7      0.039200
     73 H25        13.1210   -2.6920    2.7480 hc        1 MX7      0.039200
     74 H26        14.1740   -4.9600    4.5780 hc        1 MX7      0.037700
     75 H27        14.7990   -3.2670    4.5370 hc        1 MX7      0.037700
     76 H28        15.3800   -3.5400    2.1010 hc        1 MX7      0.040200
     77 H29        14.7560   -5.2330    2.1420 hc        1 MX7      0.040200
     78 H30        16.4370   -5.8040    3.9360 hc        1 MX7      0.049200
     79 H31        17.0700   -4.1160    3.8830 hc        1 MX7      0.049200
     80 H32        17.0580   -6.1520    1.5390 hc        1 MX7      0.080200
     81 H33        17.5930   -4.4270    1.4020 hc        1 MX7      0.080200
     82 H34        21.1680   -6.5400    2.9930 h1        1 MX7      0.038700
     83 H35        22.0930   -8.5840    2.0470 h1        1 MX7      0.011700
     84 H36        20.3020   -8.7990    2.4270 h1        1 MX7      0.011700
     85 H39        22.5290   -5.4090    1.5430 h1        1 MX7      0.109200
     86 H40        22.2440   -6.6760    0.2180 h1        1 MX7      0.109200
     87 H41        21.2380   -7.0930   -1.3550 hc        1 MX7      0.158200
     88 H42        19.6200   -7.1100   -0.5660 hc        1 MX7      0.158200
     89 H43        20.1940   -6.1630   -3.4710 hc        1 MX7      0.009700
     90 H44        18.5650   -6.2470   -2.7150 hc        1 MX7      0.009700
     91 H45        20.1030   -8.7960   -2.2680 hc        1 MX7      0.085700
     92 H46        18.4380   -8.5360   -2.9630 hc        1 MX7      0.085700
     93 H47        21.0090   -7.9740   -4.5720 hc        1 MX7      0.006700
     94 H48        19.3340   -8.2030   -5.2100 hc        1 MX7      0.006700
     95 H49        19.3400  -10.5750   -4.4380 hc        1 MX7      0.089200
     96 H50        20.9320  -10.3220   -3.6000 hc        1 MX7      0.089200
     97 H51        21.9480   -9.7630   -5.8920 hc        1 MX7      0.017700
     98 H52        20.3660  -10.1520   -6.6710 hc        1 MX7      0.017700
     99 H53        20.4670  -12.4730   -5.6280 hc        1 MX7      0.064200
    100 H54        22.0720  -12.0570   -4.9200 hc        1 MX7      0.064200
    101 H55        22.2860  -11.4640   -7.7620 ha        1 MX7      0.110000
    102 H56        22.8730  -13.7860   -8.2880 ha        1 MX7      0.099000
    103 H57        20.9890  -14.8140   -6.3310 hc        1 MX7      0.054700
    104 H58        22.4850  -14.4320   -5.4000 hc        1 MX7      0.054700
    105 H59        23.8400  -15.8250   -7.0170 hc        1 MX7      0.031200
    106 H60        22.3350  -16.2180   -7.9340 hc        1 MX7      0.031200
    107 H61        21.3390  -17.2400   -5.8580 hc        1 MX7      0.045700
    108 H62        22.8440  -16.8460   -4.9430 hc        1 MX7      0.045700
    109 H63        24.1850  -18.2560   -6.5430 hc        1 MX7      0.033200
    110 H64        22.6800  -18.6510   -7.4580 hc        1 MX7      0.033200
    111 H65        21.6860  -19.6690   -5.3790 hc        1 MX7      0.042700
    112 H66        23.1920  -19.2730   -4.4660 hc        1 MX7      0.042700
    113 H67        24.5320  -20.6860   -6.0640 hc        1 MX7      0.035200
    114 H68        23.0260  -21.0820   -6.9780 hc        1 MX7      0.035200
    115 H69        22.0320  -22.0950   -4.8980 hc        1 MX7      0.040200
    116 H70        23.5380  -21.6990   -3.9860 hc        1 MX7      0.040200
    117 H71        23.3630  -23.5400   -6.4740 hc        1 MX7      0.027367
    118 H72        24.8730  -23.1430   -5.5590 hc        1 MX7      0.027367
    119 H73        23.5450  -24.0740   -4.7530 hc        1 MX7      0.027367
@<TRIPOS>BOND
     1    1    2 1   
     2    1   49 1   
     3    1   50 1   
     4    1   51 1   
     5    2    3 1   
     6    2   52 1   
     7    2   53 1   
     8    3    4 1   
     9    3   54 1   
    10    3   55 1   
    11    4    5 1   
    12    4   56 1   
    13    4   57 1   
    14    5    6 1   
    15    5   58 1   
    16    5   59 1   
    17    6    7 1   
    18    6   60 1   
    19    6   61 1   
    20    7    8 1   
    21    7   62 1   
    22    7   63 1   
    23    8    9 1   
    24    8   64 1   
    25    8   65 1   
    26    9   10 2   
    27    9   66 1   
    28   10   11 1   
    29   10   67 1   
    30   11   12 1   
    31   11   68 1   
    32   11   69 1   
    33   12   13 1   
    34   12   70 1   
    35   12   71 1   
    36   13   14 1   
    37   13   72 1   
    38   13   73 1   
    39   14   15 1   
    40   14   74 1   
    41   14   75 1   
    42   15   16 1   
    43   15   76 1   
    44   15   77 1   
    45   16   17 1   
    46   16   78 1   
    47   16   79 1   
    48   17   18 1   
    49   17   80 1   
    50   17   81 1   
    51   18   19 2   
    52   18   20 1   
    53   20   21 1   
    54   21   22 1   
    55   21   28 1   
    56   21   82 1   
    57   22   23 1   
    58   22   83 1   
    59   22   84 1   
    60   23   24 1   
    61   24   25 1   
    62   24   26 1   
    63   24   27 1   
    64   28   29 1   
    65   28   85 1   
    66   28   86 1   
    67   29   30 1   
    68   30   31 2   
    69   30   32 1   
    70   32   33 1   
    71   32   87 1   
    72   32   88 1   
    73   33   34 1   
    74   33   89 1   
    75   33   90 1   
    76   34   35 1   
    77   34   91 1   
    78   34   92 1   
    79   35   36 1   
    80   35   93 1   
    81   35   94 1   
    82   36   37 1   
    83   36   95 1   
    84   36   96 1   
    85   37   38 1   
    86   37   97 1   
    87   37   98 1   
    88   38   39 1   
    89   38   99 1   
    90   38  100 1   
    91   39   40 2   
    92   39  101 1   
    93   40   41 1   
    94   40  102 1   
    95   41   42 1   
    96   41  103 1   
    97   41  104 1   
    98   42   43 1   
    99   42  105 1   
   100   42  106 1   
   101   43   44 1   
   102   43  107 1   
   103   43  108 1   
   104   44   45 1   
   105   44  109 1   
   106   44  110 1   
   107   45   46 1   
   108   45  111 1   
   109   45  112 1   
   110   46   47 1   
   111   46  113 1   
   112   46  114 1   
   113   47   48 1   
   114   47  115 1   
   115   47  116 1   
   116   48  117 1   
   117   48  118 1   
   118   48  119 1   
@<TRIPOS>SUBSTRUCTURE
     1 MX7         1 TEMP              0 ****  ****    0 ROOT
