@<TRIPOS>MOLECULE
MX7
  119   118     1     0     0
SMALL
bcc


@<TRIPOS>ATOM
      1 C2I         2.3110    1.5320   -0.5110 c3        1 MX7     -0.091100
      2 C2H         3.6090    0.7750   -0.6210 c3        1 MX7     -0.081400
      3 C2G         4.0320    0.2000    0.7150 c3        1 MX7     -0.078400
      4 C2F         5.3370   -0.5590    0.6000 c3        1 MX7     -0.080400
      5 C2E         5.7590   -1.1330    1.9350 c3        1 MX7     -0.078400
      6 C2D         7.0630   -1.8920    1.8190 c3        1 MX7     -0.080400
      7 C2C         7.4850   -2.4670    3.1540 c3        1 MX7     -0.075400
      8 C2B         8.7910   -3.2260    3.0340 c3        1 MX7     -0.047200
      9 C2A         9.2280   -3.8000    4.3280 c2        1 MX7     -0.190200
     10 C29        10.3490   -4.5140    4.4800 c2        1 MX7     -0.159200
     11 C28        11.2890   -4.8180    3.3760 c3        1 MX7     -0.053200
     12 C27        12.4750   -5.6410    3.8360 c3        1 MX7     -0.077400
     13 C26        13.4160   -5.9320    2.6870 c3        1 MX7     -0.080400
     14 C25        14.6010   -6.7570    3.1420 c3        1 MX7     -0.077400
     15 C24        15.5440   -7.0450    1.9920 c3        1 MX7     -0.080400
     16 C23        16.7250   -7.8760    2.4460 c3        1 MX7     -0.074400
     17 C22        17.6690   -8.1460    1.2970 c3        1 MX7     -0.140400
     18 C21        18.7730   -9.0840    1.6970 c         1 MX7      0.651100
     19 O22        18.7690   -9.8790    2.6450 o         1 MX7     -0.594000
     20 O21        19.8530   -8.9570    0.8940 os        1 MX7     -0.403900
     21 C2         20.8600   -9.9920    0.9330 c3        1 MX7      0.088100
     22 C1         20.3840  -11.2240    0.1230 c3        1 MX7      0.192400
     23 O11        19.9160  -10.8850   -1.1190 os        1 MX7     -0.565200
     24 P          20.8770  -11.3790   -2.4650 p5        1 MX7      1.340900
     25 O13        19.8750  -11.5220   -3.5750 o         1 MX7     -0.921500
     26 O12        21.7830  -10.1740   -2.5850 o         1 MX7     -0.921500
     27 O14        21.5180  -12.6460   -1.9730 o         1 MX7     -0.921500
     28 C3         22.1220   -9.4020    0.3050 c3        1 MX7      0.066400
     29 O31        22.3020   -8.0210    0.6240 os        1 MX7     -0.434900
     30 C31        21.8750   -7.0740   -0.2700 c         1 MX7      0.661100
     31 O32        22.1770   -5.9310    0.1140 o         1 MX7     -0.608000
     32 C32        21.1360   -7.4460   -1.5080 c3        1 MX7     -0.214400
     33 C33        20.6660   -6.2310   -2.2750 c3        1 MX7     -0.052400
     34 C34        19.6190   -6.5840   -3.3090 c3        1 MX7     -0.066400
     35 C35        20.1690   -7.4230   -4.4440 c3        1 MX7     -0.099400
     36 C36        19.1080   -7.6470   -5.5020 c3        1 MX7     -0.064400
     37 C37        19.5850   -8.5440   -6.6270 c3        1 MX7     -0.059400
     38 C38        19.1700   -9.9870   -6.4200 c3        1 MX7     -0.086200
     39 C39        19.5540  -10.8390   -7.5700 c2        1 MX7     -0.167200
     40 C3A        19.6810  -12.1700   -7.5400 c2        1 MX7     -0.166200
     41 C3B        19.4760  -13.0220   -6.3460 c3        1 MX7     -0.092200
     42 C3C        20.6370  -13.9760   -6.1320 c3        1 MX7     -0.045400
     43 C3D        20.6570  -14.4660   -4.7000 c3        1 MX7     -0.107400
     44 C3E        21.8420  -15.3690   -4.4360 c3        1 MX7     -0.049400
     45 C3F        21.9600  -15.6660   -2.9570 c3        1 MX7     -0.120400
     46 C3G        23.2000  -16.4750   -2.6490 c3        1 MX7     -0.061400
     47 C3H        23.3280  -16.7280   -1.1610 c3        1 MX7     -0.086400
     48 C3I        24.5810  -17.4970   -0.8290 c3        1 MX7     -0.085100
     49 H1          1.4920    0.8610   -0.1540 hc        1 MX7      0.030367
     50 H2          2.4080    2.3790    0.2090 hc        1 MX7      0.030367
     51 H3          2.0180    1.9460   -1.5060 hc        1 MX7      0.030367
     52 H4          3.5000   -0.0560   -1.3670 hc        1 MX7      0.039700
     53 H5          4.4130    1.4580   -1.0040 hc        1 MX7      0.039700
     54 H6          3.2310   -0.4850    1.0990 hc        1 MX7      0.037700
     55 H7          4.1440    1.0300    1.4620 hc        1 MX7      0.037700
     56 H8          5.2250   -1.3880   -0.1480 hc        1 MX7      0.041200
     57 H9          6.1380    0.1260    0.2150 hc        1 MX7      0.041200
     58 H10         5.8710   -0.3040    2.6820 hc        1 MX7      0.037200
     59 H11         4.9580   -1.8190    2.3200 hc        1 MX7      0.037200
     60 H12         6.9510   -2.7210    1.0710 hc        1 MX7      0.042200
     61 H13         7.8640   -1.2070    1.4340 hc        1 MX7      0.042200
     62 H14         6.6850   -3.1530    3.5390 hc        1 MX7      0.037700
     63 H15         7.5990   -1.6380    3.9020 hc        1 MX7      0.037700
     64 H16         9.5900   -2.5390    2.6410 hc        1 MX7      0.049200
     65 H17         8.6780   -4.0510    2.2780 hc        1 MX7      0.049200
     66 H18         8.5690   -3.6080    5.1900 ha        1 MX7      0.114000
     67 H19        10.6220   -4.9170    5.4700 ha        1 MX7      0.121000
     68 H20        10.7420   -5.3690    2.5620 hc        1 MX7      0.049200
     69 H21        11.6540   -3.8550    2.9220 hc        1 MX7      0.049200
     70 H22        13.0250   -5.0910    4.6430 hc        1 MX7      0.039200
     71 H23        12.1140   -6.6060    4.2790 hc        1 MX7      0.039200
     72 H24        12.8660   -6.4810    1.8780 hc        1 MX7      0.039700
     73 H25        13.7790   -4.9670    2.2430 hc        1 MX7      0.039700
     74 H26        14.2410   -7.7240    3.5820 hc        1 MX7      0.037200
     75 H27        15.1520   -6.2100    3.9520 hc        1 MX7      0.037200
     76 H28        15.9100   -6.0790    1.5540 hc        1 MX7      0.040700
     77 H29        14.9930   -7.5880    1.1800 hc        1 MX7      0.040700
     78 H30        16.3690   -8.8520    2.8720 hc        1 MX7      0.048700
     79 H31        17.2730   -7.3420    3.2660 hc        1 MX7      0.048700
     80 H32        17.1270   -8.6280    0.4400 hc        1 MX7      0.081200
     81 H33        18.1170   -7.1900    0.9170 hc        1 MX7      0.081200
     82 H34        21.0350  -10.2750    2.0060 h1        1 MX7      0.031700
     83 H35        21.2450  -11.9490    0.0550 h1        1 MX7      0.021700
     84 H36        19.5460  -11.6860    0.7240 h1        1 MX7      0.021700
     85 H39        23.0170   -9.8950    0.7720 h1        1 MX7      0.115700
     86 H40        22.1110   -9.6040   -0.8210 h1        1 MX7      0.115700
     87 H41        21.7860   -8.1050   -2.1690 hc        1 MX7      0.151700
     88 H42        20.2700   -8.1100   -1.2190 hc        1 MX7      0.151700
     89 H43        21.5430   -5.7420   -2.7740 hc        1 MX7      0.022200
     90 H44        20.2360   -5.4780   -1.5610 hc        1 MX7      0.022200
     91 H45        18.7810   -7.1450   -2.8140 hc        1 MX7      0.019700
     92 H46        19.1860   -5.6330   -3.7220 hc        1 MX7      0.019700
     93 H47        20.5300   -8.4140   -4.0430 hc        1 MX7      0.076200
     94 H48        21.0530   -6.9060   -4.9010 hc        1 MX7      0.076200
     95 H49        18.7980   -6.6540   -5.9280 hc        1 MX7      0.017700
     96 H50        18.2000   -8.0950   -5.0190 hc        1 MX7      0.017700
     97 H51        20.7020   -8.4900   -6.7120 hc        1 MX7      0.013700
     98 H52        19.1630   -8.1680   -7.5990 hc        1 MX7      0.013700
     99 H53        18.0540  -10.0410   -6.2910 hc        1 MX7      0.100700
    100 H54        19.6180  -10.3800   -5.4510 hc        1 MX7      0.100700
    101 H55        19.7430  -10.2990   -8.5150 ha        1 MX7      0.074000
    102 H56        19.9770  -12.7100   -8.4550 ha        1 MX7      0.072000
    103 H57        18.5270  -13.6090   -6.4760 hc        1 MX7      0.091200
    104 H58        19.3590  -12.3890   -5.4100 hc        1 MX7      0.091200
    105 H59        21.6010  -13.4450   -6.3510 hc        1 MX7      0.004200
    106 H60        20.5670  -14.8410   -6.8440 hc        1 MX7      0.004200
    107 H61        19.7070  -15.0150   -4.4760 hc        1 MX7      0.086200
    108 H62        20.6930  -13.5690   -3.9950 hc        1 MX7      0.086200
    109 H63        22.7810  -14.8650   -4.7870 hc        1 MX7      0.001200
    110 H64        21.7440  -16.3240   -5.0190 hc        1 MX7      0.001200
    111 H65        21.0520  -16.2280   -2.6130 hc        1 MX7      0.091700
    112 H66        21.9770  -14.6800   -2.3930 hc        1 MX7      0.091700
    113 H67        24.1060  -15.9200   -3.0100 hc        1 MX7      0.013200
    114 H68        23.1730  -17.4550   -3.1960 hc        1 MX7      0.013200
    115 H69        22.4310  -17.2970   -0.8010 hc        1 MX7      0.049200
    116 H70        23.3310  -15.7420   -0.6240 hc        1 MX7      0.049200
    117 H71        24.5880  -18.4880   -1.3470 hc        1 MX7      0.014700
    118 H72        25.4870  -16.9300   -1.1520 hc        1 MX7      0.014700
    119 H73        24.6520  -17.6760    0.2710 hc        1 MX7      0.014700
@<TRIPOS>BOND
     1    1    2 1   
     2    1   49 1   
     3    1   50 1   
     4    1   51 1   
     5    2    3 1   
     6    2   52 1   
     7    2   53 1   
     8    3    4 1   
     9    3   54 1   
    10    3   55 1   
    11    4    5 1   
    12    4   56 1   
    13    4   57 1   
    14    5    6 1   
    15    5   58 1   
    16    5   59 1   
    17    6    7 1   
    18    6   60 1   
    19    6   61 1   
    20    7    8 1   
    21    7   62 1   
    22    7   63 1   
    23    8    9 1   
    24    8   64 1   
    25    8   65 1   
    26    9   10 2   
    27    9   66 1   
    28   10   11 1   
    29   10   67 1   
    30   11   12 1   
    31   11   68 1   
    32   11   69 1   
    33   12   13 1   
    34   12   70 1   
    35   12   71 1   
    36   13   14 1   
    37   13   72 1   
    38   13   73 1   
    39   14   15 1   
    40   14   74 1   
    41   14   75 1   
    42   15   16 1   
    43   15   76 1   
    44   15   77 1   
    45   16   17 1   
    46   16   78 1   
    47   16   79 1   
    48   17   18 1   
    49   17   80 1   
    50   17   81 1   
    51   18   19 2   
    52   18   20 1   
    53   20   21 1   
    54   21   22 1   
    55   21   28 1   
    56   21   82 1   
    57   22   23 1   
    58   22   83 1   
    59   22   84 1   
    60   23   24 1   
    61   24   25 1   
    62   24   26 1   
    63   24   27 1   
    64   28   29 1   
    65   28   85 1   
    66   28   86 1   
    67   29   30 1   
    68   30   31 2   
    69   30   32 1   
    70   32   33 1   
    71   32   87 1   
    72   32   88 1   
    73   33   34 1   
    74   33   89 1   
    75   33   90 1   
    76   34   35 1   
    77   34   91 1   
    78   34   92 1   
    79   35   36 1   
    80   35   93 1   
    81   35   94 1   
    82   36   37 1   
    83   36   95 1   
    84   36   96 1   
    85   37   38 1   
    86   37   97 1   
    87   37   98 1   
    88   38   39 1   
    89   38   99 1   
    90   38  100 1   
    91   39   40 2   
    92   39  101 1   
    93   40   41 1   
    94   40  102 1   
    95   41   42 1   
    96   41  103 1   
    97   41  104 1   
    98   42   43 1   
    99   42  105 1   
   100   42  106 1   
   101   43   44 1   
   102   43  107 1   
   103   43  108 1   
   104   44   45 1   
   105   44  109 1   
   106   44  110 1   
   107   45   46 1   
   108   45  111 1   
   109   45  112 1   
   110   46   47 1   
   111   46  113 1   
   112   46  114 1   
   113   47   48 1   
   114   47  115 1   
   115   47  116 1   
   116   48  117 1   
   117   48  118 1   
   118   48  119 1   
@<TRIPOS>SUBSTRUCTURE
     1 MX7         1 TEMP              0 ****  ****    0 ROOT
