@<TRIPOS>MOLECULE
MXA
   43    45     1     0     0
SMALL
bcc


@<TRIPOS>ATOM
      1 N1         -1.1130   -0.5850   -4.0740 nb        1 MXA     -0.764000
      2 C2         -0.0070   -0.6560   -4.8740 ca        1 MXA      0.911900
      3 N2         -0.1980   -0.9120   -6.2360 nh        1 MXA     -0.923500
      4 N3          1.3140   -0.4870   -4.4460 nb        1 MXA     -0.833000
      5 C4          1.5010   -0.0360   -3.1870 ca        1 MXA      0.735200
      6 N4          2.8150    0.0920   -2.7520 nh        1 MXA     -0.946500
      7 C4A         0.3830    0.3010   -2.3120 ca        1 MXA     -0.380600
      8 C5          0.4580    0.9890   -1.0640 ca        1 MXA      0.029700
      9 C5M         1.6810    1.7230   -0.6540 c3        1 MXA     -0.074800
     10 C6         -0.6690    1.0160   -0.2570 ca        1 MXA     -0.239600
     11 C7         -1.8710    0.4110   -0.7520 ca        1 MXA      0.459200
     12 N8         -2.0280   -0.1060   -1.9510 nb        1 MXA     -0.662000
     13 C8A        -0.9130   -0.1310   -2.7890 ca        1 MXA      0.713300
     14 C9         -0.7520    1.6470    1.0910 c3        1 MXA      0.024200
     15 C1'        -0.3900    0.6990    2.1850 ca        1 MXA     -0.065300
     16 C2'        -1.3770   -0.0900    2.8210 ca        1 MXA      0.097100
     17 O2'        -2.6680    0.0810    2.3490 os        1 MXA     -0.333900
     18 C21        -3.6790   -0.6920    2.9850 c3        1 MXA      0.113700
     19 C3'        -1.0370   -0.9660    3.8550 ca        1 MXA     -0.166000
     20 C4'         0.2900   -1.0730    4.2720 ca        1 MXA     -0.169000
     21 C5'         1.2690   -0.2950    3.6510 ca        1 MXA      0.094100
     22 O5'         2.6150   -0.3160    3.9740 os        1 MXA     -0.329900
     23 C51         2.9840   -1.1700    5.0490 c3        1 MXA      0.113700
     24 C6'         0.9300    0.5910    2.6110 ca        1 MXA     -0.127000
     25 HN21        0.5900   -1.2460   -6.7410 hn        1 MXA      0.426800
     26 HN22       -1.0790   -1.2920   -6.4950 hn        1 MXA      0.426800
     27 HN41        3.5310   -0.2640   -3.3450 hn        1 MXA      0.423800
     28 HN42        2.9650   -0.0250   -1.7780 hn        1 MXA      0.423800
     29 H5M1        2.3880    1.0460   -0.1110 hc        1 MXA      0.055367
     30 H5M2        2.1960    2.1800   -1.5360 hc        1 MXA      0.055367
     31 H5M3        1.4360    2.5670    0.0390 hc        1 MXA      0.055367
     32 H7         -2.7610    0.3780   -0.0880 h4        1 MXA      0.037100
     33 H91        -1.8070    2.0060    1.2610 hc        1 MXA      0.063200
     34 H92        -0.0950    2.5550    1.1540 hc        1 MXA      0.063200
     35 H211       -4.6130   -0.3890    2.4480 h1        1 MXA      0.045367
     36 H212       -3.4850   -1.7840    2.8500 h1        1 MXA      0.045367
     37 H213       -3.7470   -0.4370    4.0710 h1        1 MXA      0.045367
     38 H3'        -1.8020   -1.5810    4.3500 ha        1 MXA      0.139000
     39 H4'         0.5450   -1.7670    5.0850 ha        1 MXA      0.139000
     40 H511        4.0880   -1.0100    5.1430 h1        1 MXA      0.043367
     41 H512        2.4620   -0.8710    5.9910 h1        1 MXA      0.043367
     42 H513        2.7600   -2.2360    4.8000 h1        1 MXA      0.043367
     43 H6'         1.7200    1.1950    2.1390 ha        1 MXA      0.148000
@<TRIPOS>BOND
     1    1    2 ar  
     2    1   13 ar  
     3    2    3 1   
     4    2    4 ar  
     5    3   25 1   
     6    3   26 1   
     7    4    5 ar  
     8    5    6 1   
     9    5    7 ar  
    10    6   27 1   
    11    6   28 1   
    12    7    8 ar  
    13    7   13 ar  
    14    8    9 1   
    15    8   10 ar  
    16    9   29 1   
    17    9   30 1   
    18    9   31 1   
    19   10   11 ar  
    20   10   14 1   
    21   11   12 ar  
    22   11   32 1   
    23   12   13 ar  
    24   14   15 1   
    25   14   33 1   
    26   14   34 1   
    27   15   16 ar  
    28   15   24 ar  
    29   16   17 1   
    30   16   19 ar  
    31   17   18 1   
    32   18   35 1   
    33   18   36 1   
    34   18   37 1   
    35   19   20 ar  
    36   19   38 1   
    37   20   21 ar  
    38   20   39 1   
    39   21   22 1   
    40   21   24 ar  
    41   22   23 1   
    42   23   40 1   
    43   23   41 1   
    44   23   42 1   
    45   24   43 1   
@<TRIPOS>SUBSTRUCTURE
     1 MXA         1 TEMP              0 ****  ****    0 ROOT
