@<TRIPOS>MOLECULE
MXA
   43    45     1     0     0
SMALL
bcc


@<TRIPOS>ATOM
      1 N1          0.0110    0.1960   -0.0900 nb        1 MXA     -0.764000
      2 C2          1.3700    0.3330   -0.0770 ca        1 MXA      0.911900
      3 N2          2.0000    0.7440   -1.2580 nv        1 MXA     -0.923500
      4 N3          2.1970    0.1030    1.0270 nb        1 MXA     -0.833000
      5 C4          1.5930   -0.0890    2.2200 ca        1 MXA      0.735200
      6 N4          2.4170   -0.3580    3.3070 nv        1 MXA     -0.946500
      7 C4A         0.1440   -0.0230    2.3720 ca        1 MXA     -0.380600
      8 C5         -0.5810    0.0160    3.6010 ca        1 MXA      0.029700
      9 C5M         0.0930    0.3070    4.8910 c3        1 MXA     -0.074800
     10 C6         -1.9560   -0.1600    3.5620 ca        1 MXA     -0.239600
     11 C7         -2.5840   -0.3010    2.2810 ca        1 MXA      0.459200
     12 N8         -1.9790   -0.1990    1.1180 nb        1 MXA     -0.662000
     13 C8A        -0.5970   -0.0060    1.1290 ca        1 MXA      0.713300
     14 C9         -2.8570   -0.1930    4.7480 c3        1 MXA      0.024200
     15 C1'        -3.0220   -1.5720    5.2970 ca        1 MXA     -0.065300
     16 C2'        -4.0700   -2.4120    4.8500 ca        1 MXA      0.097100
     17 O2'        -4.8970   -1.8650    3.8830 os        1 MXA     -0.333900
     18 C21        -5.9650   -2.6880    3.4310 c3        1 MXA      0.113700
     19 C3'        -4.2310   -3.6960    5.3760 ca        1 MXA     -0.166000
     20 C4'        -3.3530   -4.1660    6.3540 ca        1 MXA     -0.169000
     21 C5'        -2.3190   -3.3410    6.8010 ca        1 MXA      0.094100
     22 O5'        -1.3870   -3.6960    7.7610 os        1 MXA     -0.329900
     23 C51        -1.5500   -4.9840    8.3410 c3        1 MXA      0.113700
     24 C6'        -2.1550   -2.0460    6.2760 ca        1 MXA     -0.127000
     25 HN21        2.9740    0.5610   -1.3290 hn        1 MXA      0.426800
     26 HN22        1.4720    0.6490   -2.0950 hn        1 MXA      0.426800
     27 HN41        3.3830   -0.5090    3.1250 hn        1 MXA      0.423800
     28 HN42        2.0210   -0.9180    4.0250 hn        1 MXA      0.423800
     29 H5M1       -0.6130    0.7770    5.6210 hc        1 MXA      0.055367
     30 H5M2        0.9350    1.0320    4.7560 hc        1 MXA      0.055367
     31 H5M3        0.4740   -0.6350    5.3610 hc        1 MXA      0.055367
     32 H7         -3.6760   -0.5000    2.2440 h4        1 MXA      0.037100
     33 H91        -3.8700    0.1990    4.4480 hc        1 MXA      0.063200
     34 H92        -2.4820    0.4870    5.5600 hc        1 MXA      0.063200
     35 H211       -6.4830   -2.0470    2.6730 h1        1 MXA      0.045367
     36 H212       -5.5730   -3.6190    2.9550 h1        1 MXA      0.045367
     37 H213       -6.6560   -2.9380    4.2730 h1        1 MXA      0.045367
     38 H3'        -5.0430   -4.3510    5.0300 ha        1 MXA      0.139000
     39 H4'        -3.4890   -5.1790    6.7570 ha        1 MXA      0.139000
     40 H511       -1.4420   -5.7820    7.5670 h1        1 MXA      0.043367
     41 H512       -0.7170   -5.0420    9.0860 h1        1 MXA      0.043367
     42 H513       -2.5410   -5.0660    8.8510 h1        1 MXA      0.043367
     43 H6'        -1.3340   -1.4140    6.6470 ha        1 MXA      0.148000
@<TRIPOS>BOND
     1    1    2 ar  
     2    1   13 ar  
     3    2    3 1   
     4    2    4 ar  
     5    3   25 1   
     6    3   26 1   
     7    4    5 ar  
     8    5    6 1   
     9    5    7 ar  
    10    6   27 1   
    11    6   28 1   
    12    7    8 ar  
    13    7   13 ar  
    14    8    9 1   
    15    8   10 ar  
    16    9   29 1   
    17    9   30 1   
    18    9   31 1   
    19   10   11 ar  
    20   10   14 1   
    21   11   12 ar  
    22   11   32 1   
    23   12   13 ar  
    24   14   15 1   
    25   14   33 1   
    26   14   34 1   
    27   15   16 ar  
    28   15   24 ar  
    29   16   17 1   
    30   16   19 ar  
    31   17   18 1   
    32   18   35 1   
    33   18   36 1   
    34   18   37 1   
    35   19   20 ar  
    36   19   38 1   
    37   20   21 ar  
    38   20   39 1   
    39   21   22 1   
    40   21   24 ar  
    41   22   23 1   
    42   23   40 1   
    43   23   41 1   
    44   23   42 1   
    45   24   43 1   
@<TRIPOS>SUBSTRUCTURE
     1 MXA         1 TEMP              0 ****  ****    0 ROOT
