@<TRIPOS>MOLECULE
MXA
   45    47     1     0     0
SMALL
bcc


@<TRIPOS>ATOM
      1 N1          0.1800   -0.4690   -0.0580 nb        1 MXA     -0.560000
      2 C2          1.4590   -0.0480   -0.1260 ca        1 MXA      0.715900
      3 N2          2.1200   -0.1380   -1.4610 n4        1 MXA     -0.811300
      4 N3          2.2210    0.4780    0.9000 nb        1 MXA     -0.690000
      5 C4          1.6240    0.5200    2.1070 ca        1 MXA      0.553200
      6 N4          2.4340    1.1510    3.1730 n4        1 MXA     -0.834300
      7 C4A         0.3000    0.0380    2.3720 ca        1 MXA     -0.223600
      8 C5         -0.3720   -0.0330    3.6330 ca        1 MXA     -0.084300
      9 C5M         0.3480    0.1670    4.9150 c3        1 MXA     -0.101800
     10 C6         -1.7230   -0.3580    3.6480 ca        1 MXA     -0.053600
     11 C7         -2.3610   -0.7370    2.4040 ca        1 MXA      0.492200
     12 N8         -1.7600   -0.7920    1.2360 nb        1 MXA     -0.591000
     13 C8A        -0.4260   -0.4110    1.1790 ca        1 MXA      0.678300
     14 C9         -2.5980   -0.3560    4.8540 c3        1 MXA     -0.007800
     15 C1'        -2.9360   -1.7370    5.3030 ca        1 MXA     -0.122300
     16 C2'        -4.1210   -2.3650    4.8670 ca        1 MXA      0.096100
     17 O2'        -4.8720   -1.6620    3.9400 os        1 MXA     -0.375900
     18 C21        -6.2410   -2.0550    3.8150 c3        1 MXA      0.112700
     19 C3'        -4.4710   -3.6370    5.3390 ca        1 MXA     -0.139000
     20 C4'        -3.6430   -4.2990    6.2380 ca        1 MXA     -0.141000
     21 C5'        -2.4590   -3.6840    6.6700 ca        1 MXA      0.119100
     22 O5'        -1.5510   -4.2490    7.5380 os        1 MXA     -0.328900
     23 C51        -1.9500   -5.4670    8.1670 c3        1 MXA      0.107700
     24 C6'        -2.1100   -2.4030    6.2080 ca        1 MXA     -0.137000
     25 HN21        2.9280   -0.7750   -1.3990 hn        1 MXA      0.497467
     26 HN22        2.4390    0.7970   -1.7520 hn        1 MXA      0.497467
     27 HN41        1.8340    1.8030    3.7010 hn        1 MXA      0.491467
     28 HN42        2.7850    0.4190    3.8100 hn        1 MXA      0.491467
     29 H5M1        0.4990    1.2510    5.1460 hc        1 MXA      0.074700
     30 H5M2       -0.2420   -0.2580    5.7740 hc        1 MXA      0.074700
     31 H5M3        1.3150   -0.3940    4.9340 hc        1 MXA      0.074700
     32 H7         -3.4410   -1.0360    2.4200 h4        1 MXA      0.118100
     33 H91        -3.5570    0.1830    4.5850 hc        1 MXA      0.097200
     34 H92        -2.1340    0.2200    5.6990 hc        1 MXA      0.097200
     35 H211       -6.7320   -2.1120    4.8160 h1        1 MXA      0.060367
     36 H212       -6.6910   -1.2370    3.1970 h1        1 MXA      0.060367
     37 H213       -6.3070   -3.0350    3.2830 h1        1 MXA      0.060367
     38 H3'        -5.4040   -4.1190    5.0060 ha        1 MXA      0.162000
     39 H4'        -3.9270   -5.2970    6.6060 ha        1 MXA      0.164000
     40 H511       -2.9080   -5.3290    8.7240 h1        1 MXA      0.058700
     41 H512       -2.0440   -6.2820    7.4090 h1        1 MXA      0.058700
     42 H513       -1.1070   -5.6770    8.8730 h1        1 MXA      0.058700
     43 H6'        -1.1930   -1.9360    6.5930 ha        1 MXA      0.137000
     44 H23         1.4490   -0.5030   -2.1590 hn        1 MXA      0.497467
     45 H43         3.2390    1.6690    2.7830 hn        1 MXA      0.491467
@<TRIPOS>BOND
     1    1    2 ar  
     2    1   13 ar  
     3    2    3 1   
     4    2    4 ar  
     5    3   25 1   
     6    3   26 1   
     7    3   44 1   
     8    4    5 ar  
     9    5    6 1   
    10    5    7 ar  
    11    6   27 1   
    12    6   28 1   
    13    6   45 1   
    14    7    8 ar  
    15    7   13 ar  
    16    8    9 1   
    17    8   10 ar  
    18    9   29 1   
    19    9   30 1   
    20    9   31 1   
    21   10   11 ar  
    22   10   14 1   
    23   11   12 ar  
    24   11   32 1   
    25   12   13 ar  
    26   14   15 1   
    27   14   33 1   
    28   14   34 1   
    29   15   16 ar  
    30   15   24 ar  
    31   16   17 1   
    32   16   19 ar  
    33   17   18 1   
    34   18   35 1   
    35   18   36 1   
    36   18   37 1   
    37   19   20 ar  
    38   19   38 1   
    39   20   21 ar  
    40   20   39 1   
    41   21   22 1   
    42   21   24 ar  
    43   22   23 1   
    44   23   40 1   
    45   23   41 1   
    46   23   42 1   
    47   24   43 1   
@<TRIPOS>SUBSTRUCTURE
     1 MXA         1 TEMP              0 ****  ****    0 ROOT
