@<TRIPOS>MOLECULE
MXA
   43    45     1     0     0
SMALL
bcc


@<TRIPOS>ATOM
      1 N1         -0.0010    0.1840   -0.0860 nb        1 MXA     -0.766000
      2 C2          1.3630    0.2700   -0.0890 ca        1 MXA      0.917900
      3 N2          2.0030    0.4440   -1.3190 nh        1 MXA     -0.935500
      4 N3          2.1910    0.1010    1.0260 nb        1 MXA     -0.833000
      5 C4          1.5910   -0.0770    2.2220 ca        1 MXA      0.733200
      6 N4          2.4260   -0.2990    3.3130 nh        1 MXA     -0.943500
      7 C4A         0.1410   -0.0250    2.3780 ca        1 MXA     -0.379600
      8 C5         -0.5810    0.0120    3.6090 ca        1 MXA      0.030700
      9 C5M         0.0950    0.2860    4.9020 c3        1 MXA     -0.074800
     10 C6         -1.9580   -0.1520    3.5720 ca        1 MXA     -0.240600
     11 C7         -2.5920   -0.2780    2.2930 ca        1 MXA      0.459200
     12 N8         -1.9880   -0.1780    1.1290 nb        1 MXA     -0.662000
     13 C8A        -0.6030   -0.0070    1.1370 ca        1 MXA      0.714300
     14 C9         -2.8570   -0.1900    4.7600 c3        1 MXA      0.024200
     15 C1'        -3.0230   -1.5700    5.3040 ca        1 MXA     -0.066300
     16 C2'        -4.0700   -2.4080    4.8530 ca        1 MXA      0.098100
     17 O2'        -4.8980   -1.8560    3.8890 os        1 MXA     -0.333900
     18 C21        -5.9520   -2.6860    3.4150 c3        1 MXA      0.113700
     19 C3'        -4.2320   -3.6950    5.3720 ca        1 MXA     -0.166000
     20 C4'        -3.3550   -4.1690    6.3490 ca        1 MXA     -0.169000
     21 C5'        -2.3220   -3.3460    6.8010 ca        1 MXA      0.094100
     22 O5'        -1.3910   -3.7050    7.7610 os        1 MXA     -0.329900
     23 C51        -1.5480   -5.0000    8.3270 c3        1 MXA      0.113700
     24 C6'        -2.1570   -2.0490    6.2820 ca        1 MXA     -0.127000
     25 HN21        1.4440    0.7510   -2.0790 hn        1 MXA      0.432300
     26 HN22        2.9490    0.7410   -1.3010 hn        1 MXA      0.432300
     27 HN41        3.3940   -0.4410    3.1210 hn        1 MXA      0.421300
     28 HN42        2.0500   -0.8730    4.0320 hn        1 MXA      0.421300
     29 H5M1        0.4950   -0.6590    5.3490 hc        1 MXA      0.055033
     30 H5M2        0.9220    1.0290    4.7780 hc        1 MXA      0.055033
     31 H5M3       -0.6130    0.7260    5.6480 hc        1 MXA      0.055033
     32 H7         -3.6860   -0.4630    2.2580 h4        1 MXA      0.037100
     33 H91        -3.8710    0.2030    4.4620 hc        1 MXA      0.063200
     34 H92        -2.4830    0.4870    5.5740 hc        1 MXA      0.063200
     35 H211       -6.4660   -2.0430    2.6550 h1        1 MXA      0.045367
     36 H212       -6.6520   -2.9490    4.2460 h1        1 MXA      0.045367
     37 H213       -5.5450   -3.6100    2.9380 h1        1 MXA      0.045367
     38 H3'        -5.0440   -4.3480    5.0230 ha        1 MXA      0.139000
     39 H4'        -3.4920   -5.1840    6.7480 ha        1 MXA      0.139000
     40 H511       -0.7130   -5.0620    9.0700 h1        1 MXA      0.043700
     41 H512       -1.4370   -5.7890    7.5440 h1        1 MXA      0.043700
     42 H513       -2.5370   -5.0920    8.8370 h1        1 MXA      0.043700
     43 H6'        -1.3350   -1.4190    6.6550 ha        1 MXA      0.148000
@<TRIPOS>BOND
     1    1    2 ar  
     2    1   13 ar  
     3    2    3 1   
     4    2    4 ar  
     5    3   25 1   
     6    3   26 1   
     7    4    5 ar  
     8    5    6 1   
     9    5    7 ar  
    10    6   27 1   
    11    6   28 1   
    12    7    8 ar  
    13    7   13 ar  
    14    8    9 1   
    15    8   10 ar  
    16    9   29 1   
    17    9   30 1   
    18    9   31 1   
    19   10   11 ar  
    20   10   14 1   
    21   11   12 ar  
    22   11   32 1   
    23   12   13 ar  
    24   14   15 1   
    25   14   33 1   
    26   14   34 1   
    27   15   16 ar  
    28   15   24 ar  
    29   16   17 1   
    30   16   19 ar  
    31   17   18 1   
    32   18   35 1   
    33   18   36 1   
    34   18   37 1   
    35   19   20 ar  
    36   19   38 1   
    37   20   21 ar  
    38   20   39 1   
    39   21   22 1   
    40   21   24 ar  
    41   22   23 1   
    42   23   40 1   
    43   23   41 1   
    44   23   42 1   
    45   24   43 1   
@<TRIPOS>SUBSTRUCTURE
     1 MXA         1 TEMP              0 ****  ****    0 ROOT
