@<TRIPOS>MOLECULE
MXC
   49    45     1     0     0
SMALL
bcc


@<TRIPOS>ATOM
      1 C1          0.1420    1.6260    0.3920 c1        1 MXC     -0.257000
      2 C2          0.9980    1.2800   -0.3740 c1        1 MXC      0.038000
      3 C3          1.9760    0.8310   -1.2740 c2        1 MXC     -0.056000
      4 C4          3.2470    0.7280   -0.9760 c1        1 MXC     -0.040000
      5 C5          4.5200    0.6050   -0.7350 c2        1 MXC     -0.193000
      6 C6          2.4830    0.0390    3.5380 c1        1 MXC      0.056000
      7 C7          1.4230   -1.9680    2.5440 c2        1 MXC     -0.148000
      8 C8          0.1420   -1.6430    2.3330 c2        1 MXC     -0.182000
      9 C9         -0.8770    2.0320    1.3100 c2        1 MXC      0.462000
     10 C10         5.1380   -0.6120   -0.1690 c2        1 MXC      0.260000
     11 C11         1.1330    0.6000    5.4650 c2        1 MXC      0.101000
     12 C12         1.2270   -2.8170    8.1430 c1        1 MXC      0.440000
     13 C13         0.2370    1.5170    6.1820 c2        1 MXC     -0.681000
     14 C14        -2.2720   -1.6040    9.0040 c3        1 MXC     -0.268000
     15 C15        -0.6390    0.9440    7.0370 c2        1 MXC      0.182000
     16 C16        -2.5270    2.3890    7.2060 c2        1 MXC      0.388000
     17 N1          2.4770   -1.0620    2.8350 n3        1 MXC     -0.134000
     18 N2         -1.9960    2.6220    0.8070 n         1 MXC     -0.380000
     19 N3          1.3620    0.6640    4.1820 n3        1 MXC     -0.086000
     20 N4         -2.9660    3.5350    8.0430 n4        1 MXC     -0.087000
     21 O1          4.6550   -1.2330    0.7830 o         1 MXC     -0.339000
     22 O2         -0.7590    1.8510    2.5580 o         1 MXC     -0.498000
     23 O3          1.5070   -3.7940    8.7440 o         1 MXC     -0.218500
     24 O4          0.9410   -1.8250    7.5320 o         1 MXC     -0.218500
     25 O7         -1.5320    1.6750    7.8300 os        1 MXC     -0.221000
     26 O8         -3.0460    2.0750    6.1520 o         1 MXC     -0.186000
     27 S1          0.4930    3.2220    5.9760 s4        1 MXC      1.668000
     28 H2          1.6100    0.5500   -2.2860 ha        1 MXC      0.195000
     29 H4          5.2280    1.4250   -0.9670 ha        1 MXC      0.192000
     30 H7          3.3760   -1.3000    2.4130 hn        1 MXC      0.333000
     31 H8         -0.2610   -0.6190    2.3490 ha        1 MXC      0.151500
     32 H10         6.0930   -0.9220   -0.6510 h4        1 MXC      0.143000
     33 H11         1.7830   -3.0170    2.4700 h4        1 MXC      0.188000
     34 H14        -2.3390   -1.8620   10.0840 hc        1 MXC      0.067250
     35 H14A       -1.2930   -1.9490    8.6010 hc        1 MXC      0.067250
     36 H14B       -3.0990   -2.1050    8.4550 hc        1 MXC      0.067250
     37 H15        -0.6960   -0.1320    7.3210 h4        1 MXC      0.230000
     38 H15A       -2.3540   -0.5010    8.8800 hc        1 MXC      0.067250
     39 HN2        -0.5930   -2.4300    2.0990 ha        1 MXC      0.151500
     40 HN2A       -2.1070    2.7640   -0.1680 hn        1 MXC      0.250500
     41 HN3         1.6350   -0.1910    6.0750 h4        1 MXC      0.218000
     42 HN4        -2.3540    4.3400    7.7960 hn        1 MXC      0.297000
     43 HN4A       -2.8640    3.3190    9.0420 hn        1 MXC      0.297000
     44 HO6        -0.5220    3.4810    3.9540 ho        1 MXC      0.300000
     45 O5         -0.7950    3.7920    6.4040 o         1 MXC     -0.892000
     46 O6          0.3630    3.3660    4.3230 oh        1 MXC     -0.592000
     47 H23        -2.7320    2.8870    1.4150 hn        1 MXC      0.250500
     48 H32         0.9090    1.3870    3.6020 hn        1 MXC      0.318000
     49 H43        -3.9440    3.7630    7.8210 hn        1 MXC      0.297000
@<TRIPOS>BOND
     1    1    2 1   
     2    1    9 1   
     3    2    3 1   
     4    3    4 1   
     5    3   28 1   
     6    4    5 1   
     7    5   10 1   
     8    5   29 1   
     9    6   17 1   
    10    6   19 1   
    11    7    8 1   
    12    7   17 1   
    13    7   33 1   
    14    8   31 1   
    15    8   39 1   
    16    9   18 1   
    17    9   22 1   
    18   10   21 1   
    19   10   32 1   
    20   11   13 1   
    21   11   19 1   
    22   11   41 1   
    23   12   23 1   
    24   12   24 1   
    25   13   15 1   
    26   13   27 1   
    27   14   34 1   
    28   14   35 1   
    29   14   36 1   
    30   14   38 1   
    31   15   25 1   
    32   15   37 1   
    33   16   20 1   
    34   16   25 1   
    35   16   26 1   
    36   17   30 1   
    37   18   40 1   
    38   18   47 1   
    39   19   48 1   
    40   20   42 1   
    41   20   43 1   
    42   20   49 1   
    43   27   45 1   
    44   27   46 1   
    45   44   46 1   
@<TRIPOS>SUBSTRUCTURE
     1 MXC         1 TEMP              0 ****  ****    0 ROOT
