@<TRIPOS>MOLECULE
MXC
   48    45     1     0     0
SMALL
bcc


@<TRIPOS>ATOM
      1 C1         -0.5820    1.1300    2.0820 c3        1 MXC     -0.094000
      2 C2          0.7650    1.3260    1.7030 c1        1 MXC      0.275000
      3 C3          1.9680    1.5140    1.2590 c2        1 MXC     -0.186000
      4 C4          3.0440    0.5670    1.2120 c1        1 MXC      0.165000
      5 C5          3.5730   -0.0490    2.4150 c3        1 MXC     -0.226000
      6 C6          2.5580    0.0180    3.5770 c2        1 MXC      0.071000
      7 C7          0.1610   -0.4980    3.8730 c2        1 MXC     -0.035000
      8 C8         -0.7440    0.3510    3.3520 c2        1 MXC     -0.157000
      9 C9         -1.4250    0.5160    0.9380 c2        1 MXC      0.312000
     10 C10         4.0790   -1.4560    2.1100 c2        1 MXC      0.233000
     11 C11         2.0150    1.0280    5.6920 cx        1 MXC     -0.017000
     12 C12         1.5000   -4.5160    4.8560 c1        1 MXC      0.452000
     13 C13         1.5830    2.4440    6.0460 cu        1 MXC     -0.712000
     14 C14        -0.0800   -1.5350    7.4580 c3        1 MXC     -0.276000
     15 C15         2.5190    1.8880    6.8050 cu        1 MXC      0.024000
     16 C16        -4.0910    3.0850    3.6920 c1        1 MXC      0.452000
     17 N1          1.4060   -0.7670    3.2690 n3        1 MXC     -0.333000
     18 N2         -2.7620    0.3920    1.1510 n         1 MXC     -0.399000
     19 N3          2.8440    0.8030    4.5620 n2        1 MXC     -0.191000
     20 N4         -3.2630    3.4490    6.1860 n3        1 MXC     -0.429000
     21 O1          3.7000   -2.4370    2.7370 o         1 MXC     -0.250000
     22 O2         -0.8690    0.1830   -0.1240 o         1 MXC     -0.346000
     23 O3          1.8760   -5.6290    5.0010 o         1 MXC     -0.226750
     24 O4          1.1170   -3.3920    4.7140 o         1 MXC     -0.226750
     25 O7         -5.0820    3.6840    3.9340 o         1 MXC     -0.226750
     26 O8         -3.1130    2.4670    3.3750 o         1 MXC     -0.226750
     27 S1          0.6780    3.7540    5.6240 s4        1 MXC      1.660000
     28 H2          2.2430    2.4980    0.7850 ha        1 MXC      0.282000
     29 H4          4.5120    0.5470    2.6880 hc        1 MXC      0.230000
     30 H7          1.6190   -1.7550    3.2440 hn        1 MXC      0.261000
     31 H8         -0.9860    2.1910    2.3180 hc        1 MXC      0.255000
     32 H10         4.8210   -1.4910    1.2830 h4        1 MXC      0.156000
     33 H11        -0.1010   -1.1120    4.7660 h4        1 MXC      0.176000
     34 H14         0.7410   -1.0590    8.0370 hc        1 MXC      0.069750
     35 H14A        0.3510   -2.1830    6.6630 hc        1 MXC      0.069750
     36 H14B       -0.7010   -2.1530    8.1430 hc        1 MXC      0.069750
     37 H15         3.2040    1.9280    7.6310 ha        1 MXC      0.220000
     38 H15A       -0.7160   -0.7460    6.9980 hc        1 MXC      0.069750
     39 HN2        -3.1780    0.6750    2.0040 hn        1 MXC      0.252500
     40 HN2A       -1.7090    0.5300    3.8590 ha        1 MXC      0.183000
     41 HN3         1.3170    0.1960    5.9620 h1        1 MXC      0.128000
     42 HN4        -4.1170    3.5490    6.6970 hn        1 MXC      0.146333
     43 HN4A       -2.7760    4.3240    6.2060 hn        1 MXC      0.146333
     44 HO6        -1.1270    2.9930    4.5100 ho        1 MXC      0.261000
     45 O5         -0.4670    3.8380    6.5180 o         1 MXC     -0.798000
     46 O6         -0.2030    3.1540    4.2870 oh        1 MXC     -0.663000
     47 H23        -3.3300   -0.0060    0.4400 hn        1 MXC      0.252500
     48 H43        -2.6870    2.7760    6.6510 hn        1 MXC      0.146333
@<TRIPOS>BOND
     1    1    2 1   
     2    1    8 1   
     3    1    9 1   
     4    1   31 1   
     5    2    3 1   
     6    3    4 1   
     7    3   28 1   
     8    4    5 1   
     9    5    6 1   
    10    5   10 1   
    11    5   29 1   
    12    6   17 1   
    13    6   19 1   
    14    7    8 1   
    15    7   17 1   
    16    7   33 1   
    17    8   40 1   
    18    9   18 1   
    19    9   22 1   
    20   10   21 1   
    21   10   32 1   
    22   11   13 1   
    23   11   15 1   
    24   11   19 1   
    25   11   41 1   
    26   12   23 1   
    27   12   24 1   
    28   13   15 1   
    29   13   27 1   
    30   14   34 1   
    31   14   35 1   
    32   14   36 1   
    33   14   38 1   
    34   15   37 1   
    35   16   25 1   
    36   16   26 1   
    37   17   30 1   
    38   18   39 1   
    39   18   47 1   
    40   20   42 1   
    41   20   43 1   
    42   20   48 1   
    43   27   45 1   
    44   27   46 1   
    45   44   46 1   
@<TRIPOS>SUBSTRUCTURE
     1 MXC         1 TEMP              0 ****  ****    0 ROOT
