@<TRIPOS>MOLECULE
MXC
   48    43     1     0     0
SMALL
bcc


@<TRIPOS>ATOM
      1 C1         -0.4350    1.3970    0.3440 c2        1 MXC     -0.165000
      2 C2          0.8000    1.5570   -0.0240 c1        1 MXC     -0.169000
      3 C3          2.0590    1.6390   -0.3850 c2        1 MXC     -0.084000
      4 C4          3.1810    1.3660    0.4080 c1        1 MXC     -0.034000
      5 C5          3.7700    1.9820    1.5460 c3        1 MXC     -0.151000
      6 C6          2.9250    3.0010    2.3210 c2        1 MXC      0.025000
      7 C7         -3.1770   -4.2300    0.5880 c1        1 MXC     -0.229500
      8 C8         -2.8640   -3.2010    1.1120 c1        1 MXC     -0.229500
      9 C9         -1.0990    0.0740    0.5160 c2        1 MXC      0.355000
     10 C10         6.4590    3.7660    0.4300 c1        1 MXC      0.170000
     11 C11         1.0770    2.0310    3.4790 c2        1 MXC      0.027000
     12 C12        -3.1710   -2.4410   10.8360 c1        1 MXC      0.456000
     13 C13         0.4700    1.4670    4.7080 c2        1 MXC     -0.666000
     14 C14         0.7070   -0.6360   10.1870 c3        1 MXC     -0.295000
     15 C15        -0.6130    0.6880    4.5220 c2        1 MXC      0.158000
     16 C16        -1.6320    0.6130    6.6900 c2        1 MXC      0.393000
     17 N1          2.9260    4.2320    1.9440 n2        1 MXC     -0.225000
     18 N2         -1.2390   -0.7450   -0.5620 nt        1 MXC     -0.399000
     19 N3          2.2880    2.4550    3.4880 n2        1 MXC     -0.220000
     20 N4         -1.6210   -0.3470    7.8220 nz        1 MXC     -0.090000
     21 O1          7.2080    4.6030    0.1080 o         1 MXC     -0.162000
     22 O2         -1.5330   -0.2720    1.6450 o         1 MXC     -0.455000
     23 O3         -3.6260   -3.0520   11.7370 o         1 MXC     -0.226500
     24 O4         -2.7060   -1.8210    9.9200 o         1 MXC     -0.226500
     25 O7         -1.3010   -0.0080    5.5170 os        1 MXC     -0.211000
     26 O8         -2.0030    1.7700    6.7940 o         1 MXC     -0.227000
     27 S1          1.3350    1.8480    6.1420 s4        1 MXC      1.671000
     28 H2          2.3110    1.8170   -1.4570 ha        1 MXC      0.200000
     29 H4          4.7110    2.4990    1.1380 hc        1 MXC      0.195500
     30 H7          2.3710    4.8850    2.4550 hn        1 MXC      0.164000
     31 H8         -1.0830    2.2550    0.6040 ha        1 MXC      0.171000
     32 H10         4.1580    1.1830    2.2430 hc        1 MXC      0.195500
     33 H11        -3.4560   -5.1420    0.1210 ha        1 MXC      0.229000
     34 H14         1.1320   -1.5670    9.7520 hc        1 MXC      0.076000
     35 H14A        0.8720    0.2170    9.4890 hc        1 MXC      0.076000
     36 H14B       -0.3800   -0.7760   10.3830 hc        1 MXC      0.076000
     37 H15        -1.0590    0.3770    3.5430 h4        1 MXC      0.257000
     38 H15A        1.2210   -0.4170   11.1500 hc        1 MXC      0.076000
     39 HN2        -2.5900   -2.2870    1.5840 ha        1 MXC      0.229000
     40 HN2A       -0.9080   -0.4750   -1.4540 hn        1 MXC      0.242000
     41 HN3         0.4030    2.0340    2.5900 h4        1 MXC      0.143000
     42 HN4        -2.2690   -0.0360    8.5570 hn        1 MXC      0.290667
     43 HN4A       -0.6510   -0.3550    8.2060 hn        1 MXC      0.290667
     44 HO6        -0.0450    3.3720    7.0580 ho        1 MXC      0.266000
     45 O5          0.5640    1.1130    7.1860 o         1 MXC     -0.932000
     46 O6          0.7400    3.3780    6.5020 oh        1 MXC     -0.571000
     47 H23        -1.7000   -1.6190   -0.4630 hn        1 MXC      0.242000
     48 H43        -1.8740   -1.2920    7.5140 hn        1 MXC      0.290667
@<TRIPOS>BOND
     1    1    2 1   
     2    1    9 1   
     3    1   31 1   
     4    2    3 1   
     5    3    4 1   
     6    3   28 1   
     7    4    5 1   
     8    5    6 1   
     9    5   29 1   
    10    5   32 1   
    11    6   17 1   
    12    6   19 1   
    13    7    8 1   
    14    7   33 1   
    15    8   39 1   
    16    9   18 1   
    17    9   22 1   
    18   10   21 1   
    19   11   13 1   
    20   11   19 1   
    21   11   41 1   
    22   12   23 1   
    23   12   24 1   
    24   13   15 1   
    25   13   27 1   
    26   14   34 1   
    27   14   35 1   
    28   14   36 1   
    29   14   38 1   
    30   15   25 1   
    31   15   37 1   
    32   16   20 1   
    33   16   25 1   
    34   16   26 1   
    35   17   30 1   
    36   18   40 1   
    37   18   47 1   
    38   20   42 1   
    39   20   43 1   
    40   20   48 1   
    41   27   45 1   
    42   27   46 1   
    43   44   46 1   
@<TRIPOS>SUBSTRUCTURE
     1 MXC         1 TEMP              0 ****  ****    0 ROOT
