@<TRIPOS>MOLECULE
MXC
   46    47     1     0     0
SMALL
bcc


@<TRIPOS>ATOM
      1 C1         -4.2830    1.5980   -0.3060 cc        1 MXC     -0.162600
      2 C2         -4.3740    0.2900   -0.7070 cd        1 MXC     -0.028000
      3 C3         -3.3100   -0.6130   -0.4220 cd        1 MXC     -0.111300
      4 C4         -3.1240   -1.9700   -0.7330 cc        1 MXC     -0.119000
      5 C5         -1.8420   -2.3510   -0.2420 cc        1 MXC     -0.251200
      6 C6         -1.2370   -1.2080    0.3810 cd        1 MXC      0.136900
      7 C7         -2.1050    1.1690    0.7110 cd        1 MXC     -0.065300
      8 C8         -3.1330    2.0330    0.4310 cc        1 MXC     -0.171000
      9 C9         -5.3870    2.5340   -0.6380 c         1 MXC      0.680700
     10 C10        -1.2370   -3.6590   -0.3540 c         1 MXC      0.609100
     11 C11         0.8490   -0.0050    0.9290 c3        1 MXC      0.040500
     12 C12         0.7570    0.7820    2.2920 c         1 MXC      0.894600
     13 C13         2.3290   -0.3420    0.6230 c3        1 MXC     -0.057700
     14 C14         2.9120   -1.2840    1.6570 c3        1 MXC     -0.088100
     15 C15         3.0910    0.9860    0.6280 c3        1 MXC      0.163400
     16 C16         4.9760    0.8680   -0.8510 c         1 MXC      0.745100
     17 N1         -2.1570   -0.1520    0.2920 na        1 MXC      0.022700
     18 N2         -5.0910    3.8650   -0.8100 n         1 MXC     -0.677000
     19 N3          0.0460   -1.2250    0.9490 nh        1 MXC     -0.704000
     20 N4          6.2190    0.2670   -1.0320 n         1 MXC     -0.570000
     21 O1         -1.7730   -4.6230   -0.9170 o         1 MXC     -0.576100
     22 O2         -6.5690    2.1490   -0.7890 o         1 MXC     -0.636100
     23 O3          0.7130    0.1110    3.3560 o         1 MXC     -0.811800
     24 O4          0.6860    2.0370    2.2050 o         1 MXC     -0.811800
     25 O7          4.4960    0.7660    0.4390 os        1 MXC     -0.443900
     26 O8          4.3490    1.5510   -1.6820 o         1 MXC     -0.617000
     27 S1          2.3540   -1.2420   -0.9160 s4        1 MXC      0.561700
     28 H2         -5.2520   -0.0910   -1.2510 ha        1 MXC      0.159000
     29 H4         -3.8210   -2.6180   -1.2560 ha        1 MXC      0.163000
     30 H7         -1.2110    1.4910    1.2920 h4        1 MXC      0.232000
     31 H8         -3.0660    3.0610    0.8130 ha        1 MXC      0.148000
     32 H10        -0.2280   -3.7660    0.1070 h4        1 MXC     -0.002800
     33 H11         0.4990    0.6810    0.1020 h1        1 MXC      0.072700
     34 H14         2.5380   -2.3270    1.5000 hc        1 MXC      0.054033
     35 H14A        4.0270   -1.2870    1.5890 hc        1 MXC      0.054033
     36 H14B        2.6090   -0.9550    2.6850 hc        1 MXC      0.054033
     37 H15         2.6790    1.6820   -0.1480 h1        1 MXC      0.099200
     38 H15A        3.0310    1.4650    1.6460 h1        1 MXC      0.099200
     39 HN2        -4.1650    4.1960   -0.7370 hn        1 MXC      0.310000
     40 HN2A       -5.8130    4.4980   -1.0400 hn        1 MXC      0.310000
     41 HN3         0.0110   -1.5810    1.8970 hn        1 MXC      0.420800
     42 HN4         6.4020   -0.4650   -0.3800 hn        1 MXC      0.291500
     43 HN4A        6.3690   -0.0000   -1.9820 hn        1 MXC      0.291500
     44 HO6         2.5800    0.5030   -2.3200 ho        1 MXC      0.463000
     45 O5          3.7770   -1.2920   -1.3340 o         1 MXC     -0.585200
     46 O6          1.8550   -0.0570   -2.0210 oh        1 MXC     -0.587800
@<TRIPOS>BOND
     1    1    2 2   
     2    1    8 1   
     3    1    9 1   
     4    2    3 1   
     5    2   28 1   
     6    3    4 2   
     7    3   17 1   
     8    4    5 1   
     9    4   29 1   
    10    5    6 2   
    11    5   10 1   
    12    6   17 1   
    13    6   19 1   
    14    7    8 2   
    15    7   17 1   
    16    7   30 1   
    17    8   31 1   
    18    9   18 1   
    19    9   22 2   
    20   10   21 2   
    21   10   32 1   
    22   11   12 1   
    23   11   13 1   
    24   11   19 1   
    25   11   33 1   
    26   12   23 1   
    27   12   24 1   
    28   13   14 1   
    29   13   15 1   
    30   13   27 1   
    31   14   34 1   
    32   14   35 1   
    33   14   36 1   
    34   15   25 1   
    35   15   37 1   
    36   15   38 1   
    37   16   20 1   
    38   16   25 1   
    39   16   26 2   
    40   18   39 1   
    41   18   40 1   
    42   19   41 1   
    43   20   42 1   
    44   20   43 1   
    45   27   45 2   
    46   27   46 1   
    47   44   46 1   
@<TRIPOS>SUBSTRUCTURE
     1 MXC         1 TEMP              0 ****  ****    0 ROOT
