@<TRIPOS>MOLECULE
MXD
   30    31     1     0     0
SMALL
bcc


@<TRIPOS>ATOM
      1 NAO        -0.0440    0.3260    0.1430 nv        1 MXD     -0.358200
      2 CAE         1.3300    0.1110   -0.0090 ca        1 MXD      0.020500
      3 CAF         2.1500   -0.0810    1.1280 ca        1 MXD     -0.337300
      4 NAC         1.9050    0.0520   -1.2960 na        1 MXD     -0.042200
      5 OAN         1.2240    0.2230   -2.3180 o         1 MXD     -0.378000
      6 CAA         3.3410    0.0790   -1.3560 ca        1 MXD      0.545000
      7 NAM         3.9470    0.2900   -2.6030 nv        1 MXD     -0.463900
      8 NAB         4.1340   -0.1370   -0.2680 nb        1 MXD     -0.765000
      9 CAD         3.5530   -0.1980    0.9700 ca        1 MXD      0.671200
     10 NAI         4.3610   -0.3060    2.1370 nh        1 MXD     -0.729300
     11 CAG         5.7920   -0.0840    1.9710 c3        1 MXD      0.187300
     12 CAK         4.0440   -1.4570    2.9770 c3        1 MXD      0.187300
     13 CAL         4.7460   -1.4030    4.3340 c3        1 MXD     -0.081900
     14 CAJ         6.2390   -1.2170    4.1680 c3        1 MXD     -0.080400
     15 CAH         6.5270   -0.0050    3.3100 c3        1 MXD     -0.081900
     16 HAO1       -0.4800   -0.3080    0.7760 hn        1 MXD      0.259200
     17 HAO2       -0.5480    0.4560   -0.7130 hn        1 MXD      0.259200
     18 HAF         1.6890   -0.0710    2.1250 ha        1 MXD      0.165000
     19 HAM1        3.3210    0.2860   -3.3820 hn        1 MXD      0.275700
     20 HAM2        4.8120   -0.1840   -2.7440 hn        1 MXD      0.275700
     21 HAG1        5.9310    0.8920    1.4260 h1        1 MXD      0.045200
     22 HAG2        6.2640   -0.9000    1.3510 h1        1 MXD      0.045200
     23 HAK1        2.9320   -1.4830    3.1460 h1        1 MXD      0.045200
     24 HAK2        4.3370   -2.4190    2.4610 h1        1 MXD      0.045200
     25 HAL1        4.3260   -0.5620    4.9440 hc        1 MXD      0.050950
     26 HAL2        4.5320   -2.3600    4.8750 hc        1 MXD      0.050950
     27 HAJ1        6.6810   -2.1310    3.6910 hc        1 MXD      0.043200
     28 HAJ2        6.7190   -1.0960    5.1730 hc        1 MXD      0.043200
     29 HAH1        7.6250    0.0660    3.0980 hc        1 MXD      0.050950
     30 HAH2        6.2230    0.9250    3.8560 hc        1 MXD      0.050950
@<TRIPOS>BOND
     1    1    2 1   
     2    1   16 1   
     3    1   17 1   
     4    2    3 ar  
     5    2    4 2   
     6    3    9 ar  
     7    3   18 1   
     8    4    5 1   
     9    4    6 1   
    10    6    7 1   
    11    6    8 ar  
    12    7   19 1   
    13    7   20 1   
    14    8    9 ar  
    15    9   10 1   
    16   10   11 1   
    17   10   12 1   
    18   11   15 1   
    19   11   21 1   
    20   11   22 1   
    21   12   13 1   
    22   12   23 1   
    23   12   24 1   
    24   13   14 1   
    25   13   25 1   
    26   13   26 1   
    27   14   15 1   
    28   14   27 1   
    29   14   28 1   
    30   15   29 1   
    31   15   30 1   
@<TRIPOS>SUBSTRUCTURE
     1 MXD         1 TEMP              0 ****  ****    0 ROOT
