@<TRIPOS>MOLECULE
MXD
   30    31     1     0     0
SMALL
bcc


@<TRIPOS>ATOM
      1 NAO        -2.8530    2.3570   -0.1640 nh        1 MXD     -0.353200
      2 CAE        -2.1030    1.1700   -0.1420 ca        1 MXD      0.007500
      3 CAF        -0.6900    1.2250   -0.2120 ca        1 MXD     -0.324300
      4 NAC        -2.7470   -0.0740   -0.0280 na        1 MXD     -0.032200
      5 OAN        -3.9780   -0.1630    0.0810 o         1 MXD     -0.371000
      6 CAA        -1.9070   -1.2270    0.1260 ca        1 MXD      0.543000
      7 NAM        -2.5330   -2.4850    0.1520 nh        1 MXD     -0.468900
      8 NAB        -0.5460   -1.1710    0.1240 nb        1 MXD     -0.762000
      9 CAD         0.0660    0.0380   -0.0630 ca        1 MXD      0.660200
     10 NAI         1.4860    0.1190   -0.1770 nh        1 MXD     -0.727300
     11 CAG         2.1990   -1.1390   -0.3680 c3        1 MXD      0.184800
     12 CAK         2.1090    0.9920    0.8140 c3        1 MXD      0.184800
     13 CAL         3.5860    1.2490    0.5190 c3        1 MXD     -0.081400
     14 CAJ         4.3440   -0.0510    0.3560 c3        1 MXD     -0.080400
     15 CAH         3.6790   -0.9230   -0.6870 c3        1 MXD     -0.081400
     16 HAO1       -2.5860    2.9640   -0.9100 hn        1 MXD      0.255200
     17 HAO2       -3.8440    2.2200   -0.1040 hn        1 MXD      0.255200
     18 HAF        -0.2020    2.1970   -0.3680 ha        1 MXD      0.166000
     19 HAM1       -1.9880   -3.2190    0.5470 hn        1 MXD      0.276200
     20 HAM2       -3.4950   -2.4670    0.4230 hn        1 MXD      0.276200
     21 HAG1        2.1230   -1.7970    0.5450 h1        1 MXD      0.045950
     22 HAG2        1.7200   -1.6820   -1.2310 h1        1 MXD      0.045950
     23 HAK1        1.5630    1.9770    0.8170 h1        1 MXD      0.045950
     24 HAK2        2.0230    0.5460    1.8480 h1        1 MXD      0.045950
     25 HAL1        4.0120    1.8420    1.3680 hc        1 MXD      0.050700
     26 HAL2        3.6860    1.8640   -0.4140 hc        1 MXD      0.050700
     27 HAJ1        4.3750   -0.5940    1.3370 hc        1 MXD      0.043200
     28 HAJ2        5.4020    0.1620    0.0560 hc        1 MXD      0.043200
     29 HAH1        4.1750   -1.9260   -0.7250 hc        1 MXD      0.050700
     30 HAH2        3.7850   -0.4500   -1.6980 hc        1 MXD      0.050700
@<TRIPOS>BOND
     1    1    2 1   
     2    1   16 1   
     3    1   17 1   
     4    2    3 ar  
     5    2    4 2   
     6    3    9 ar  
     7    3   18 1   
     8    4    5 1   
     9    4    6 1   
    10    6    7 1   
    11    6    8 ar  
    12    7   19 1   
    13    7   20 1   
    14    8    9 ar  
    15    9   10 1   
    16   10   11 1   
    17   10   12 1   
    18   11   15 1   
    19   11   21 1   
    20   11   22 1   
    21   12   13 1   
    22   12   23 1   
    23   12   24 1   
    24   13   14 1   
    25   13   25 1   
    26   13   26 1   
    27   14   15 1   
    28   14   27 1   
    29   14   28 1   
    30   15   29 1   
    31   15   30 1   
@<TRIPOS>SUBSTRUCTURE
     1 MXD         1 TEMP              0 ****  ****    0 ROOT
