@<TRIPOS>MOLECULE
MXD
   32    33     1     0     0
SMALL
bcc


@<TRIPOS>ATOM
      1 NAO        -0.0690   -0.1060    0.1130 n4        1 MXD     -0.717000
      2 CAE         1.4010   -0.1380    0.0010 ca        1 MXD      0.002300
      3 CAF         2.1800   -0.6040    1.0400 ca        1 MXD     -0.242300
      4 NAC         1.9540    0.1530   -1.2940 na        1 MXD      0.007800
      5 OAN         1.2750    0.7070   -2.1490 o         1 MXD     -0.296000
      6 CAA         3.3790    0.3580   -1.2320 ca        1 MXD      0.572400
      7 NAM         4.0190    0.8590   -2.4850 n4        1 MXD     -0.827300
      8 NAB         4.1920   -0.0930   -0.2730 nb        1 MXD     -0.720000
      9 CAD         3.6410   -0.5770    0.9200 ca        1 MXD      0.742200
     10 NAI         4.4630   -1.0360    1.8840 nh        1 MXD     -0.636300
     11 CAG         5.9300   -0.9740    1.7910 c3        1 MXD      0.177800
     12 CAK         4.0010   -1.5690    3.1690 c3        1 MXD      0.177800
     13 CAL         4.5960   -0.8270    4.3680 c3        1 MXD     -0.098400
     14 CAJ         6.1060   -0.7850    4.2910 c3        1 MXD     -0.095400
     15 CAH         6.5640   -0.2250    2.9630 c3        1 MXD     -0.098400
     16 HAO1       -0.4660    0.4600   -0.6660 hn        1 MXD      0.497467
     17 HAO2       -0.4520   -1.0600    0.0540 hn        1 MXD      0.497467
     18 HAF         1.7080   -0.9680    1.9690 ha        1 MXD      0.201000
     19 HAM1        3.2970    1.3250   -3.0680 hn        1 MXD      0.501467
     20 HAM2        4.4320    0.0780   -3.0140 hn        1 MXD      0.501467
     21 HAG1        6.2850   -2.0480    1.7940 h1        1 MXD      0.089200
     22 HAG2        6.2670   -0.4970    0.8310 h1        1 MXD      0.089200
     23 HAK1        4.3400   -2.6490    3.1960 h1        1 MXD      0.089200
     24 HAK2        2.8830   -1.5550    3.2520 h1        1 MXD      0.089200
     25 HAL1        4.2720   -1.3730    5.2950 hc        1 MXD      0.082200
     26 HAL2        4.1830    0.2140    4.4240 hc        1 MXD      0.082200
     27 HAJ1        6.5230   -1.8170    4.4340 hc        1 MXD      0.083200
     28 HAJ2        6.5060   -0.1480    5.1250 hc        1 MXD      0.083200
     29 HAH1        7.6780   -0.3320    2.8640 hc        1 MXD      0.082200
     30 HAH2        6.3220    0.8680    2.9000 hc        1 MXD      0.082200
     31 HAO3       -0.3310    0.3230    1.0100 hn        1 MXD      0.497467
     32 HAM3        4.7560    1.5370   -2.2390 hn        1 MXD      0.501467
@<TRIPOS>BOND
     1    1    2 1   
     2    1   16 1   
     3    1   17 1   
     4    1   31 1   
     5    2    3 ar  
     6    2    4 2   
     7    3    9 ar  
     8    3   18 1   
     9    4    5 1   
    10    4    6 1   
    11    6    7 1   
    12    6    8 ar  
    13    7   19 1   
    14    7   20 1   
    15    7   32 1   
    16    8    9 ar  
    17    9   10 1   
    18   10   11 1   
    19   10   12 1   
    20   11   15 1   
    21   11   21 1   
    22   11   22 1   
    23   12   13 1   
    24   12   23 1   
    25   12   24 1   
    26   13   14 1   
    27   13   25 1   
    28   13   26 1   
    29   14   15 1   
    30   14   27 1   
    31   14   28 1   
    32   15   29 1   
    33   15   30 1   
@<TRIPOS>SUBSTRUCTURE
     1 MXD         1 TEMP              0 ****  ****    0 ROOT
