@<TRIPOS>MOLECULE
MXD
   30    31     1     0     0
SMALL
bcc


@<TRIPOS>ATOM
      1 NAO        -0.0390    0.3600    0.1460 nh        1 MXD     -0.358200
      2 CAE         1.3320    0.1320   -0.0070 ca        1 MXD      0.020500
      3 CAF         2.1520   -0.0650    1.1300 ca        1 MXD     -0.336300
      4 NAC         1.9050    0.0650   -1.2940 na        1 MXD     -0.042200
      5 OAN         1.2240    0.2390   -2.3160 o         1 MXD     -0.378000
      6 CAA         3.3410    0.0770   -1.3560 ca        1 MXD      0.545000
      7 NAM         3.9480    0.2800   -2.6040 nh        1 MXD     -0.463900
      8 NAB         4.1330   -0.1430   -0.2690 nb        1 MXD     -0.765000
      9 CAD         3.5540   -0.1960    0.9700 ca        1 MXD      0.671200
     10 NAI         4.3620   -0.3090    2.1370 nh        1 MXD     -0.729300
     11 CAG         5.7950   -0.1000    1.9680 c3        1 MXD      0.187300
     12 CAK         4.0350   -1.4560    2.9790 c3        1 MXD      0.187300
     13 CAL         4.7390   -1.4050    4.3350 c3        1 MXD     -0.081900
     14 CAJ         6.2330   -1.2340    4.1670 c3        1 MXD     -0.080400
     15 CAH         6.5320   -0.0260    3.3060 c3        1 MXD     -0.081900
     16 HAO1       -0.4800   -0.2680    0.7810 hn        1 MXD      0.259200
     17 HAO2       -0.5430    0.4930   -0.7090 hn        1 MXD      0.259200
     18 HAF         1.6920   -0.0490    2.1280 ha        1 MXD      0.165000
     19 HAM1        3.3210    0.2800   -3.3830 hn        1 MXD      0.275700
     20 HAM2        4.8080   -0.2020   -2.7450 hn        1 MXD      0.275700
     21 HAG1        5.9420    0.8740    1.4220 h1        1 MXD      0.045200
     22 HAG2        6.2580   -0.9220    1.3490 h1        1 MXD      0.045200
     23 HAK1        4.3190   -2.4210    2.4650 h1        1 MXD      0.045200
     24 HAK2        2.9230   -1.4710    3.1500 h1        1 MXD      0.045200
     25 HAL1        4.3280   -0.5590    4.9450 hc        1 MXD      0.050950
     26 HAL2        4.5170   -2.3600    4.8780 hc        1 MXD      0.050950
     27 HAJ1        6.7160   -1.1140    5.1710 hc        1 MXD      0.043200
     28 HAJ2        6.6670   -2.1520    3.6920 hc        1 MXD      0.043200
     29 HAH1        7.6300    0.0350    3.0930 hc        1 MXD      0.050950
     30 HAH2        6.2370    0.9080    3.8520 hc        1 MXD      0.050950
@<TRIPOS>BOND
     1    1    2 1   
     2    1   16 1   
     3    1   17 1   
     4    2    3 ar  
     5    2    4 2   
     6    3    9 ar  
     7    3   18 1   
     8    4    5 1   
     9    4    6 1   
    10    6    7 1   
    11    6    8 ar  
    12    7   19 1   
    13    7   20 1   
    14    8    9 ar  
    15    9   10 1   
    16   10   11 1   
    17   10   12 1   
    18   11   15 1   
    19   11   21 1   
    20   11   22 1   
    21   12   13 1   
    22   12   23 1   
    23   12   24 1   
    24   13   14 1   
    25   13   25 1   
    26   13   26 1   
    27   14   15 1   
    28   14   27 1   
    29   14   28 1   
    30   15   29 1   
    31   15   30 1   
@<TRIPOS>SUBSTRUCTURE
     1 MXD         1 TEMP              0 ****  ****    0 ROOT
