@<TRIPOS>MOLECULE
MXE
   13    12     1     0     0
SMALL
bcc


@<TRIPOS>ATOM
      1 O1          0.1400    0.1940   -0.1980 oh        1 MXE     -0.599800
      2 C1          1.5420    0.0650   -0.1010 c3        1 MXE      0.132400
      3 C2          2.0120    0.1150    1.3490 c3        1 MXE      0.083400
      4 O2          1.4940   -1.0570    1.9760 os        1 MXE     -0.433600
      5 C3          1.8100   -1.1250    3.3550 c3        1 MXE      0.118700
      6 HO1        -0.2460   -0.5110    0.3390 ho        1 MXE      0.413000
      7 H11         1.9570    0.9400   -0.6660 h1        1 MXE      0.052700
      8 H12         1.8750   -0.8950   -0.5790 h1        1 MXE      0.052700
      9 H21         3.1320    0.1110    1.4020 h1        1 MXE      0.038200
     10 H22         1.6130    1.0280    1.8650 h1        1 MXE      0.038200
     11 H31         1.3480   -2.0830    3.7010 h1        1 MXE      0.034700
     12 H32         2.9180   -1.1470    3.5040 h1        1 MXE      0.034700
     13 H33         1.3700   -0.2550    3.9040 h1        1 MXE      0.034700
@<TRIPOS>BOND
     1    1    2 1   
     2    1    6 1   
     3    2    3 1   
     4    2    7 1   
     5    2    8 1   
     6    3    4 1   
     7    3    9 1   
     8    3   10 1   
     9    4    5 1   
    10    5   11 1   
    11    5   12 1   
    12    5   13 1   
@<TRIPOS>SUBSTRUCTURE
     1 MXE         1 TEMP              0 ****  ****    0 ROOT
