@<TRIPOS>MOLECULE
MXE
   13    12     1     0     0
SMALL
bcc


@<TRIPOS>ATOM
      1 O1          0.4440   -0.2100   -2.0280 oh        1 MXE     -0.599800
      2 C1         -0.7300    0.2470   -1.3890 c3        1 MXE      0.132400
      3 C2         -0.8340   -0.2780    0.0390 c3        1 MXE      0.083400
      4 O2          0.2340    0.3280    0.7640 os        1 MXE     -0.433600
      5 C3          0.2980   -0.1070    2.1110 c3        1 MXE      0.118700
      6 HO1         1.1880    0.0670   -1.4780 ho        1 MXE      0.413000
      7 H11        -1.5760   -0.1580   -2.0060 h1        1 MXE      0.052700
      8 H12        -0.7570    1.3690   -1.3880 h1        1 MXE      0.052700
      9 H21        -0.7210   -1.3940    0.0620 h1        1 MXE      0.038200
     10 H22        -1.8160    0.0110    0.4960 h1        1 MXE      0.038200
     11 H31         1.1680    0.4480    2.5430 h1        1 MXE      0.034700
     12 H32        -0.6440    0.1540    2.6530 h1        1 MXE      0.034700
     13 H33         0.4720   -1.2110    2.1600 h1        1 MXE      0.034700
@<TRIPOS>BOND
     1    1    2 1   
     2    1    6 1   
     3    2    3 1   
     4    2    7 1   
     5    2    8 1   
     6    3    4 1   
     7    3    9 1   
     8    3   10 1   
     9    4    5 1   
    10    5   11 1   
    11    5   12 1   
    12    5   13 1   
@<TRIPOS>SUBSTRUCTURE
     1 MXE         1 TEMP              0 ****  ****    0 ROOT
