@<TRIPOS>MOLECULE
MXE
   13    12     1     0     0
SMALL
bcc


@<TRIPOS>ATOM
      1 O1          0.1440    0.2100   -0.1970 oh        1 MXE     -0.599800
      2 C1          1.5470    0.0750   -0.0990 c3        1 MXE      0.132400
      3 C2          2.0140    0.1150    1.3530 c3        1 MXE      0.083400
      4 O2          1.4910   -1.0590    1.9710 os        1 MXE     -0.433600
      5 C3          1.8040   -1.1370    3.3510 c3        1 MXE      0.118700
      6 HO1        -0.2440   -0.4980    0.3340 ho        1 MXE      0.413000
      7 H11         1.9650    0.9530   -0.6570 h1        1 MXE      0.052700
      8 H12         1.8780   -0.8820   -0.5820 h1        1 MXE      0.052700
      9 H21         3.1340    0.1070    1.4080 h1        1 MXE      0.038200
     10 H22         1.6170    1.0250    1.8740 h1        1 MXE      0.038200
     11 H31         1.3380   -2.0960    3.6900 h1        1 MXE      0.034700
     12 H32         2.9120   -1.1630    3.5020 h1        1 MXE      0.034700
     13 H33         1.3650   -0.2700    3.9040 h1        1 MXE      0.034700
@<TRIPOS>BOND
     1    1    2 1   
     2    1    6 1   
     3    2    3 1   
     4    2    7 1   
     5    2    8 1   
     6    3    4 1   
     7    3    9 1   
     8    3   10 1   
     9    4    5 1   
    10    5   11 1   
    11    5   12 1   
    12    5   13 1   
@<TRIPOS>SUBSTRUCTURE
     1 MXE         1 TEMP              0 ****  ****    0 ROOT
