@<TRIPOS>MOLECULE
MXF
   50    51     1     0     0
SMALL
bcc


@<TRIPOS>ATOM
      1 C1         -6.0330    2.0460   -0.5150 cc        1 MXF     -0.130000
      2 C2         -5.5620    1.3490   -1.5900 cd        1 MXF     -0.119000
      3 C3         -4.3000    0.6850   -1.5030 cd        1 MXF     -0.078300
      4 C4         -3.5830   -0.1090   -2.4120 cc        1 MXF     -0.157000
      5 C5         -2.3830   -0.5300   -1.7620 cc        1 MXF     -0.226200
      6 C6         -2.3640    0.0210   -0.4430 cd        1 MXF      0.100900
      7 C7         -4.0470    1.4830    0.7820 cd        1 MXF     -0.062300
      8 C8         -5.2630    2.1120    0.6870 cc        1 MXF     -0.193000
      9 C10        -1.3730   -1.3950   -2.3280 c         1 MXF      0.616100
     10 C11        -0.4300    0.9060    0.7510 c3        1 MXF      0.043500
     11 C12        -0.8540    1.8860    1.9030 c         1 MXF      0.907600
     12 C13         0.9760    0.3300    1.0750 c3        1 MXF     -0.058700
     13 C14         1.0890   -0.0300    2.5400 c3        1 MXF     -0.072100
     14 C15         1.9730    1.4380    0.7320 c3        1 MXF      0.158400
     15 C16         4.2160    0.8550    0.1020 c         1 MXF      0.740100
     16 N1         -3.5460    0.7730   -0.2950 na        1 MXF      0.022700
     17 N3         -1.3690   -0.2020    0.5300 nh        1 MXF     -0.704000
     18 N4          5.4230    0.3230    0.5740 n         1 MXF     -0.497900
     19 O1         -1.4220   -1.8690   -3.4700 o         1 MXF     -0.571100
     20 O3         -1.6960    1.4680    2.7510 o         1 MXF     -0.819800
     21 O4         -0.3330    3.0280    1.8990 o         1 MXF     -0.819800
     22 O7          3.3000    1.0390    1.1130 os        1 MXF     -0.438900
     23 O8          3.9700    1.2510   -1.0490 o         1 MXF     -0.594000
     24 S1          1.1860   -1.1120    0.0450 s4        1 MXF      0.578700
     25 C17         6.2910   -0.3120   -0.3860 c3        1 MXF      0.073000
     26 C18         5.9280   -1.7820   -0.6990 c3        1 MXF      0.105800
     27 N5          6.7740   -2.3510   -1.7230 n3        1 MXF     -0.910800
     28 H1         -7.0000    2.5670   -0.5510 ha        1 MXF      0.123000
     29 H2         -6.1140    1.2690   -2.5360 ha        1 MXF      0.134000
     30 H4         -3.8750   -0.3670   -3.4250 ha        1 MXF      0.159000
     31 H7         -3.4030    1.5260    1.6940 h4        1 MXF      0.241000
     32 H8         -5.6440    2.6810    1.5460 ha        1 MXF      0.146000
     33 H10        -0.5100   -1.6300   -1.6570 h4        1 MXF     -0.017800
     34 H11        -0.3550    1.5200   -0.1920 h1        1 MXF      0.067700
     35 H14         0.3240   -0.7990    2.8110 hc        1 MXF      0.050700
     36 H14A        2.1080   -0.4380    2.7470 hc        1 MXF      0.050700
     37 H14B        0.9240    0.8720    3.1810 hc        1 MXF      0.050700
     38 H15         1.9230    1.7060   -0.3550 h1        1 MXF      0.098700
     39 H15A        1.7510    2.3460    1.3660 h1        1 MXF      0.098700
     40 HN3        -1.7800   -0.4560    1.4200 hn        1 MXF      0.414800
     41 HN4         5.3340   -0.1570    1.4450 hn        1 MXF      0.296500
     42 HO6         3.1050   -1.9410    0.8800 ho        1 MXF      0.432000
     43 H17         6.2670    0.2930   -1.3360 h1        1 MXF      0.065700
     44 H17A        7.3330   -0.2710    0.0400 h1        1 MXF      0.065700
     45 H18         6.0670   -2.4010    0.2330 h1        1 MXF      0.045700
     46 H18A        4.8270   -1.8230   -0.9640 h1        1 MXF      0.045700
     47 HN5         6.4310   -3.2580   -1.9760 hn        1 MXF      0.344800
     48 HN5A        6.7750   -1.7720   -2.5400 hn        1 MXF      0.344800
     49 O5          0.8590   -2.2980    0.8480 o         1 MXF     -0.528200
     50 O6          2.8830   -1.3520    0.1580 oh        1 MXF     -0.626800
@<TRIPOS>BOND
     1    1    2 2   
     2    1    8 1   
     3    1   28 1   
     4    2    3 1   
     5    2   29 1   
     6    3    4 2   
     7    3   16 1   
     8    4    5 1   
     9    4   30 1   
    10    5    6 2   
    11    5    9 1   
    12    6   16 1   
    13    6   17 1   
    14    7    8 2   
    15    7   16 1   
    16    7   31 1   
    17    8   32 1   
    18    9   19 2   
    19    9   33 1   
    20   10   11 1   
    21   10   12 1   
    22   10   17 1   
    23   10   34 1   
    24   11   20 1   
    25   11   21 1   
    26   12   13 1   
    27   12   14 1   
    28   12   24 1   
    29   13   35 1   
    30   13   36 1   
    31   13   37 1   
    32   14   22 1   
    33   14   38 1   
    34   14   39 1   
    35   15   18 1   
    36   15   22 1   
    37   15   23 2   
    38   17   40 1   
    39   18   25 1   
    40   18   41 1   
    41   24   49 2   
    42   24   50 1   
    43   25   26 1   
    44   25   43 1   
    45   25   44 1   
    46   26   27 1   
    47   26   45 1   
    48   26   46 1   
    49   27   47 1   
    50   27   48 1   
    51   42   50 1   
@<TRIPOS>SUBSTRUCTURE
     1 MXF         1 TEMP              0 ****  ****    0 ROOT
