@<TRIPOS>MOLECULE
MXF
   53    49     1     0     0
SMALL
bcc


@<TRIPOS>ATOM
      1 C1          0.3610   -0.4450   -0.9070 c3        1 MXF     -0.537000
      2 C2          1.7340   -0.6080   -1.1620 c1        1 MXF      0.628000
      3 C3          2.8090    0.1080    0.9020 c3        1 MXF     -0.226000
      4 C4          4.0400    0.2500    1.8010 c1        1 MXF      0.089000
      5 C5          3.5100    0.5590    3.0830 c2        1 MXF     -0.341000
      6 C6          2.1000    0.5320    3.0640 c2        1 MXF      0.199000
      7 C7          0.5170    1.0350    1.2200 c3        1 MXF     -0.193000
      8 C8         -0.1150    0.6480   -0.0240 c1        1 MXF      0.127000
      9 C10         5.6700    1.1450    5.6810 c1        1 MXF      0.144000
     10 C11         0.0590    0.2040    4.4010 c2        1 MXF      0.141000
     11 C12        -2.4660   -3.2090    2.8330 c1        1 MXF      0.428000
     12 C13        -0.6380    0.2940    5.5760 c2        1 MXF     -0.745000
     13 C14         2.1750    0.9470    9.8320 c3        1 MXF     -0.253000
     14 C15        -2.0230   -0.1990    5.5360 cx        1 MXF      0.055000
     15 C16        -3.0650    0.3860    6.3750 cu        1 MXF      0.316000
     16 N1          1.5960    0.2220    1.7470 n3        1 MXF     -0.289000
     17 N3          1.3140    0.7240    4.1910 n3        1 MXF     -0.253000
     18 N4         -3.2580    2.1420    9.3790 n4        1 MXF     -0.126000
     19 O1          6.7100    1.3050    6.1850 o         1 MXF     -0.140000
     20 O3         -3.0530   -4.2320    2.8900 o         1 MXF     -0.213000
     21 O4         -1.8690   -2.1710    2.7710 o         1 MXF     -0.213000
     22 O7         -2.5390   -0.8100    6.7930 os        1 MXF     -0.264000
     23 O8         -3.8960    1.1210    6.8560 o         1 MXF     -0.266000
     24 S1          0.0090    0.7900    7.0740 s4        1 MXF      1.648000
     25 C17        -5.4770    2.5300   12.9920 c2        1 MXF     -0.218000
     26 C18        -5.3780    3.2260   11.8520 c2        1 MXF     -0.156000
     27 N5         -4.2190    3.8950   11.3860 n3        1 MXF     -0.349000
     28 H1         -0.1630   -0.2830   -1.9320 hc        1 MXF      0.291500
     29 H2          2.8820    0.8980    0.1010 h1        1 MXF      0.155000
     30 H4          2.8800   -0.9540    0.5010 h1        1 MXF      0.155000
     31 H7          0.8080    2.1350    1.0630 h1        1 MXF      0.198000
     32 H8         -0.1600   -1.3910   -0.5010 hc        1 MXF      0.291500
     33 H10         4.1290    0.7390    3.9730 ha        1 MXF      0.221000
     34 H11        -0.3410    1.0800    1.9740 h1        1 MXF      0.198000
     35 H14         2.9050    1.7850    9.8310 hc        1 MXF      0.064750
     36 H14A        2.7170   -0.0210    9.7570 hc        1 MXF      0.064750
     37 H14B        1.5830    0.9700   10.7730 hc        1 MXF      0.064750
     38 H15        -2.3120   -0.7800    4.6310 h1        1 MXF      0.170000
     39 H15A        1.4870    1.0580    8.9590 hc        1 MXF      0.064750
     40 HN3        -0.3940   -0.3350    3.5370 h4        1 MXF      0.170000
     41 HN4        -2.4380    1.6300    9.7050 hn        1 MXF      0.261500
     42 HO6         0.4230    3.0080    6.9020 ho        1 MXF      0.272000
     43 H17        -4.0030    1.4800    9.1600 hn        1 MXF      0.261500
     44 H17A       -2.9960    2.6190    8.5120 hn        1 MXF      0.261500
     45 H18        -4.6740    2.4570   13.7380 ha        1 MXF      0.141000
     46 H18A       -6.4000    1.9900   13.2430 ha        1 MXF      0.141000
     47 HN5        -3.5860    2.8330   10.1090 hn        1 MXF      0.261500
     48 HN5A       -3.5350    4.0090   12.1130 hn        1 MXF      0.181500
     49 O5         -1.0870    1.4440    7.8110 o         1 MXF     -0.882000
     50 O6          0.8400    2.1910    6.6170 oh        1 MXF     -0.629000
     51 H32         1.7950    1.1770    4.9540 hn        1 MXF      0.293000
     52 H42        -6.2330    3.3010   11.1500 h4        1 MXF      0.151000
     53 H53        -4.4580    4.7990   11.0170 hn        1 MXF      0.181500
@<TRIPOS>BOND
     1    1    2 1   
     2    1    8 1   
     3    1   28 1   
     4    1   32 1   
     5    3    4 1   
     6    3   16 1   
     7    3   29 1   
     8    3   30 1   
     9    4    5 1   
    10    5    6 1   
    11    5   33 1   
    12    6   16 1   
    13    6   17 1   
    14    7    8 1   
    15    7   16 1   
    16    7   31 1   
    17    7   34 1   
    18    9   19 1   
    19   10   12 1   
    20   10   17 1   
    21   10   40 1   
    22   11   20 1   
    23   11   21 1   
    24   12   14 1   
    25   12   24 1   
    26   13   35 1   
    27   13   36 1   
    28   13   37 1   
    29   13   39 1   
    30   14   15 1   
    31   14   22 1   
    32   14   38 1   
    33   15   22 1   
    34   15   23 1   
    35   17   51 1   
    36   18   41 1   
    37   18   43 1   
    38   18   44 1   
    39   18   47 1   
    40   24   49 1   
    41   24   50 1   
    42   25   26 1   
    43   25   45 1   
    44   25   46 1   
    45   26   27 1   
    46   26   52 1   
    47   27   48 1   
    48   27   53 1   
    49   42   50 1   
@<TRIPOS>SUBSTRUCTURE
     1 MXF         1 TEMP              0 ****  ****    0 ROOT
