@<TRIPOS>MOLECULE
MXG
   74    74     1     0     0
SMALL
bcc


@<TRIPOS>ATOM
      1 O34         3.0790    2.0140    8.3260 o         1 MXG     -0.628100
      2 C33         3.6590    1.3250    7.4590 c         1 MXG      0.652100
      3 C35         5.0360    0.7550    7.7190 c3        1 MXG     -0.175100
      4 N32         3.1160    1.0970    6.2130 n         1 MXG     -0.541900
      5 C30         1.7290    1.3730    5.9080 c3        1 MXG      0.018700
      6 C31         1.5640    2.5630    4.9620 c3        1 MXG     -0.099100
      7 C28         1.0480    0.1360    5.2480 c         1 MXG      0.626100
      8 O29         1.7550   -0.7910    4.7800 o         1 MXG     -0.669100
      9 N27        -0.3090    0.1650    5.1620 n         1 MXG     -0.509900
     10 C23        -1.1190   -0.9580    4.7350 c3        1 MXG     -0.047300
     11 C24        -2.4800   -1.0130    5.5340 c         1 MXG      0.914600
     12 O26        -2.8140   -0.0110    6.2250 o         1 MXG     -0.826800
     13 O25        -3.1400   -2.0780    5.4230 o         1 MXG     -0.826800
     14 C22        -1.4580   -0.9330    3.2390 c3        1 MXG     -0.073400
     15 C21        -0.2690   -1.3120    2.3850 c3        1 MXG     -0.152400
     16 C19        -0.5870   -1.2680    0.9020 c         1 MXG      0.667100
     17 O20        -0.6130   -2.3030    0.2030 o         1 MXG     -0.638100
     18 N18        -0.8290   -0.0280    0.3410 n         1 MXG     -0.567900
     19 C12        -1.1800    0.1580   -1.0420 c3        1 MXG      0.049700
     20 C13        -2.6940    0.3120   -1.2890 c3        1 MXG     -0.096400
     21 C14        -3.4130   -1.0110   -1.1360 c3        1 MXG     -0.084400
     22 C15        -4.9040   -0.8060   -0.9690 c3        1 MXG     -0.080400
     23 C16        -5.5990   -2.1530   -0.7810 c3        1 MXG      0.148800
     24 N17        -7.0160   -2.0480   -0.5080 n3        1 MXG     -0.914800
     25 C10        -0.5140    1.4440   -1.5990 c         1 MXG      0.658100
     26 O11        -0.3110    2.4400   -0.8710 o         1 MXG     -0.636100
     27 N9         -0.1880    1.4500   -2.9360 n         1 MXG     -0.536900
     28 C7          0.3850    2.6040   -3.5690 c3        1 MXG      0.005700
     29 C8         -0.6130    3.4470   -4.3600 c         1 MXG      0.570900
     30 O8A        -1.8320    3.4180   -4.2080 o         1 MXG     -0.533100
     31 C6          1.5750    2.2780   -4.5200 c3        1 MXG      0.236600
     32 S1          2.9320    1.6450   -3.4850 ss        1 MXG     -0.423200
     33 N5          1.1950    1.5580   -5.6920 n2        1 MXG     -0.624900
     34 C4          1.5250    0.3330   -5.9140 ce        1 MXG      0.444600
     35 C4A         1.1130   -0.3720   -7.2450 c         1 MXG      0.851300
     36 O4B         1.8160   -0.1220   -8.2520 o         1 MXG     -0.800300
     37 O4A         0.1380   -1.1610   -7.1720 o         1 MXG     -0.800300
     38 C3          2.3170   -0.5220   -4.9960 ce        1 MXG     -0.237800
     39 C3A         2.0290   -1.8180   -4.8380 c2        1 MXG     -0.164000
     40 C2          3.4350    0.1470   -4.2970 c3        1 MXG      0.060900
     41 H351        5.3690    1.0710    8.7360 hc        1 MXG      0.058367
     42 H352        5.0060   -0.3600    7.6740 hc        1 MXG      0.058367
     43 H353        5.7660    1.1300    6.9630 hc        1 MXG      0.058367
     44 H32         3.5450    0.4110    5.6270 hn        1 MXG      0.325500
     45 H30         1.1960    1.6110    6.8800 h1        1 MXG      0.091700
     46 H311        2.0010    2.3400    3.9590 hc        1 MXG      0.046367
     47 H312        0.4770    2.7880    4.8380 hc        1 MXG      0.046367
     48 H313        2.0680    3.4670    5.3800 hc        1 MXG      0.046367
     49 H27        -0.8190    0.8580    5.6750 hn        1 MXG      0.335500
     50 H23        -0.5590   -1.9130    4.9550 h1        1 MXG      0.063700
     51 H221       -2.2880   -1.6760    3.0860 hc        1 MXG      0.057200
     52 H222       -1.8470    0.0770    2.9510 hc        1 MXG      0.057200
     53 H211        0.6030   -0.6400    2.6060 hc        1 MXG      0.076200
     54 H212        0.0510   -2.3610    2.6280 hc        1 MXG      0.076200
     55 H18        -0.8240    0.7830    0.9140 hn        1 MXG      0.328500
     56 H12        -0.8150   -0.7500   -1.6130 h1        1 MXG      0.099700
     57 H131       -3.1160    1.0700   -0.5780 hc        1 MXG      0.055200
     58 H132       -2.8510    0.7060   -2.3280 hc        1 MXG      0.055200
     59 H141       -3.2170   -1.6500   -2.0370 hc        1 MXG      0.056700
     60 H142       -3.0080   -1.5690   -0.2490 hc        1 MXG      0.056700
     61 H151       -5.0920   -0.1490   -0.0780 hc        1 MXG      0.042700
     62 H152       -5.3210   -0.2810   -1.8670 hc        1 MXG      0.042700
     63 H161       -5.4890   -2.7540   -1.7290 h1        1 MXG      0.032200
     64 H162       -5.0510   -2.7160    0.0330 h1        1 MXG      0.032200
     65 H171       -7.3470   -2.9030   -0.1040 hn        1 MXG      0.340300
     66 H172       -7.1970   -1.3030    0.1370 hn        1 MXG      0.340300
     67 HN9        -0.3900    0.6620   -3.5060 hn        1 MXG      0.335500
     68 HC7         0.7930    3.2830   -2.7530 h1        1 MXG      0.105700
     69 HC8        -0.1340    4.1360   -5.0920 h4        1 MXG     -0.002800
     70 HC6         1.9700    3.2730   -4.8820 h2        1 MXG      0.074700
     71 HC31        1.2020   -2.2880   -5.3960 ha        1 MXG      0.129000
     72 HC32        2.5950   -2.4660   -4.1570 ha        1 MXG      0.129000
     73 HC21        4.2450    0.3910   -5.0300 h1        1 MXG      0.067200
     74 HC22        3.8700   -0.4980   -3.4940 h1        1 MXG      0.067200
@<TRIPOS>BOND
     1    1    2 2   
     2    2    3 1   
     3    2    4 1   
     4    3   41 1   
     5    3   42 1   
     6    3   43 1   
     7    4    5 1   
     8    4   44 1   
     9    5    6 1   
    10    5    7 1   
    11    5   45 1   
    12    6   46 1   
    13    6   47 1   
    14    6   48 1   
    15    7    8 2   
    16    7    9 1   
    17    9   10 1   
    18    9   49 1   
    19   10   11 1   
    20   10   14 1   
    21   10   50 1   
    22   11   12 1   
    23   11   13 1   
    24   14   15 1   
    25   14   51 1   
    26   14   52 1   
    27   15   16 1   
    28   15   53 1   
    29   15   54 1   
    30   16   17 2   
    31   16   18 1   
    32   18   19 1   
    33   18   55 1   
    34   19   20 1   
    35   19   25 1   
    36   19   56 1   
    37   20   21 1   
    38   20   57 1   
    39   20   58 1   
    40   21   22 1   
    41   21   59 1   
    42   21   60 1   
    43   22   23 1   
    44   22   61 1   
    45   22   62 1   
    46   23   24 1   
    47   23   63 1   
    48   23   64 1   
    49   24   65 1   
    50   24   66 1   
    51   25   26 2   
    52   25   27 1   
    53   27   28 1   
    54   27   67 1   
    55   28   29 1   
    56   28   31 1   
    57   28   68 1   
    58   29   30 2   
    59   29   69 1   
    60   31   32 1   
    61   31   33 1   
    62   31   70 1   
    63   32   40 1   
    64   33   34 2   
    65   34   35 1   
    66   34   38 1   
    67   35   36 1   
    68   35   37 1   
    69   38   39 2   
    70   38   40 1   
    71   39   71 1   
    72   39   72 1   
    73   40   73 1   
    74   40   74 1   
@<TRIPOS>SUBSTRUCTURE
     1 MXG         1 TEMP              0 ****  ****    0 ROOT
