@<TRIPOS>MOLECULE
MXG
   79    78     1     0     0
SMALL
bcc


@<TRIPOS>ATOM
      1 O34         2.5480   -0.7020    0.4400 o         1 MXG     -0.166000
      2 C33         1.4840   -1.2530    0.6620 c2        1 MXG      0.275000
      3 C35         0.7520   -1.3950    1.9510 c3        1 MXG     -0.261000
      4 N32         0.7920   -1.8970   -0.5390 n4        1 MXG     -0.125000
      5 C30         1.6530   -2.0330   -1.7670 c3        1 MXG     -0.124000
      6 C31         1.3890   -3.3440   -2.5000 c3        1 MXG     -0.250000
      7 C28         1.4300   -0.8700   -2.7510 c2        1 MXG      0.088000
      8 O29         0.4220   -0.1700   -2.6970 o         1 MXG     -0.230000
      9 N27         2.5440   -0.5980   -3.7890 n4        1 MXG      0.135000
     10 C23         2.5180    0.6280   -4.4350 c2        1 MXG     -0.589000
     11 C24         5.6050   -3.1220   -3.2180 c1        1 MXG      0.447000
     12 O26         4.5130   -2.6270   -3.1400 o         1 MXG     -0.222000
     13 O25         6.6750   -3.6110   -3.2960 o         1 MXG     -0.222000
     14 C22         1.6830    0.8950   -5.6240 c3        1 MXG     -0.053000
     15 C21         2.3680    1.9950   -6.4290 c3        1 MXG     -0.169000
     16 C19         1.5930    2.3100   -7.6750 c2        1 MXG      0.267000
     17 O20         0.8420    1.5970   -8.3160 o         1 MXG     -0.172000
     18 N18         1.8050    3.7290   -8.2030 n4        1 MXG     -0.120000
     19 C12         1.5090    3.9380   -9.6630 c3        1 MXG     -0.107000
     20 C13         0.8520    5.3060   -9.9310 c3        1 MXG     -0.189000
     21 C14        -0.4950    5.1600  -10.6170 c3        1 MXG     -0.191000
     22 C15        -0.9980    6.5170  -11.0720 c3        1 MXG     -0.178000
     23 C16        -2.4240    6.4840  -11.6110 c3        1 MXG     -0.124000
     24 N17        -2.5490    5.9420  -12.9850 n4        1 MXG     -0.089000
     25 C10         2.8290    3.8280  -10.4820 c2        1 MXG      0.292000
     26 O11         3.9160    3.6990   -9.8920 o         1 MXG     -0.331000
     27 N9          2.7090    3.8070  -11.8660 n         1 MXG     -0.316000
     28 C7          3.8010    4.3730  -12.6500 c3        1 MXG     -0.072000
     29 C8          4.2150    5.7980  -12.2260 c2        1 MXG      0.196000
     30 O8A         3.6580    6.3790  -11.3010 o         1 MXG     -0.258000
     31 C6          3.4780    4.4570  -14.1750 c3        1 MXG     -0.159000
     32 S1          3.9260    2.8170  -14.9630 s4        1 MXG      0.739000
     33 N5          2.1710    4.9350  -14.3780 n2        1 MXG     -0.233000
     34 C4          1.2300    4.3110  -15.0070 c2        1 MXG      0.081000
     35 C4A        -0.2000    4.6970  -14.5910 c2        1 MXG      0.377000
     36 O4B        -0.8540    5.6020  -15.1490 o         1 MXG     -0.537500
     37 O4A        -0.6070    4.0430  -13.5770 o         1 MXG     -0.537500
     38 C3          1.3890    3.1640  -15.9150 c2        1 MXG     -0.239000
     39 C3A         0.3210    2.5300  -16.4290 c2        1 MXG     -0.013000
     40 C2          2.7690    2.8150  -16.3200 c3        1 MXG     -0.336000
     41 H351        0.8310   -2.4500    2.3260 hc        1 MXG      0.165000
     42 H352        1.2330   -0.7160    2.7080 hc        1 MXG      0.165000
     43 H353       -0.3280   -1.1170    1.8550 hc        1 MXG      0.165000
     44 H32         0.4530   -2.8250   -0.2590 hn        1 MXG      0.266000
     45 H30         2.7360   -2.0180   -1.4230 hx        1 MXG      0.182000
     46 H311        2.1650   -3.4600   -3.3000 hc        1 MXG      0.126000
     47 H312        1.4840   -4.2230   -1.8140 hc        1 MXG      0.126000
     48 H313        0.3750   -3.3580   -2.9690 hc        1 MXG      0.126000
     49 H27         2.4700   -1.3740   -4.4520 hn        1 MXG      0.248000
     50 H23         2.8330    1.4900   -3.8320 hx        1 MXG      0.155000
     51 H221        1.5590   -0.0150   -6.2720 hc        1 MXG      0.083500
     52 H222        0.6500    1.2380   -5.3330 hc        1 MXG      0.083500
     53 H211        2.4950    2.9060   -5.7830 hc        1 MXG      0.151000
     54 H212        3.3950    1.6500   -6.7440 hc        1 MXG      0.151000
     55 H18         1.2130    4.3590   -7.6490 hn        1 MXG      0.268500
     56 H12         0.8070    3.1070   -9.9890 hx        1 MXG      0.188000
     57 H131        1.5370    5.9330  -10.5700 hc        1 MXG      0.131000
     58 H132        0.7100    5.8940   -8.9820 hc        1 MXG      0.131000
     59 H141       -0.4050    4.4740  -11.5050 hc        1 MXG      0.115500
     60 H142       -1.2320    4.6980   -9.9070 hc        1 MXG      0.115500
     61 H151       -1.0030    7.2280  -10.2000 hc        1 MXG      0.124000
     62 H152       -0.2980    6.9420  -11.8410 hc        1 MXG      0.124000
     63 H161       -2.8290    7.5390  -11.6220 hx        1 MXG      0.140500
     64 H162       -3.0760    5.8590  -10.9350 hx        1 MXG      0.140500
     65 H171       -3.5200    5.9910  -13.2970 hn        1 MXG      0.273667
     66 H172       -1.9560    6.4640  -13.6590 hn        1 MXG      0.273667
     67 HN9         3.3010    1.9940  -14.1360 hs        1 MXG      0.009000
     68 HC7         4.7090    3.7140  -12.4930 h1        1 MXG      0.155000
     69 HC8         5.0570    6.2280  -12.8080 h4        1 MXG      0.152000
     70 HC6         4.2330    5.1450  -14.6650 h2        1 MXG      0.183000
     71 HC31        0.4140    1.6940  -17.1400 ha        1 MXG      0.161500
     72 HC32       -0.7100    2.8260  -16.1670 ha        1 MXG      0.161500
     73 HC21        3.1640    3.5700  -17.0580 h1        1 MXG      0.183000
     74 HC22        2.8130    1.8100  -16.8180 h1        1 MXG      0.183000
     75 H322       -0.0280   -1.3160   -0.7770 hn        1 MXG      0.266000
     76 H272        3.4210   -0.6820   -3.2600 hn        1 MXG      0.248000
     77 H182        2.7960    3.9810   -8.0340 hn        1 MXG      0.268500
     78 H173       -2.2200    4.9540  -13.0310 hn        1 MXG      0.273667
     79 H92         1.7840    4.0150  -12.2050 hn        1 MXG      0.251000
@<TRIPOS>BOND
     1    1    2 1   
     2    2    3 1   
     3    2    4 1   
     4    3   41 1   
     5    3   42 1   
     6    3   43 1   
     7    4    5 1   
     8    4   44 1   
     9    4   75 1   
    10    5    6 1   
    11    5    7 1   
    12    5   45 1   
    13    6   46 1   
    14    6   47 1   
    15    6   48 1   
    16    7    8 1   
    17    7    9 1   
    18    9   10 1   
    19    9   49 1   
    20    9   76 1   
    21   10   14 1   
    22   10   50 1   
    23   11   12 1   
    24   11   13 1   
    25   14   15 1   
    26   14   51 1   
    27   14   52 1   
    28   15   16 1   
    29   15   53 1   
    30   15   54 1   
    31   16   17 1   
    32   16   18 1   
    33   18   19 1   
    34   18   55 1   
    35   18   77 1   
    36   19   20 1   
    37   19   25 1   
    38   19   56 1   
    39   20   21 1   
    40   20   57 1   
    41   20   58 1   
    42   21   22 1   
    43   21   59 1   
    44   21   60 1   
    45   22   23 1   
    46   22   61 1   
    47   22   62 1   
    48   23   24 1   
    49   23   63 1   
    50   23   64 1   
    51   24   65 1   
    52   24   66 1   
    53   24   78 1   
    54   25   26 1   
    55   25   27 1   
    56   27   28 1   
    57   27   79 1   
    58   28   29 1   
    59   28   31 1   
    60   28   68 1   
    61   29   30 1   
    62   29   69 1   
    63   31   32 1   
    64   31   33 1   
    65   31   70 1   
    66   32   40 1   
    67   32   67 1   
    68   33   34 1   
    69   34   35 1   
    70   34   38 1   
    71   35   36 1   
    72   35   37 1   
    73   38   39 1   
    74   38   40 1   
    75   39   71 1   
    76   39   72 1   
    77   40   73 1   
    78   40   74 1   
@<TRIPOS>SUBSTRUCTURE
     1 MXG         1 TEMP              0 ****  ****    0 ROOT
