@<TRIPOS>MOLECULE
MXG
   79    78     1     0     0
SMALL
bcc


@<TRIPOS>ATOM
      1 O34         2.3470   -0.7350    0.4510 o         1 MXG     -0.166000
      2 C33         1.2860   -1.3020    0.6390 c2        1 MXG      0.275000
      3 C35         0.5190   -1.4630    1.9050 c3        1 MXG     -0.261000
      4 N32         0.6380   -1.9490   -0.5850 n4        1 MXG     -0.125000
      5 C30         1.5360   -2.0670   -1.7870 c3        1 MXG     -0.124000
      6 C31         1.3130   -3.3780   -2.5330 c3        1 MXG     -0.250000
      7 C28         1.3250   -0.9020   -2.7730 c2        1 MXG      0.088000
      8 O29         0.3060   -0.2170   -2.7440 o         1 MXG     -0.230000
      9 N27         2.4650   -0.6110   -3.7770 n4        1 MXG      0.135000
     10 C23         2.4420    0.6200   -4.4150 c2        1 MXG     -0.589000
     11 C24         5.5440   -3.0940   -3.1240 c1        1 MXG      0.447000
     12 O26         4.4430   -2.6160   -3.0780 o         1 MXG     -0.221500
     13 O25         6.6230   -3.5660   -3.1710 o         1 MXG     -0.221500
     14 C22         1.6370    0.8860   -5.6250 c3        1 MXG     -0.053000
     15 C21         2.3430    1.9860   -6.4120 c3        1 MXG     -0.169000
     16 C19         1.5930    2.3110   -7.6720 c2        1 MXG      0.267000
     17 O20         0.8440    1.6060   -8.3250 o         1 MXG     -0.172000
     18 N18         1.8280    3.7280   -8.1940 n4        1 MXG     -0.120000
     19 C12         1.5490    3.9450   -9.6560 c3        1 MXG     -0.107000
     20 C13         0.9150    5.3240   -9.9260 c3        1 MXG     -0.189000
     21 C14        -0.4290    5.1990  -10.6220 c3        1 MXG     -0.191000
     22 C15        -0.9060    6.5650  -11.0800 c3        1 MXG     -0.178000
     23 C16        -2.3270    6.5550  -11.6320 c3        1 MXG     -0.124000
     24 N17        -2.4490    6.0180  -13.0070 n4        1 MXG     -0.089000
     25 C10         2.8740    3.8160  -10.4630 c2        1 MXG      0.292000
     26 O11         3.9540    3.6710   -9.8630 o         1 MXG     -0.331000
     27 N9          2.7660    3.8000  -11.8480 n         1 MXG     -0.316000
     28 C7          3.8730    4.3500  -12.6210 c3        1 MXG     -0.072000
     29 C8          4.3050    5.7680  -12.1910 c2        1 MXG      0.196000
     30 O8A         3.7480    6.3560  -11.2710 o         1 MXG     -0.258000
     31 C6          3.5650    4.4420  -14.1490 c3        1 MXG     -0.159000
     32 S1          3.9930    2.7960  -14.9370 s4        1 MXG      0.739000
     33 N5          2.2670    4.9400  -14.3620 n2        1 MXG     -0.233000
     34 C4          1.3210    4.3330  -15.0000 c2        1 MXG      0.081000
     35 C4A        -0.1060    4.7400  -14.5960 c2        1 MXG      0.377000
     36 O4B        -0.7420    5.6550  -15.1570 o         1 MXG     -0.537500
     37 O4A        -0.5300    4.0910  -13.5860 o         1 MXG     -0.537500
     38 C3          1.4700    3.1850  -15.9090 c2        1 MXG     -0.239000
     39 C3A         0.3970    2.5690  -16.4340 c2        1 MXG     -0.013000
     40 C2          2.8480    2.8150  -16.3030 c3        1 MXG     -0.336000
     41 H351       -0.5610   -1.1970    1.7800 hc        1 MXG      0.165000
     42 H352        0.5990   -2.5190    2.2760 hc        1 MXG      0.165000
     43 H353        0.9680   -0.7830    2.6810 hc        1 MXG      0.165000
     44 H32         0.3040   -2.8830   -0.3200 hn        1 MXG      0.266000
     45 H30         2.6080   -2.0380   -1.4120 hx        1 MXG      0.182000
     46 H311        1.4000   -4.2590   -1.8490 hc        1 MXG      0.126000
     47 H312        0.3140   -3.4040   -3.0320 hc        1 MXG      0.126000
     48 H313        2.1140   -3.4800   -3.3110 hc        1 MXG      0.126000
     49 H27         2.4180   -1.3830   -4.4480 hn        1 MXG      0.248000
     50 H23         2.7310    1.4800   -3.7970 hx        1 MXG      0.155000
     51 H221        1.5290   -0.0230   -6.2760 hc        1 MXG      0.083500
     52 H222        0.5980    1.2300   -5.3600 hc        1 MXG      0.083500
     53 H211        2.4620    2.8940   -5.7610 hc        1 MXG      0.151000
     54 H212        3.3730    1.6370   -6.7090 hc        1 MXG      0.151000
     55 H18         2.8210    3.9660   -8.0150 hn        1 MXG      0.268500
     56 H12         0.8370    3.1260   -9.9890 hx        1 MXG      0.188000
     57 H131        0.7760    5.9110   -8.9770 hc        1 MXG      0.131000
     58 H132        1.6150    5.9400  -10.5590 hc        1 MXG      0.131000
     59 H141       -0.3430    4.5140  -11.5110 hc        1 MXG      0.115500
     60 H142       -1.1780    4.7490   -9.9190 hc        1 MXG      0.115500
     61 H151       -0.9070    7.2750  -10.2070 hc        1 MXG      0.124000
     62 H152       -0.1920    6.9800  -11.8420 hc        1 MXG      0.124000
     63 H161       -2.7160    7.6170  -11.6440 hx        1 MXG      0.140500
     64 H162       -2.9950    5.9410  -10.9620 hx        1 MXG      0.140500
     65 H171       -2.1340    5.0250  -13.0510 hn        1 MXG      0.273667
     66 H172       -1.8430    6.5320  -13.6750 hn        1 MXG      0.273667
     67 HN9         3.3490    1.9820  -14.1160 hs        1 MXG      0.009000
     68 HC7         4.7700    3.6770  -12.4580 h1        1 MXG      0.155000
     69 HC8         5.1580    6.1860  -12.7650 h4        1 MXG      0.152000
     70 HC6         4.3340    5.1180  -14.6320 h2        1 MXG      0.183000
     71 HC31       -0.6310    2.8810  -16.1810 ha        1 MXG      0.161500
     72 HC32        0.4830    1.7330  -17.1470 ha        1 MXG      0.161500
     73 HC21        2.8810    1.8100  -16.8030 h1        1 MXG      0.183000
     74 HC22        3.2620    3.5640  -17.0370 h1        1 MXG      0.183000
     75 H322       -0.1830   -1.3780   -0.8440 hn        1 MXG      0.266000
     76 H272        3.3270   -0.6880   -3.2250 hn        1 MXG      0.248000
     77 H182        1.2400    4.3640   -7.6430 hn        1 MXG      0.268500
     78 H173       -3.4170    6.0820  -13.3270 hn        1 MXG      0.273667
     79 H92         1.8470    4.0210  -12.1940 hn        1 MXG      0.250000
@<TRIPOS>BOND
     1    1    2 1   
     2    2    3 1   
     3    2    4 1   
     4    3   41 1   
     5    3   42 1   
     6    3   43 1   
     7    4    5 1   
     8    4   44 1   
     9    4   75 1   
    10    5    6 1   
    11    5    7 1   
    12    5   45 1   
    13    6   46 1   
    14    6   47 1   
    15    6   48 1   
    16    7    8 1   
    17    7    9 1   
    18    9   10 1   
    19    9   49 1   
    20    9   76 1   
    21   10   14 1   
    22   10   50 1   
    23   11   12 1   
    24   11   13 1   
    25   14   15 1   
    26   14   51 1   
    27   14   52 1   
    28   15   16 1   
    29   15   53 1   
    30   15   54 1   
    31   16   17 1   
    32   16   18 1   
    33   18   19 1   
    34   18   55 1   
    35   18   77 1   
    36   19   20 1   
    37   19   25 1   
    38   19   56 1   
    39   20   21 1   
    40   20   57 1   
    41   20   58 1   
    42   21   22 1   
    43   21   59 1   
    44   21   60 1   
    45   22   23 1   
    46   22   61 1   
    47   22   62 1   
    48   23   24 1   
    49   23   63 1   
    50   23   64 1   
    51   24   65 1   
    52   24   66 1   
    53   24   78 1   
    54   25   26 1   
    55   25   27 1   
    56   27   28 1   
    57   27   79 1   
    58   28   29 1   
    59   28   31 1   
    60   28   68 1   
    61   29   30 1   
    62   29   69 1   
    63   31   32 1   
    64   31   33 1   
    65   31   70 1   
    66   32   40 1   
    67   32   67 1   
    68   33   34 1   
    69   34   35 1   
    70   34   38 1   
    71   35   36 1   
    72   35   37 1   
    73   38   39 1   
    74   38   40 1   
    75   39   71 1   
    76   39   72 1   
    77   40   73 1   
    78   40   74 1   
@<TRIPOS>SUBSTRUCTURE
     1 MXG         1 TEMP              0 ****  ****    0 ROOT
