@<TRIPOS>MOLECULE
MXG
   74    71     1     0     0
SMALL
bcc


@<TRIPOS>ATOM
      1 O34        -7.1330    0.9890    6.1650 o         1 MXG     -0.390000
      2 C33        -6.8610    2.1950    6.2920 c1        1 MXG      0.295000
      3 C35        -7.7710    3.1040    7.1430 c2        1 MXG     -0.243000
      4 N32        -5.6440    2.7080    5.7590 n3        1 MXG     -0.349000
      5 C30        -5.0890    2.1380    4.5750 c3        1 MXG     -0.010000
      6 C31        -5.6710    2.8440    3.3520 c3        1 MXG     -0.217000
      7 C28        -3.6000    2.3070    4.5910 c2        1 MXG      0.272000
      8 O29        -3.1150    3.3100    5.0500 o         1 MXG     -0.427000
      9 N27        -2.7250    1.1760    4.2090 n         1 MXG     -0.324000
     10 C23        -1.3170    1.3880    4.0470 c3        1 MXG     -0.063000
     11 C24        -0.6330    1.2180    5.3610 c2        1 MXG      0.335000
     12 O26         0.0470    2.1680    5.8460 o         1 MXG     -0.562000
     13 O25        -0.7350    0.1370    5.9880 o         1 MXG     -0.562000
     14 C22        -0.7510    0.3780    3.0360 c3        1 MXG     -0.158000
     15 C21         0.5720    0.8810    2.5240 c3        1 MXG     -0.181000
     16 C19         0.8020    0.3720    1.0550 c2        1 MXG      0.312000
     17 O20         0.0830    0.7790    0.1420 o         1 MXG     -0.413000
     18 N18         1.9250   -0.5320    0.7560 n         1 MXG     -0.375000
     19 C12         2.4710   -0.5840   -0.5800 c3        1 MXG      0.022000
     20 C13         3.9850   -0.8500   -0.5080 c3        1 MXG     -0.167000
     21 C14         4.7590    0.5000   -0.7040 c3        1 MXG     -0.164000
     22 C15         6.2980    0.2250   -0.7220 c3        1 MXG     -0.160000
     23 C16         7.0400    1.5220   -0.9780 c3        1 MXG     -0.087000
     24 N17         8.4090    1.2460   -1.2090 n3        1 MXG     -0.348000
     25 C10         1.8050   -1.6750   -1.3530 c2        1 MXG      0.284000
     26 O11         1.3730   -2.6040   -0.7960 o         1 MXG     -0.403000
     27 N9          1.6740   -1.5650   -2.7750 n         1 MXG     -0.356000
     28 C7          0.7030   -2.3340   -3.4540 c3        1 MXG     -0.010000
     29 C8          0.2500   -3.4500   -2.5780 c2        1 MXG      0.213000
     30 O8A         1.0150   -4.4080   -2.3440 o         1 MXG     -0.300000
     31 C6          1.3300   -2.9290   -4.7760 c3        1 MXG     -0.094000
     32 S1          0.4760   -4.2290   -5.2780 ss        1 MXG     -0.097000
     33 N5          1.4460   -1.8480   -5.8550 n2        1 MXG     -0.208000
     34 C4          0.2920   -1.8150   -7.0430 c1        1 MXG      0.004000
     35 C4A         0.5470   -1.0590   -8.3070 c1        1 MXG      0.389000
     36 O4B         0.1400    0.1070   -8.4250 o         1 MXG     -0.535000
     37 O4A         1.2260   -1.5730   -9.2120 o         1 MXG     -0.535000
     38 C3         -0.9750   -2.9860   -6.9850 c2        1 MXG     -0.134000
     39 C3A        -1.9620   -2.9970   -7.9410 c1        1 MXG     -0.173000
     40 C2         -0.9760   -3.9910   -5.8690 c3        1 MXG     -0.203000
     41 H351       -7.5010    3.0460    8.0810 ha        1 MXG      0.098000
     42 H352       -7.6870    4.0510    6.8290 ha        1 MXG      0.098000
     43 H353       -8.7070    2.8100    7.0520 ha        1 MXG      0.098000
     44 H32        -5.2630    3.4520    6.1290 hn        1 MXG      0.238000
     45 H30        -5.3140    1.1600    4.5360 h1        1 MXG      0.130000
     46 H311       -5.0980    2.6640    2.5630 hc        1 MXG      0.085333
     47 H312       -6.5540    2.5180    3.1860 hc        1 MXG      0.085333
     48 H313       -5.7050    3.8180    3.5190 hc        1 MXG      0.085333
     49 H27        -3.0800    0.3300    4.1090 hn        1 MXG      0.252000
     50 H23        -1.1510    2.3530    3.6960 h1        1 MXG      0.099000
     51 H221       -0.6260   -0.4930    3.4780 hc        1 MXG      0.080500
     52 H222       -1.3680    0.2800    2.2930 hc        1 MXG      0.080500
     53 H211        1.2790    0.5560    3.0890 hc        1 MXG      0.139500
     54 H212        0.5700    1.8540    2.5320 hc        1 MXG      0.139500
     55 H18         2.3210   -1.0230    1.4390 hn        1 MXG      0.247000
     56 H12         2.3150    0.2700   -1.0280 h1        1 MXG      0.139000
     57 H131        4.2130   -1.2380    0.3810 hc        1 MXG      0.090500
     58 H132        4.2470   -1.4970   -1.2330 hc        1 MXG      0.090500
     59 H141        4.4950    0.9030   -1.5430 hc        1 MXG      0.099500
     60 H142        4.5440    1.1130    0.0360 hc        1 MXG      0.099500
     61 H151        6.5060   -0.4150   -1.4360 hc        1 MXG      0.081000
     62 H152        6.5800   -0.1530    0.1560 hc        1 MXG      0.081000
     63 H161        6.9550    2.0970   -0.2180 h1        1 MXG      0.071000
     64 H162        6.6550    1.9660   -1.7710 h1        1 MXG      0.071000
     65 H171        8.9300    1.6670   -0.5480 hn        1 MXG      0.134000
     66 H172        8.6560    1.5690   -2.0560 hn        1 MXG      0.134000
     67 HN9         2.1740   -0.9250   -3.2410 hn        1 MXG      0.262000
     68 HC7        -0.0680   -1.7620   -3.6840 h1        1 MXG      0.104000
     69 HC8        -0.6420   -3.4000   -2.1270 h4        1 MXG      0.105000
     70 HC6         2.2330   -3.2040   -4.4530 h2        1 MXG      0.142000
     71 HC31       -2.6820   -3.6700   -7.8990 DU        1 MXG      0.086000
     72 HC32       -1.9500   -2.3230   -8.6780 ha        1 MXG      0.163000
     73 HC21       -1.6730   -3.7810   -5.1860 h1        1 MXG      0.105500
     74 HC22       -1.3110   -4.8540   -6.2030 h1        1 MXG      0.105500
@<TRIPOS>BOND
     1    1    2 1   
     2    2    4 1   
     3    3   41 1   
     4    3   42 1   
     5    3   43 1   
     6    4    5 1   
     7    4   44 1   
     8    5    6 1   
     9    5    7 1   
    10    5   45 1   
    11    6   46 1   
    12    6   47 1   
    13    6   48 1   
    14    7    8 1   
    15    7    9 1   
    16    9   10 1   
    17    9   49 1   
    18   10   11 1   
    19   10   14 1   
    20   10   50 1   
    21   11   12 1   
    22   11   13 1   
    23   14   15 1   
    24   14   51 1   
    25   14   52 1   
    26   15   16 1   
    27   15   53 1   
    28   15   54 1   
    29   16   17 1   
    30   16   18 1   
    31   18   19 1   
    32   18   55 1   
    33   19   20 1   
    34   19   25 1   
    35   19   56 1   
    36   20   21 1   
    37   20   57 1   
    38   20   58 1   
    39   21   22 1   
    40   21   59 1   
    41   21   60 1   
    42   22   23 1   
    43   22   61 1   
    44   22   62 1   
    45   23   24 1   
    46   23   63 1   
    47   23   64 1   
    48   24   65 1   
    49   24   66 1   
    50   25   26 1   
    51   25   27 1   
    52   27   28 1   
    53   27   67 1   
    54   28   29 1   
    55   28   31 1   
    56   28   68 1   
    57   29   30 1   
    58   29   69 1   
    59   31   32 1   
    60   31   33 1   
    61   31   70 1   
    62   32   40 1   
    63   33   34 1   
    64   34   38 1   
    65   35   36 1   
    66   35   37 1   
    67   38   39 1   
    68   38   40 1   
    69   39   72 1   
    70   40   73 1   
    71   40   74 1   
@<TRIPOS>SUBSTRUCTURE
     1 MXG         1 TEMP              0 ****  ****    0 ROOT
