@<TRIPOS>MOLECULE
MXG
   79    79     1     0     0
SMALL
bcc


@<TRIPOS>ATOM
      1 O34         3.2460   -3.3160   -2.0250 o         1 MXG     -0.401100
      2 C33         3.2760   -2.9840   -0.8550 c         1 MXG      0.568100
      3 C35         4.0460   -3.5700    0.2770 c3        1 MXG     -0.193100
      4 N32         2.3970   -1.7880   -0.4710 ny        1 MXG     -0.696800
      5 C30         1.3770   -1.3920   -1.5040 c3        1 MXG      0.060500
      6 C31         0.0420   -1.0300   -0.8640 c3        1 MXG     -0.137100
      7 C28         1.8890   -0.1880   -2.3310 c         1 MXG      0.658100
      8 O29         2.8750    0.4720   -1.9400 o         1 MXG     -0.609100
      9 N27         1.2330    0.1190   -3.4960 ns        1 MXG     -0.543900
     10 C23         1.5320    1.3270   -4.2370 c3        1 MXG      0.013700
     11 C24         2.7210    1.1530   -5.1910 c         1 MXG      0.643100
     12 O26         3.9470    0.8410   -4.7330 oh        1 MXG     -0.528100
     13 O25         2.6650    1.3450   -6.4120 o         1 MXG     -0.579000
     14 C22         0.3020    1.8320   -5.0180 c3        1 MXG     -0.087400
     15 C21         0.6000    3.0770   -5.8400 c3        1 MXG     -0.138400
     16 C19         0.6590    2.7580   -7.3160 c         1 MXG      0.574100
     17 O20        -0.0940    2.0260   -7.9370 o         1 MXG     -0.417100
     18 N18         1.7650    3.4310   -8.0910 ny        1 MXG     -0.668800
     19 C12         1.5210    3.5630   -9.5710 c3        1 MXG      0.047500
     20 C13         0.4690    4.6360   -9.9020 c3        1 MXG     -0.106400
     21 C14        -0.6530    4.0710  -10.7570 c3        1 MXG     -0.112400
     22 C15        -1.5330    5.1920  -11.2760 c3        1 MXG     -0.098400
     23 C16        -2.7930    4.6970  -11.9780 c3        1 MXG      0.112800
     24 N17        -2.5710    4.1730  -13.3460 nz        1 MXG     -0.861600
     25 C10         2.8720    3.9130  -10.2640 c         1 MXG      0.642100
     26 O11         3.8880    4.1080   -9.5750 o         1 MXG     -0.563100
     27 N9          2.8840    3.9140  -11.6520 ns        1 MXG     -0.508900
     28 C7          3.8110    4.8230  -12.3180 c3        1 MXG     -0.046300
     29 C8          3.6600    6.3000  -11.9000 c         1 MXG      0.578900
     30 O8A         2.8470    6.6450  -11.0500 o         1 MXG     -0.501100
     31 C6          3.6730    4.7970  -13.8730 c3        1 MXG      0.431800
     32 S1          4.7350    3.4010  -14.5350 s4        1 MXG     -0.514600
     33 N5          2.3170    4.8120  -14.2480 n2        1 MXG     -0.644900
     34 C4          1.7160    3.8940  -14.9300 ce        1 MXG      0.524600
     35 C4A         0.2030    3.7800  -14.6780 c         1 MXG      0.838300
     36 O4B        -0.6520    4.4180  -15.3250 o         1 MXG     -0.803800
     37 O4A        -0.0680    3.0260  -13.6880 o         1 MXG     -0.803800
     38 C3          2.3520    2.8480  -15.7470 ce        1 MXG     -0.328800
     39 C3A         1.6250    1.8730  -16.3200 c2        1 MXG     -0.014000
     40 C2          3.8040    2.9840  -15.9970 c3        1 MXG      0.172100
     41 H351        4.5800   -2.7880    0.8740 hc        1 MXG      0.128367
     42 H352        4.8080   -4.2820   -0.1460 hc        1 MXG      0.128367
     43 H353        3.3610   -4.1490    0.9520 hc        1 MXG      0.128367
     44 H32         1.9110   -2.0100    0.4070 hn        1 MXG      0.478800
     45 H30         1.2370   -2.2820   -2.1960 hx        1 MXG      0.144700
     46 H311       -0.7040   -0.8180   -1.6710 hc        1 MXG      0.091700
     47 H312       -0.3570   -1.8810   -0.2560 hc        1 MXG      0.091700
     48 H313        0.1270   -0.1260   -0.2120 hc        1 MXG      0.091700
     49 H27         3.9650    0.7880   -3.7600 ho        1 MXG      0.468000
     50 H23         1.8470    2.1280   -3.4920 h1        1 MXG      0.115700
     51 H221       -0.5070    2.0830   -4.2780 hc        1 MXG      0.096700
     52 H222       -0.0900    1.0160   -5.6860 hc        1 MXG      0.096700
     53 H211        1.5440    3.5680   -5.4820 hc        1 MXG      0.108700
     54 H212       -0.2410    3.8190   -5.7120 hc        1 MXG      0.108700
     55 H18         1.9470    4.3640   -7.7030 hn        1 MXG      0.486300
     56 H12         1.1710    2.5480   -9.9360 hx        1 MXG      0.146700
     57 H131        0.0230    5.0680   -8.9660 hc        1 MXG      0.087200
     58 H132        0.9620    5.4970  -10.4360 hc        1 MXG      0.087200
     59 H141       -0.2270    3.4960  -11.6260 hc        1 MXG      0.078700
     60 H142       -1.2610    3.3530  -10.1450 hc        1 MXG      0.078700
     61 H151       -1.8770    5.8300  -10.4150 hc        1 MXG      0.082700
     62 H152       -0.9380    5.8550  -11.9600 hc        1 MXG      0.082700
     63 H161       -3.5230    5.5570  -12.0560 hx        1 MXG      0.100700
     64 H162       -3.2740    3.8770  -11.3700 hx        1 MXG      0.100700
     65 H171       -3.4610    3.9070  -13.7710 hn        1 MXG      0.478800
     66 H172       -2.1080    4.8730  -13.9560 hn        1 MXG      0.478800
     67 HN9         4.3420    2.4230  -13.7340 hs        1 MXG      0.414000
     68 HC7         4.8620    4.5120  -12.0280 h1        1 MXG      0.118700
     69 HC8         4.3530    7.0000  -12.4120 h4        1 MXG      0.059200
     70 HC6         4.2120    5.6980  -14.2980 h2        1 MXG      0.143700
     71 HC31        2.0730    1.1020  -16.9670 ha        1 MXG      0.160500
     72 HC32        0.5330    1.8020  -16.1740 ha        1 MXG      0.160500
     73 HC21        4.0000    3.8160  -16.7310 h1        1 MXG      0.143700
     74 HC22        4.2390    2.0460  -16.4360 h1        1 MXG      0.143700
     75 H322        3.0240   -0.9830   -0.2970 hn        1 MXG      0.478800
     76 H272        0.4930   -0.4580   -3.8280 hn        1 MXG      0.349500
     77 H182        2.6310    2.8670   -7.9570 hn        1 MXG      0.486300
     78 H173       -1.9340    3.3480  -13.3330 hn        1 MXG      0.478800
     79 H92         1.9760    3.8360  -12.0790 hn        1 MXG      0.337500
@<TRIPOS>BOND
     1    1    2 2   
     2    2    3 1   
     3    2    4 1   
     4    3   41 1   
     5    3   42 1   
     6    3   43 1   
     7    4    5 1   
     8    4   44 1   
     9    4   75 1   
    10    5    6 1   
    11    5    7 1   
    12    5   45 1   
    13    6   46 1   
    14    6   47 1   
    15    6   48 1   
    16    7    8 2   
    17    7    9 1   
    18    9   10 1   
    19    9   76 1   
    20   10   11 1   
    21   10   14 1   
    22   10   50 1   
    23   11   12 1   
    24   11   13 2   
    25   12   49 1   
    26   14   15 1   
    27   14   51 1   
    28   14   52 1   
    29   15   16 1   
    30   15   53 1   
    31   15   54 1   
    32   16   17 2   
    33   16   18 1   
    34   18   19 1   
    35   18   55 1   
    36   18   77 1   
    37   19   20 1   
    38   19   25 1   
    39   19   56 1   
    40   20   21 1   
    41   20   57 1   
    42   20   58 1   
    43   21   22 1   
    44   21   59 1   
    45   21   60 1   
    46   22   23 1   
    47   22   61 1   
    48   22   62 1   
    49   23   24 1   
    50   23   63 1   
    51   23   64 1   
    52   24   65 1   
    53   24   66 1   
    54   24   78 1   
    55   25   26 2   
    56   25   27 1   
    57   27   28 1   
    58   27   79 1   
    59   28   29 1   
    60   28   31 1   
    61   28   68 1   
    62   29   30 2   
    63   29   69 1   
    64   31   32 1   
    65   31   33 1   
    66   31   70 1   
    67   32   40 1   
    68   32   67 1   
    69   33   34 2   
    70   34   35 1   
    71   34   38 1   
    72   35   36 1   
    73   35   37 1   
    74   38   39 2   
    75   38   40 1   
    76   39   71 1   
    77   39   72 1   
    78   40   73 1   
    79   40   74 1   
@<TRIPOS>SUBSTRUCTURE
     1 MXG         1 TEMP              0 ****  ****    0 ROOT
