@<TRIPOS>MOLECULE
MXI
   52    55     1     0     0
SMALL
bcc


@<TRIPOS>ATOM
      1 N26        -0.1790   -0.5430   -0.2570 nv        1 MXI     -0.922500
      2 C8          1.1920   -0.2650   -0.1380 ca        1 MXI      0.625200
      3 N9          1.7520   -0.1750    1.1140 nb        1 MXI     -0.720000
      4 C10         3.0800   -0.0070    1.1840 ca        1 MXI      0.434200
      5 C11         3.9330    0.0950    0.0740 ca        1 MXI     -0.272300
      6 C7          1.9820   -0.1590   -1.3210 ca        1 MXI     -0.304300
      7 C6          3.3650    0.0170   -1.2050 ca        1 MXI      0.060000
      8 C5          4.2030    0.0940   -2.3860 cc        1 MXI     -0.168600
      9 N1          3.9650   -0.6770   -3.5320 na        1 MXI     -0.305900
     10 C2          4.9810   -0.3920   -4.4540 cc        1 MXI      0.423800
     11 C22         5.0460   -1.0540   -5.8080 c3        1 MXI     -0.075300
     12 C24         3.7810   -0.7200   -6.5900 c3        1 MXI     -0.088100
     13 C23         6.2590   -0.5560   -6.5830 c3        1 MXI     -0.088100
     14 C25         5.1540   -2.5630   -5.6230 c3        1 MXI     -0.088100
     15 C4          5.3730    0.8500   -2.6690 cd        1 MXI      0.388800
     16 N3          5.8380    0.5320   -3.9520 nd        1 MXI     -0.661000
     17 C12         6.0320    1.8330   -1.8260 ca        1 MXI     -0.123500
     18 C21         7.4080    1.9520   -1.8210 ca        1 MXI     -0.076000
     19 C20         8.0490    2.9240   -1.0060 ca        1 MXI     -0.072000
     20 C15         7.2640    3.7850   -0.1970 ca        1 MXI     -0.002000
     21 C14         5.8470    3.6510   -0.2260 ca        1 MXI     -0.133000
     22 C13         5.2490    2.7040   -1.0150 ca        1 MXI     -0.106000
     23 C19         9.4630    3.0560   -0.9840 ca        1 MXI     -0.080000
     24 C18        10.0740    3.9980   -0.1950 ca        1 MXI     -0.188000
     25 C17         9.2810    4.8560    0.6130 ca        1 MXI      0.123100
     26 C16         7.8980    4.7560    0.6160 ca        1 MXI     -0.161000
     27 O27         9.8050    5.8320    1.4410 os        1 MXI     -0.328900
     28 C28        11.2210    5.9660    1.4410 c3        1 MXI      0.114700
     29 H261       -0.7150   -0.4400    0.5780 hn        1 MXI      0.402300
     30 H262       -0.6010   -0.1290   -1.0580 hn        1 MXI      0.402300
     31 H7          1.5030   -0.2080   -2.3080 ha        1 MXI      0.138000
     32 H10         3.4880    0.0550    2.2110 h4        1 MXI      0.025100
     33 H11         5.0140    0.2410    0.2030 ha        1 MXI      0.161000
     34 H1          3.2380   -1.3350   -3.6400 hn        1 MXI      0.304700
     35 H241        3.6600    0.3870   -6.6760 hc        1 MXI      0.043144
     36 H242        3.8490   -1.1540   -7.6160 hc        1 MXI      0.043144
     37 H243        2.8770   -1.1430   -6.0890 hc        1 MXI      0.043144
     38 H231        6.2920   -1.0550   -7.5820 hc        1 MXI      0.043144
     39 H232        7.1990   -0.7930   -6.0320 hc        1 MXI      0.043144
     40 H233        6.2010    0.5480   -6.7340 hc        1 MXI      0.043144
     41 H251        4.2380   -2.9750   -5.1370 hc        1 MXI      0.043144
     42 H252        6.0400   -2.8140   -4.9920 hc        1 MXI      0.043144
     43 H253        5.2740   -3.0540   -6.6190 hc        1 MXI      0.043144
     44 H21         8.0310    1.2990   -2.4510 ha        1 MXI      0.147000
     45 H13         4.1530    2.5990   -1.0370 ha        1 MXI      0.139000
     46 H19        10.0640    2.3850   -1.6170 ha        1 MXI      0.136000
     47 H14         5.2420    4.3270    0.3980 ha        1 MXI      0.135000
     48 H16         7.2950    5.4260    1.2440 ha        1 MXI      0.150000
     49 H18        11.1690    4.0890   -0.1890 ha        1 MXI      0.137000
     50 H281       11.5940    6.2360    0.4230 h1        1 MXI      0.043367
     51 H282       11.7080    5.0270    1.8010 h1        1 MXI      0.043367
     52 H283       11.4020    6.8040    2.1610 h1        1 MXI      0.043367
@<TRIPOS>BOND
     1    1    2 1   
     2    1   29 1   
     3    1   30 1   
     4    2    3 ar  
     5    2    6 ar  
     6    3    4 ar  
     7    4    5 ar  
     8    4   32 1   
     9    5    7 ar  
    10    5   33 1   
    11    6    7 ar  
    12    6   31 1   
    13    7    8 1   
    14    8    9 1   
    15    8   15 2   
    16    9   10 1   
    17    9   34 1   
    18   10   11 1   
    19   10   16 2   
    20   11   12 1   
    21   11   13 1   
    22   11   14 1   
    23   12   35 1   
    24   12   36 1   
    25   12   37 1   
    26   13   38 1   
    27   13   39 1   
    28   13   40 1   
    29   14   41 1   
    30   14   42 1   
    31   14   43 1   
    32   15   16 1   
    33   15   17 1   
    34   17   18 ar  
    35   17   22 ar  
    36   18   19 ar  
    37   18   44 1   
    38   19   20 ar  
    39   19   23 ar  
    40   20   21 ar  
    41   20   26 ar  
    42   21   22 ar  
    43   21   47 1   
    44   22   45 1   
    45   23   24 ar  
    46   23   46 1   
    47   24   25 ar  
    48   24   49 1   
    49   25   26 ar  
    50   25   27 1   
    51   26   48 1   
    52   27   28 1   
    53   28   50 1   
    54   28   51 1   
    55   28   52 1   
@<TRIPOS>SUBSTRUCTURE
     1 MXI         1 TEMP              0 ****  ****    0 ROOT
