@<TRIPOS>MOLECULE
MXI
   52    55     1     0     0
SMALL
bcc


@<TRIPOS>ATOM
      1 N26        -4.2920    4.5230   -0.5640 nh        1 MXI     -0.922500
      2 C8         -3.1870    3.7920   -0.0990 ca        1 MXI      0.625200
      3 N9         -2.2060    4.4410    0.6130 nb        1 MXI     -0.720000
      4 C10        -1.2190    3.6920    1.1230 ca        1 MXI      0.434200
      5 C11        -1.1110    2.3000    0.9740 ca        1 MXI     -0.272300
      6 C7         -3.1510    2.3820   -0.3110 ca        1 MXI     -0.304300
      7 C6         -2.1030    1.6350    0.2390 ca        1 MXI      0.060000
      8 C5         -2.0530    0.1960    0.0720 cc        1 MXI     -0.168600
      9 N1         -3.2020   -0.6060    0.0870 na        1 MXI     -0.305900
     10 C2         -2.7910   -1.9380   -0.0530 cc        1 MXI      0.423800
     11 C22        -3.7730   -3.0830   -0.0700 c3        1 MXI     -0.075300
     12 C24        -4.7310   -2.9030   -1.2410 c3        1 MXI     -0.088100
     13 C23        -3.0380   -4.4090   -0.2250 c3        1 MXI     -0.088100
     14 C25        -4.5530   -3.0940    1.2390 c3        1 MXI     -0.088100
     15 C4         -0.9620   -0.7000   -0.0980 cd        1 MXI      0.388800
     16 N3         -1.4420   -2.0140   -0.1710 nd        1 MXI     -0.661000
     17 C12         0.4520   -0.3820   -0.2100 ca        1 MXI     -0.123500
     18 C21         1.4100   -1.2140    0.3330 ca        1 MXI     -0.076000
     19 C20         2.7920   -0.9080    0.2090 ca        1 MXI     -0.072000
     20 C15         3.1890    0.2610   -0.4900 ca        1 MXI     -0.002000
     21 C14         2.1840    1.1000   -1.0500 ca        1 MXI     -0.133000
     22 C13         0.8570    0.7880   -0.9150 ca        1 MXI     -0.106000
     23 C19         3.7890   -1.7500    0.7680 ca        1 MXI     -0.080000
     24 C18         5.1230   -1.4480    0.6420 ca        1 MXI     -0.188000
     25 C17         5.5110   -0.2750   -0.0580 ca        1 MXI      0.123100
     26 C16         4.5650    0.5700   -0.6170 ca        1 MXI     -0.161000
     27 O27         6.8280    0.1130   -0.2330 os        1 MXI     -0.328900
     28 C28         7.8180   -0.7470    0.3140 c3        1 MXI      0.114700
     29 H261       -4.1940    5.5150   -0.5440 hn        1 MXI      0.402300
     30 H262       -4.6680    4.1750   -1.4170 hn        1 MXI      0.402300
     31 H7         -3.9340    1.8950   -0.9060 ha        1 MXI      0.138000
     32 H10        -0.4540    4.2530    1.6920 h4        1 MXI      0.025100
     33 H11        -0.2690    1.7480    1.4130 ha        1 MXI      0.161000
     34 H1         -4.1240   -0.2840    0.2210 hn        1 MXI      0.304700
     35 H241       -4.1640   -2.8320   -2.1990 hc        1 MXI      0.043144
     36 H242       -5.4210   -3.7800   -1.2980 hc        1 MXI      0.043144
     37 H243       -5.3460   -1.9800   -1.1160 hc        1 MXI      0.043144
     38 H231       -2.4600   -4.4270   -1.1790 hc        1 MXI      0.043144
     39 H232       -2.3310   -4.5660    0.6250 hc        1 MXI      0.043144
     40 H233       -3.7780   -5.2450   -0.2360 hc        1 MXI      0.043144
     41 H251       -5.1760   -2.1740    1.3430 hc        1 MXI      0.043144
     42 H252       -5.2320   -3.9810    1.2630 hc        1 MXI      0.043144
     43 H253       -3.8540   -3.1560    2.1070 hc        1 MXI      0.043144
     44 H21         1.1190   -2.1320    0.8690 ha        1 MXI      0.147000
     45 H13         0.0790    1.4370   -1.3480 ha        1 MXI      0.139000
     46 H19         3.4730   -2.6570    1.3060 ha        1 MXI      0.136000
     47 H14         2.4970    2.0010   -1.5980 ha        1 MXI      0.135000
     48 H16         4.8780    1.4740   -1.1570 ha        1 MXI      0.150000
     49 H18         5.8850   -2.1090    1.0790 ha        1 MXI      0.137000
     50 H281        8.7800   -0.2410    0.0420 h1        1 MXI      0.043367
     51 H282        7.7120   -0.8180    1.4230 h1        1 MXI      0.043367
     52 H283        7.7630   -1.7610   -0.1510 h1        1 MXI      0.043367
@<TRIPOS>BOND
     1    1    2 1   
     2    1   29 1   
     3    1   30 1   
     4    2    3 ar  
     5    2    6 ar  
     6    3    4 ar  
     7    4    5 ar  
     8    4   32 1   
     9    5    7 ar  
    10    5   33 1   
    11    6    7 ar  
    12    6   31 1   
    13    7    8 1   
    14    8    9 1   
    15    8   15 2   
    16    9   10 1   
    17    9   34 1   
    18   10   11 1   
    19   10   16 2   
    20   11   12 1   
    21   11   13 1   
    22   11   14 1   
    23   12   35 1   
    24   12   36 1   
    25   12   37 1   
    26   13   38 1   
    27   13   39 1   
    28   13   40 1   
    29   14   41 1   
    30   14   42 1   
    31   14   43 1   
    32   15   16 1   
    33   15   17 1   
    34   17   18 ar  
    35   17   22 ar  
    36   18   19 ar  
    37   18   44 1   
    38   19   20 ar  
    39   19   23 ar  
    40   20   21 ar  
    41   20   26 ar  
    42   21   22 ar  
    43   21   47 1   
    44   22   45 1   
    45   23   24 ar  
    46   23   46 1   
    47   24   25 ar  
    48   24   49 1   
    49   25   26 ar  
    50   25   27 1   
    51   26   48 1   
    52   27   28 1   
    53   28   50 1   
    54   28   51 1   
    55   28   52 1   
@<TRIPOS>SUBSTRUCTURE
     1 MXI         1 TEMP              0 ****  ****    0 ROOT
