@<TRIPOS>MOLECULE
MXI
   53    56     1     0     0
SMALL
bcc


@<TRIPOS>ATOM
      1 N26        -0.1300   -0.6360   -0.0470 n4        1 MXI     -0.817300
      2 C8          1.3100   -0.2870   -0.0420 ca        1 MXI      0.442200
      3 N9          1.8490   -0.0070    1.1780 nb        1 MXI     -0.668000
      4 C10         3.1500    0.3220    1.1900 ca        1 MXI      0.442200
      5 C11         3.9520    0.3810    0.0360 ca        1 MXI     -0.192300
      6 C7          2.0150   -0.2630   -1.2590 ca        1 MXI     -0.235300
      7 C6          3.3850    0.0840   -1.2160 ca        1 MXI      0.104000
      8 C5          4.1800    0.1350   -2.4090 cc        1 MXI     -0.263600
      9 N1          3.9260   -0.6320   -3.5640 na        1 MXI     -0.310900
     10 C2          4.9440   -0.3610   -4.4820 cc        1 MXI      0.481800
     11 C22         5.0090   -1.0260   -5.8370 c3        1 MXI     -0.084300
     12 C24         3.7580   -0.6640   -6.6280 c3        1 MXI     -0.091767
     13 C23         6.2400   -0.5530   -6.5990 c3        1 MXI     -0.091767
     14 C25         5.0850   -2.5370   -5.6470 c3        1 MXI     -0.091767
     15 C4          5.3570    0.8900   -2.7070 cd        1 MXI      0.479800
     16 N3          5.8090    0.5670   -3.9840 nd        1 MXI     -0.657000
     17 C12         6.0190    1.8820   -1.8750 ca        1 MXI     -0.181500
     18 C21         7.3950    1.8950   -1.7590 ca        1 MXI     -0.043000
     19 C20         8.0430    2.8730   -0.9590 ca        1 MXI     -0.083000
     20 C15         7.2670    3.8580   -0.2930 ca        1 MXI      0.008000
     21 C14         5.8510    3.8400   -0.4510 ca        1 MXI     -0.123000
     22 C13         5.2440    2.8800   -1.2170 ca        1 MXI     -0.124000
     23 C19         9.4560    2.8950   -0.8170 ca        1 MXI     -0.075000
     24 C18        10.0740    3.8480   -0.0460 ca        1 MXI     -0.180000
     25 C17         9.2900    4.8280    0.6210 ca        1 MXI      0.148100
     26 C16         7.9070    4.8370    0.5010 ca        1 MXI     -0.171000
     27 O27         9.8190    5.8170    1.4220 os        1 MXI     -0.320900
     28 C28        11.2390    5.8760    1.5120 c3        1 MXI      0.110700
     29 H261       -0.6670    0.0910    0.4450 hn        1 MXI      0.468800
     30 H262       -0.4570   -0.7100   -1.0130 hn        1 MXI      0.468800
     31 H7          1.5250   -0.4810   -2.2180 ha        1 MXI      0.155000
     32 H10         3.5690    0.5480    2.1920 h4        1 MXI      0.066100
     33 H11         5.0170    0.6640    0.1120 ha        1 MXI      0.201000
     34 H1          3.2280   -1.3220   -3.6570 hn        1 MXI      0.299700
     35 H241        2.8410   -1.0620   -6.1330 hc        1 MXI      0.048922
     36 H242        3.6650    0.4450   -6.7240 hc        1 MXI      0.048922
     37 H243        3.8250   -1.1060   -7.6520 hc        1 MXI      0.048922
     38 H231        7.1710   -0.8080   -6.0390 hc        1 MXI      0.048922
     39 H232        6.2730   -1.0560   -7.5960 hc        1 MXI      0.048922
     40 H233        6.2060    0.5520   -6.7550 hc        1 MXI      0.048922
     41 H251        4.1540   -2.9320   -5.1760 hc        1 MXI      0.048922
     42 H252        5.9590   -2.8060   -5.0060 hc        1 MXI      0.048922
     43 H253        5.2100   -3.0300   -6.6420 hc        1 MXI      0.048922
     44 H21         8.0120    1.1500   -2.2880 ha        1 MXI      0.152000
     45 H13         4.1530    2.8780   -1.3550 ha        1 MXI      0.125000
     46 H19        10.0530    2.1320   -1.3420 ha        1 MXI      0.143000
     47 H14         5.2580    4.6220    0.0470 ha        1 MXI      0.141000
     48 H16         7.3120    5.6050    1.0170 ha        1 MXI      0.156000
     49 H18        11.1700    3.8560    0.0540 ha        1 MXI      0.149000
     50 H281       11.6930    6.0410    0.5050 h1        1 MXI      0.051367
     51 H282       11.6420    4.9460    1.9810 h1        1 MXI      0.051367
     52 H283       11.4160    6.7610    2.1760 h1        1 MXI      0.051367
     53 H263       -0.2680   -1.5320    0.4370 hn        1 MXI      0.468800
@<TRIPOS>BOND
     1    1    2 1   
     2    1   29 1   
     3    1   30 1   
     4    1   53 1   
     5    2    3 ar  
     6    2    6 ar  
     7    3    4 ar  
     8    4    5 ar  
     9    4   32 1   
    10    5    7 ar  
    11    5   33 1   
    12    6    7 ar  
    13    6   31 1   
    14    7    8 1   
    15    8    9 1   
    16    8   15 2   
    17    9   10 1   
    18    9   34 1   
    19   10   11 1   
    20   10   16 2   
    21   11   12 1   
    22   11   13 1   
    23   11   14 1   
    24   12   35 1   
    25   12   36 1   
    26   12   37 1   
    27   13   38 1   
    28   13   39 1   
    29   13   40 1   
    30   14   41 1   
    31   14   42 1   
    32   14   43 1   
    33   15   16 1   
    34   15   17 1   
    35   17   18 ar  
    36   17   22 ar  
    37   18   19 ar  
    38   18   44 1   
    39   19   20 ar  
    40   19   23 ar  
    41   20   21 ar  
    42   20   26 ar  
    43   21   22 ar  
    44   21   47 1   
    45   22   45 1   
    46   23   24 ar  
    47   23   46 1   
    48   24   25 ar  
    49   24   49 1   
    50   25   26 ar  
    51   25   27 1   
    52   26   48 1   
    53   27   28 1   
    54   28   50 1   
    55   28   51 1   
    56   28   52 1   
@<TRIPOS>SUBSTRUCTURE
     1 MXI         1 TEMP              0 ****  ****    0 ROOT
