@<TRIPOS>MOLECULE
MXI
   52    36     1     0     0
SMALL
bcc


@<TRIPOS>ATOM
      1 N26        -2.4750    2.8660    3.9380 n2        1 MXI     -0.327000
      2 C8         -2.8310    1.9710    2.9530 c1        1 MXI      0.115000
      3 N9         -3.8490    1.0700    3.1750 n2        1 MXI     -0.198000
      4 C10        -4.1830    0.1890    2.2240 c1        1 MXI     -0.027000
      5 C11        -3.4940    0.1830    1.0000 c1        1 MXI     -0.239000
      6 C7         -2.1540    1.9660    1.7500 c1        1 MXI     -0.221000
      7 C6         -2.4910    1.0710    0.7830 c1        1 MXI      0.062000
      8 C5         -1.7240    1.0410   -0.5260 c1        1 MXI     -0.075000
      9 N1         -1.9290    1.8490   -1.5810 n1        1 MXI     -0.162000
     10 C2         -1.0720    1.4710   -2.5720 c1        1 MXI     -0.023000
     11 C22        -0.9070    2.1690   -3.9680 c2        1 MXI      0.019000
     12 C24        -1.9800    1.7960   -4.8150 c3        1 MXI     -0.211000
     13 C23         0.3510    1.7530   -4.5660 c2        1 MXI     -0.196000
     14 C25        -0.9100    3.5770   -3.7940 c1        1 MXI     -0.211000
     15 C4         -0.7280    0.1470   -0.8600 c1        1 MXI     -0.051000
     16 N3         -0.3340    0.4170   -2.1140 n1        1 MXI     -0.162000
     17 C12        -0.0630   -0.8450    0.0880 c2        1 MXI     -0.015000
     18 C21         1.2620   -0.5550    0.2750 c1        1 MXI     -0.076000
     19 C20         2.0950   -1.4480    1.0510 c1        1 MXI     -0.072000
     20 C15         1.5540   -2.5800    1.5940 c1        1 MXI     -0.003000
     21 C14         0.1880   -2.8740    1.3980 c1        1 MXI     -0.137000
     22 C13        -0.6150   -2.0090    0.6490 c1        1 MXI     -0.106000
     23 C19         3.4660   -1.1740    1.2130 c1        1 MXI     -0.080000
     24 C18         4.2760   -2.0590    1.9310 c1        1 MXI     -0.188000
     25 C17         3.7210   -3.2240    2.4910 c1        1 MXI      0.079000
     26 C16         2.3830   -3.4900    2.3310 c1        1 MXI     -0.162000
     27 O27         4.2130   -3.7970    3.6810 os        1 MXI     -0.212000
     28 C28         5.3130   -4.7290    3.4760 c3        1 MXI     -0.075000
     29 H261       -1.9260    3.5400    3.7470 hn        1 MXI      0.204500
     30 H262       -2.7830    2.7490    4.8050 hn        1 MXI      0.204500
     31 H7         -1.4470    2.5950    1.5970 DU        1 MXI      0.138000
     32 H10        -4.9060   -0.4500    2.3810 DU        1 MXI      0.138000
     33 H11        -3.7350   -0.4600    0.3040 DU        1 MXI      0.138000
     34 H1         -2.4710    2.5690   -1.5980 DU        1 MXI      0.138000
     35 H241       -2.8120    2.0680   -4.4140 hc        1 MXI      0.080333
     36 H242       -1.8780    2.2340   -5.6840 hc        1 MXI      0.080333
     37 H243       -1.9770    0.7790   -4.9440 hc        1 MXI      0.080333
     38 H231        0.3080    0.7990   -4.7790 ha        1 MXI      0.083000
     39 H232        0.5160    2.2770   -5.4040 ha        1 MXI      0.083000
     40 H233        1.0760    1.9120   -3.9370 DU        1 MXI      0.138000
     41 H251       -1.8020    3.8700   -3.4850 DU        1 MXI      0.138000
     42 H252       -0.7030    4.0120   -4.6460 ha        1 MXI      0.084000
     43 H253       -0.2400    3.8230   -3.1300 DU        1 MXI      0.138000
     44 H21         1.6650    0.2430   -0.1740 DU        1 MXI      0.138000
     45 H13        -1.5220   -2.2350    0.4760 ha        1 MXI      0.140000
     46 H19         3.8370   -0.3940    0.8400 DU        1 MXI      0.138000
     47 H14        -0.2010   -3.6880    1.7910 ha        1 MXI      0.134000
     48 H16         1.9790   -4.3290    2.7360 ha        1 MXI      0.149000
     49 H18         5.2510   -1.8620    2.0480 ha        1 MXI      0.138000
     50 H281        5.6980   -4.5970    2.5570 h1        1 MXI      0.083333
     51 H282        4.9830   -5.6450    3.5620 h1        1 MXI      0.083333
     52 H283        6.0100   -4.5680    4.1460 h1        1 MXI      0.083333
@<TRIPOS>BOND
     1    1   29 1   
     2    1   30 1   
     3    2    3 1   
     4    2    6 1   
     5    3    4 1   
     6    5    7 1   
     7    7    8 1   
     8    8   15 1   
     9    9   10 1   
    10   10   16 1   
    11   11   12 1   
    12   11   13 1   
    13   11   14 1   
    14   12   35 1   
    15   12   36 1   
    16   12   37 1   
    17   13   38 1   
    18   13   39 1   
    19   14   42 1   
    20   15   17 1   
    21   17   18 1   
    22   17   22 1   
    23   18   19 1   
    24   19   20 1   
    25   20   21 1   
    26   21   47 1   
    27   22   45 1   
    28   23   24 1   
    29   24   49 1   
    30   25   26 1   
    31   25   27 1   
    32   26   48 1   
    33   27   28 1   
    34   28   50 1   
    35   28   51 1   
    36   28   52 1   
@<TRIPOS>SUBSTRUCTURE
     1 MXI         1 TEMP              0 ****  ****    0 ROOT
