@<TRIPOS>MOLECULE
MXL
   54    52     1     0     0
SMALL
bcc


@<TRIPOS>ATOM
      1 O1         -1.9470   -0.0770   -0.4940 o         1 MXL     -0.225000
      2 C1         -0.7870    0.2680   -0.4350 c1        1 MXL      0.301000
      3 C2          0.2560    0.4380    0.7150 c2        1 MXL      0.175000
      4 C3          1.3060    0.7180   -0.3520 c3        1 MXL      0.096000
      5 N1          0.2270    0.7590   -1.4320 n3        1 MXL     -0.258000
      6 C4          0.6390    0.6880   -2.7030 c2        1 MXL      0.096000
      7 C5          1.9950   -0.1660   -2.9230 c1        1 MXL     -0.338000
      8 C6          2.8760   -0.1970   -1.7810 c2        1 MXL      0.038000
      9 O2          2.0510   -0.1050   -0.4170 os        1 MXL     -0.257000
     10 C7         -0.3630    0.8250   -3.8370 c2        1 MXL      0.374000
     11 O3         -1.0540   -0.1640   -4.1850 o         1 MXL     -0.529000
     12 O4         -0.3980    1.8800   -4.5150 o         1 MXL     -0.529000
     13 C8          2.5780   -0.3420   -4.3640 c3        1 MXL     -0.167000
     14 O5          0.4730   -0.6720    1.5510 os        1 MXL     -0.257000
     15 C9         -0.5360   -1.6510    1.4720 c3        1 MXL     -0.077000
     16 N2          0.0130    1.4650    1.5760 n         1 MXL     -0.385000
     17 C10        -0.8860    1.2730    2.6990 c2        1 MXL      0.337000
     18 O6         -1.4120    0.2170    2.8660 o         1 MXL     -0.411000
     19 C11        -1.2290    2.4380    3.6030 c3        1 MXL     -0.171000
     20 C12         0.0470    3.0660    4.1310 c2        1 MXL      0.346000
     21 O7          1.0670    2.3310    4.3830 o         1 MXL     -0.560500
     22 O8          0.0840    4.3190    4.3860 o         1 MXL     -0.560500
     23 C13        -2.0730    1.9380    4.7720 c2        1 MXL     -0.049000
     24 C14        -3.3860    2.3890    4.9300 c2        1 MXL     -0.094000
     25 C15        -4.1680    1.8910    5.9540 c1        1 MXL     -0.228000
     26 C16        -3.6450    0.9350    6.8340 c1        1 MXL      0.044000
     27 C17        -2.3470    0.4890    6.6780 c1        1 MXL     -0.165000
     28 C18        -1.5560    0.9900    5.6440 c1        1 MXL     -0.078000
     29 O9         -4.4190    0.4660    7.8950 oh        1 MXL     -0.273000
     30 S1          1.5380   -1.4580   -5.2990 ss        1 MXL      0.292000
     31 C19         2.4910   -2.1830   -6.6440 c2        1 MXL     -0.208000
     32 N3          3.4730   -1.5700   -7.3390 nc        1 MXL     -0.175000
     33 N4          3.8760   -2.3990   -8.2990 nc        1 MXL     -0.068500
     34 N5          3.1440   -3.5360   -8.2050 nc        1 MXL     -0.068500
     35 N6          2.2940   -3.3960   -7.1850 nc        1 MXL     -0.175000
     36 C20         1.4040   -4.4070   -6.6840 c2        1 MXL     -0.064000
     37 H31         1.7280    1.5950   -0.2230 h2        1 MXL      0.132000
     38 H61         3.5420   -0.8870   -1.9150 h4        1 MXL      0.076500
     39 H62         3.4480    0.5870   -1.7620 h4        1 MXL      0.076500
     40 H81         2.6060    0.5210   -4.8080 h1        1 MXL      0.133000
     41 H82         3.4870   -0.7110   -4.3090 h1        1 MXL      0.133000
     42 H91        -1.4200   -1.2280    1.6230 h1        1 MXL      0.081333
     43 H92        -0.5200   -2.0680    0.5790 h1        1 MXL      0.081333
     44 H93        -0.3790   -2.3440    2.1620 h1        1 MXL      0.081333
     45 HN21        0.3970    2.2750    1.4370 hn        1 MXL      0.282000
     46 H111       -1.7410    3.1140    3.0910 hc        1 MXL      0.124000
     47 H141       -3.7410    3.1260    4.3390 ha        1 MXL      0.133000
     48 H151       -5.0940    2.2100    6.0660 ha        1 MXL      0.110000
     49 H171       -1.9960   -0.2090    7.2680 ha        1 MXL      0.134000
     50 H181       -0.6210    0.6690    5.5310 ha        1 MXL      0.188000
     51 HO91       -4.9300   -0.2010    7.6160 ho        1 MXL      0.199000
     52 H201        0.5050   -4.2490   -7.0290 ha        1 MXL      0.102333
     53 H202        1.7120   -5.2870   -6.9730 ha        1 MXL      0.102333
     54 H203        1.3880   -4.3720   -5.6930 ha        1 MXL      0.102333
@<TRIPOS>BOND
     1    1    2 1   
     2    2    5 1   
     3    3    4 1   
     4    3   14 1   
     5    3   16 1   
     6    4    5 1   
     7    4    9 1   
     8    4   37 1   
     9    5    6 1   
    10    6    7 1   
    11    6   10 1   
    12    7   13 1   
    13    8    9 1   
    14    8   38 1   
    15    8   39 1   
    16   10   11 1   
    17   10   12 1   
    18   13   30 1   
    19   13   40 1   
    20   13   41 1   
    21   14   15 1   
    22   15   42 1   
    23   15   43 1   
    24   15   44 1   
    25   16   17 1   
    26   16   45 1   
    27   17   18 1   
    28   17   19 1   
    29   19   20 1   
    30   19   23 1   
    31   19   46 1   
    32   20   21 1   
    33   20   22 1   
    34   23   24 1   
    35   23   28 1   
    36   24   25 1   
    37   24   47 1   
    38   25   48 1   
    39   26   27 1   
    40   26   29 1   
    41   27   49 1   
    42   28   50 1   
    43   29   51 1   
    44   30   31 1   
    45   31   32 1   
    46   31   35 1   
    47   32   33 1   
    48   33   34 1   
    49   34   35 1   
    50   36   52 1   
    51   36   53 1   
    52   36   54 1   
@<TRIPOS>SUBSTRUCTURE
     1 MXL         1 TEMP              0 ****  ****    0 ROOT
