@<TRIPOS>MOLECULE
MXL
   54    57     1     0     0
SMALL
bcc


@<TRIPOS>ATOM
      1 O1          1.2630    2.0780    2.4370 o         1 MXL     -0.519500
      2 C1          0.9630    1.9210    1.2680 c         1 MXL      0.704500
      3 C2          1.7480    1.9150   -0.1200 cy        1 MXL      0.238200
      4 C3          0.2990    1.7170   -0.7730 cy        1 MXL      0.251500
      5 N1         -0.2840    1.7860    0.5860 n         1 MXL     -0.373000
      6 C4         -1.4260    1.0530    0.8720 ce        1 MXL      0.082400
      7 C5         -1.9490    0.2510   -0.1160 c2        1 MXL     -0.342400
      8 C6         -1.2460    0.0390   -1.4160 c3        1 MXL      0.196600
      9 O2          0.1160    0.4870   -1.4480 os        1 MXL     -0.411600
     10 C7         -2.1450    1.2390    2.2380 c         1 MXL      0.924800
     11 O3         -2.2890    0.2100    2.9450 o         1 MXL     -0.793800
     12 O4         -2.5720    2.3900    2.4950 o         1 MXL     -0.793800
     13 C8         -3.1980   -0.4900    0.0680 c3        1 MXL      0.103900
     14 O5          2.1380    3.2300   -0.4990 os        1 MXL     -0.433600
     15 C9          3.1840    3.8090    0.2660 c3        1 MXL      0.117700
     16 N2          2.7000    0.8820   -0.3410 n         1 MXL     -0.553900
     17 C10         3.9190    0.7440    0.3030 c         1 MXL      0.692100
     18 O6          4.2510    1.4660    1.2670 o         1 MXL     -0.648100
     19 C11         4.8510   -0.3570   -0.1950 c3        1 MXL     -0.225400
     20 C12         5.1480   -0.2160   -1.7210 c         1 MXL      0.924600
     21 O7          6.3590   -0.1370   -2.0540 o         1 MXL     -0.825300
     22 O8          4.1770   -0.1930   -2.5300 o         1 MXL     -0.825300
     23 C13         4.3200   -1.7070    0.1460 ca        1 MXL     -0.058300
     24 C14         4.8110   -2.3820    1.2710 ca        1 MXL     -0.084500
     25 C15         4.3440   -3.6490    1.6120 ca        1 MXL     -0.191500
     26 C16         3.3640   -4.2470    0.8100 ca        1 MXL      0.093100
     27 C17         2.8630   -3.5900   -0.3220 ca        1 MXL     -0.191500
     28 C18         3.3450   -2.3270   -0.6490 ca        1 MXL     -0.084500
     29 O9          2.9380   -5.5110    1.1790 oh        1 MXL     -0.523100
     30 S1         -4.4190    0.6420   -0.6210 ss        1 MXL     -0.243400
     31 C19        -5.8430   -0.2010   -0.8200 cc        1 MXL      0.474800
     32 N3         -6.1160   -1.5480   -0.9030 nd        1 MXL     -0.422000
     33 N4         -7.4260   -1.6680   -1.0920 nd        1 MXL     -0.064000
     34 N5         -8.0340   -0.5450   -1.1470 nc        1 MXL     -0.239800
     35 N6         -7.1060    0.4280   -0.9730 na        1 MXL     -0.085400
     36 C20        -7.3430    1.8440   -0.9440 c3        1 MXL      0.034600
     37 H31        -0.0210    2.5720   -1.4210 h2        1 MXL      0.089700
     38 H61        -1.1530   -1.0580   -1.6470 h1        1 MXL      0.039200
     39 H62        -1.7960    0.5540   -2.2510 h1        1 MXL      0.039200
     40 H81        -3.2120   -1.4590   -0.4810 h1        1 MXL      0.098200
     41 H82        -3.4250   -0.6670    1.1520 h1        1 MXL      0.098200
     42 H91         3.0700    3.5690    1.3530 h1        1 MXL      0.043700
     43 H92         4.1710    3.4390   -0.1040 h1        1 MXL      0.043700
     44 H93         3.0800    4.9090    0.0840 h1        1 MXL      0.043700
     45 HN21        2.6150    0.4090   -1.2290 hn        1 MXL      0.369500
     46 H111        5.8310   -0.1970    0.3400 hc        1 MXL      0.081700
     47 H141        5.5760   -1.9020    1.9010 ha        1 MXL      0.156500
     48 H151        4.7240   -4.1770    2.4950 ha        1 MXL      0.123000
     49 H171        2.0900   -4.0650   -0.9410 ha        1 MXL      0.123000
     50 H181        2.9810   -1.8030   -1.5530 ha        1 MXL      0.156500
     51 HO91        2.1510   -5.7100    0.6530 ho        1 MXL      0.406000
     52 H201       -7.4050    2.2450   -1.9900 h1        1 MXL      0.062033
     53 H202       -8.3020    2.0660   -0.4070 h1        1 MXL      0.062033
     54 H203       -6.4840    2.3330   -0.4050 h1        1 MXL      0.062033
@<TRIPOS>BOND
     1    1    2 2   
     2    2    3 1   
     3    2    5 1   
     4    3    4 1   
     5    3   14 1   
     6    3   16 1   
     7    4    5 1   
     8    4    9 1   
     9    4   37 1   
    10    5    6 1   
    11    6    7 2   
    12    6   10 1   
    13    7    8 1   
    14    7   13 1   
    15    8    9 1   
    16    8   38 1   
    17    8   39 1   
    18   10   11 1   
    19   10   12 1   
    20   13   30 1   
    21   13   40 1   
    22   13   41 1   
    23   14   15 1   
    24   15   42 1   
    25   15   43 1   
    26   15   44 1   
    27   16   17 1   
    28   16   45 1   
    29   17   18 2   
    30   17   19 1   
    31   19   20 1   
    32   19   23 1   
    33   19   46 1   
    34   20   21 1   
    35   20   22 1   
    36   23   24 ar  
    37   23   28 ar  
    38   24   25 ar  
    39   24   47 1   
    40   25   26 ar  
    41   25   48 1   
    42   26   27 ar  
    43   26   29 1   
    44   27   28 ar  
    45   27   49 1   
    46   28   50 1   
    47   29   51 1   
    48   30   31 1   
    49   31   32 2   
    50   31   35 1   
    51   32   33 1   
    52   33   34 2   
    53   34   35 1   
    54   35   36 1   
    55   36   52 1   
    56   36   53 1   
    57   36   54 1   
@<TRIPOS>SUBSTRUCTURE
     1 MXL         1 TEMP              0 ****  ****    0 ROOT
