@<TRIPOS>MOLECULE
MXL
   55    58     1     0     0
SMALL
bcc


@<TRIPOS>ATOM
      1 O1          0.2260   -0.0750    0.2210 o         1 MXL     -0.473500
      2 C1          1.3850   -0.1320   -0.1370 c         1 MXL      0.701500
      3 C2          2.7280   -0.4790    0.6500 cy        1 MXL      0.191000
      4 C3          3.4580   -0.1120   -0.7280 cy        1 MXL      0.249500
      5 N1          2.1260    0.2050   -1.2990 n         1 MXL     -0.319000
      6 C4          1.8390   -0.2040   -2.6120 ce        1 MXL      0.000400
      7 C5          2.8080   -0.8410   -3.3320 c2        1 MXL     -0.271400
      8 C6          4.1360   -1.1790   -2.7400 c3        1 MXL      0.185600
      9 O2          4.1290   -1.2160   -1.3000 os        1 MXL     -0.449600
     10 C7          0.4380    0.1410   -3.2080 c         1 MXL      0.926800
     11 O3         -0.2250   -0.8400   -3.6280 o         1 MXL     -0.775800
     12 O4          0.1280    1.3510   -3.2450 o         1 MXL     -0.775800
     13 C8          2.5870   -1.2610   -4.7220 c3        1 MXL      0.045900
     14 O5          3.1480    0.4360    1.6200 os        1 MXL     -0.383600
     15 C9          2.2220    0.7030    2.6750 c3        1 MXL      0.101700
     16 N2          2.9090   -1.8850    1.0980 ny        1 MXL     -0.698800
     17 C10         1.8470   -2.5240    1.9520 c         1 MXL      0.581100
     18 O6          0.9460   -1.8200    2.3890 o         1 MXL     -0.472100
     19 C11         2.1170   -3.9710    2.2590 c3        1 MXL     -0.241400
     20 C12         3.3860   -4.0490    3.2010 c         1 MXL      0.935600
     21 O7          3.3220   -4.8460    4.1540 o         1 MXL     -0.779800
     22 O8          4.3580   -3.2860    2.9130 o         1 MXL     -0.779800
     23 C13         2.2940   -4.7830    1.0240 ca        1 MXL     -0.133300
     24 C14         1.1790   -5.4030    0.4400 ca        1 MXL     -0.085500
     25 C15         1.3140   -6.1850   -0.7010 ca        1 MXL     -0.184500
     26 C16         2.5900   -6.3530   -1.2650 ca        1 MXL      0.132100
     27 C17         3.7150   -5.7470   -0.6880 ca        1 MXL     -0.184500
     28 C18         3.5600   -4.9690    0.4550 ca        1 MXL     -0.085500
     29 O9          2.6670   -7.1430   -2.3890 oh        1 MXL     -0.498100
     30 S1          3.0690   -0.0670   -5.9470 ss        1 MXL     -0.187400
     31 C19         4.7010   -0.2980   -6.2210 cc        1 MXL      0.453800
     32 N3          5.5690   -1.2720   -5.7850 nd        1 MXL     -0.425000
     33 N4          6.7580   -0.9960   -6.3100 nd        1 MXL     -0.051000
     34 N5          6.7530    0.0510   -7.0420 nc        1 MXL     -0.216800
     35 N6          5.4940    0.5540   -7.0290 na        1 MXL     -0.075400
     36 C20         5.0300    1.7200   -7.7300 c3        1 MXL      0.033600
     37 H31         4.1290    0.7800   -0.6580 h2        1 MXL      0.120700
     38 H61         4.9200   -0.4390   -3.0590 h1        1 MXL      0.067700
     39 H62         4.4620   -2.2190   -3.0140 h1        1 MXL      0.067700
     40 H81         3.0680   -2.2480   -4.9230 h1        1 MXL      0.119700
     41 H82         1.4740   -1.3550   -4.9220 h1        1 MXL      0.119700
     42 H91         2.5870    1.6720    3.1000 h1        1 MXL      0.062033
     43 H92         2.2810   -0.1150    3.4340 h1        1 MXL      0.062033
     44 H93         1.1790    0.7970    2.2850 h1        1 MXL      0.062033
     45 HN21        3.0440   -2.4730    0.2620 hn        1 MXL      0.496800
     46 H111        1.2400   -4.3550    2.8530 hc        1 MXL      0.116700
     47 H141        0.1820   -5.2720    0.8900 ha        1 MXL      0.156000
     48 H151        0.4450   -6.6670   -1.1680 ha        1 MXL      0.144500
     49 H171        4.7110   -5.8880   -1.1310 ha        1 MXL      0.144500
     50 H181        4.4450   -4.5140    0.9380 ha        1 MXL      0.156000
     51 HO91        3.5830   -7.1250   -2.7010 ho        1 MXL      0.419000
     52 H201        5.8250    2.5110   -7.7320 h1        1 MXL      0.066367
     53 H202        4.1110    2.1070   -7.2090 h1        1 MXL      0.066367
     54 H203        4.7740    1.4510   -8.7900 h1        1 MXL      0.066367
     55 H22         3.7960   -1.9630    1.6730 hn        1 MXL      0.496800
@<TRIPOS>BOND
     1    1    2 2   
     2    2    3 1   
     3    2    5 1   
     4    3    4 1   
     5    3   14 1   
     6    3   16 1   
     7    4    5 1   
     8    4    9 1   
     9    4   37 1   
    10    5    6 1   
    11    6    7 2   
    12    6   10 1   
    13    7    8 1   
    14    7   13 1   
    15    8    9 1   
    16    8   38 1   
    17    8   39 1   
    18   10   11 1   
    19   10   12 1   
    20   13   30 1   
    21   13   40 1   
    22   13   41 1   
    23   14   15 1   
    24   15   42 1   
    25   15   43 1   
    26   15   44 1   
    27   16   17 1   
    28   16   45 1   
    29   16   55 1   
    30   17   18 2   
    31   17   19 1   
    32   19   20 1   
    33   19   23 1   
    34   19   46 1   
    35   20   21 1   
    36   20   22 1   
    37   23   24 ar  
    38   23   28 ar  
    39   24   25 ar  
    40   24   47 1   
    41   25   26 ar  
    42   25   48 1   
    43   26   27 ar  
    44   26   29 1   
    45   27   28 ar  
    46   27   49 1   
    47   28   50 1   
    48   29   51 1   
    49   30   31 1   
    50   31   32 2   
    51   31   35 1   
    52   32   33 1   
    53   33   34 2   
    54   34   35 1   
    55   35   36 1   
    56   36   52 1   
    57   36   53 1   
    58   36   54 1   
@<TRIPOS>SUBSTRUCTURE
     1 MXL         1 TEMP              0 ****  ****    0 ROOT
