@<TRIPOS>MOLECULE
MXL
   55    58     1     0     0
SMALL
bcc


@<TRIPOS>ATOM
      1 O1          0.1900   -0.1090    0.1930 o         1 MXL     -0.473500
      2 C1          1.3530   -0.1510   -0.1550 c         1 MXL      0.701500
      3 C2          2.6930   -0.4800    0.6450 cy        1 MXL      0.191000
      4 C3          3.4300   -0.1060   -0.7270 cy        1 MXL      0.249500
      5 N1          2.1000    0.1940   -1.3110 n         1 MXL     -0.319000
      6 C4          1.8300   -0.2220   -2.6250 ce        1 MXL      0.000400
      7 C5          2.8140   -0.8470   -3.3350 c2        1 MXL     -0.271400
      8 C6          4.1410   -1.1670   -2.7310 c3        1 MXL      0.185600
      9 O2          4.1210   -1.2020   -1.2910 os        1 MXL     -0.449600
     10 C7          0.4300    0.1040   -3.2340 c         1 MXL      0.926800
     11 O3         -0.2170   -0.8860   -3.6590 o         1 MXL     -0.775800
     12 O4          0.1050    1.3100   -3.2760 o         1 MXL     -0.775800
     13 C8          2.6090   -1.2720   -4.7270 c3        1 MXL      0.045900
     14 O5          3.0930    0.4430    1.6170 os        1 MXL     -0.383600
     15 C9          2.1540    0.7000    2.6630 c3        1 MXL      0.101700
     16 N2          2.8890   -1.8820    1.0970 n4        1 MXL     -0.698800
     17 C10         1.8270   -2.5330    1.9420 c         1 MXL      0.581100
     18 O6          0.9130   -1.8410    2.3710 o         1 MXL     -0.472100
     19 C11         2.1120   -3.9760    2.2540 c3        1 MXL     -0.241400
     20 C12         3.3740   -4.0370    3.2070 c         1 MXL      0.935600
     21 O7          3.3120   -4.8330    4.1610 o         1 MXL     -0.779800
     22 O8          4.3390   -3.2620    2.9270 o         1 MXL     -0.779800
     23 C13         2.3110   -4.7880    1.0220 ca        1 MXL     -0.133300
     24 C14         1.2090   -5.4230    0.4290 ca        1 MXL     -0.085500
     25 C15         1.3640   -6.2050   -0.7090 ca        1 MXL     -0.184500
     26 C16         2.6470   -6.3580   -1.2620 ca        1 MXL      0.132100
     27 C17         3.7590   -5.7360   -0.6760 ca        1 MXL     -0.184500
     28 C18         3.5840   -4.9590    0.4650 ca        1 MXL     -0.085500
     29 O9          2.7440   -7.1490   -2.3830 oh        1 MXL     -0.498100
     30 S1          3.0870   -0.0750   -5.9490 ss        1 MXL     -0.187400
     31 C19         4.7240   -0.2850   -6.2090 cc        1 MXL      0.453800
     32 N3          5.6010   -1.2470   -5.7630 nd        1 MXL     -0.425000
     33 N4          6.7910   -0.9560   -6.2790 nd        1 MXL     -0.051000
     34 N5          6.7780    0.0890   -7.0130 nc        1 MXL     -0.216800
     35 N6          5.5130    0.5750   -7.0120 na        1 MXL     -0.075400
     36 C20         5.0400    1.7340   -7.7200 c3        1 MXL      0.033600
     37 H31         4.0890    0.7950   -0.6530 h2        1 MXL      0.120700
     38 H61         4.9180   -0.4180   -3.0440 h1        1 MXL      0.067700
     39 H62         4.4820   -2.2040   -3.0010 h1        1 MXL      0.067700
     40 H81         1.5000   -1.3810   -4.9360 h1        1 MXL      0.119700
     41 H82         3.1050   -2.2540   -4.9210 h1        1 MXL      0.119700
     42 H91         1.1130    0.7800    2.2640 h1        1 MXL      0.062033
     43 H92         2.2180   -0.1160    3.4240 h1        1 MXL      0.062033
     44 H93         2.5030    1.6730    3.0900 h1        1 MXL      0.062033
     45 HN21        3.7720   -1.9480    1.6800 hn        1 MXL      0.496800
     46 H111        1.2350   -4.3700    2.8410 hc        1 MXL      0.116700
     47 H141        0.2070   -5.3030    0.8700 ha        1 MXL      0.156000
     48 H151        0.5050   -6.6980   -1.1840 ha        1 MXL      0.144500
     49 H171        4.7600   -5.8650   -1.1100 ha        1 MXL      0.144500
     50 H181        4.4590   -4.4920    0.9540 ha        1 MXL      0.156000
     51 HO91        3.6620   -7.1200   -2.6880 ho        1 MXL      0.419000
     52 H201        4.1120    2.1100   -7.2080 h1        1 MXL      0.066367
     53 H202        4.7960    1.4590   -8.7810 h1        1 MXL      0.066367
     54 H203        5.8250    2.5350   -7.7170 h1        1 MXL      0.066367
     55 H22         3.0380   -2.4700    0.2630 hn        1 MXL      0.496800
@<TRIPOS>BOND
     1    1    2 2   
     2    2    3 1   
     3    2    5 1   
     4    3    4 1   
     5    3   14 1   
     6    3   16 1   
     7    4    5 1   
     8    4    9 1   
     9    4   37 1   
    10    5    6 1   
    11    6    7 2   
    12    6   10 1   
    13    7    8 1   
    14    7   13 1   
    15    8    9 1   
    16    8   38 1   
    17    8   39 1   
    18   10   11 1   
    19   10   12 1   
    20   13   30 1   
    21   13   40 1   
    22   13   41 1   
    23   14   15 1   
    24   15   42 1   
    25   15   43 1   
    26   15   44 1   
    27   16   17 1   
    28   16   45 1   
    29   16   55 1   
    30   17   18 2   
    31   17   19 1   
    32   19   20 1   
    33   19   23 1   
    34   19   46 1   
    35   20   21 1   
    36   20   22 1   
    37   23   24 ar  
    38   23   28 ar  
    39   24   25 ar  
    40   24   47 1   
    41   25   26 ar  
    42   25   48 1   
    43   26   27 ar  
    44   26   29 1   
    45   27   28 ar  
    46   27   49 1   
    47   28   50 1   
    48   29   51 1   
    49   30   31 1   
    50   31   32 2   
    51   31   35 1   
    52   32   33 1   
    53   33   34 2   
    54   34   35 1   
    55   35   36 1   
    56   36   52 1   
    57   36   53 1   
    58   36   54 1   
@<TRIPOS>SUBSTRUCTURE
     1 MXL         1 TEMP              0 ****  ****    0 ROOT
