@<TRIPOS>MOLECULE
MXL
   55    58     1     0     0
SMALL
bcc


@<TRIPOS>ATOM
      1 O1          0.2310   -0.1060    0.2630 o         1 MXL     -0.473500
      2 C1          1.3870   -0.1520   -0.1070 c         1 MXL      0.701500
      3 C2          2.7400   -0.4960    0.6640 cy        1 MXL      0.191000
      4 C3          3.4530   -0.1140   -0.7190 cy        1 MXL      0.249500
      5 N1          2.1140    0.1980   -1.2740 n         1 MXL     -0.319000
      6 C4          1.8160   -0.2040   -2.5870 ce        1 MXL      0.000400
      7 C5          2.7820   -0.8290   -3.3210 c2        1 MXL     -0.271400
      8 C6          4.1190   -1.1610   -2.7450 c3        1 MXL      0.185600
      9 O2          4.1260   -1.2090   -1.3050 os        1 MXL     -0.449600
     10 C7          0.4060    0.1360   -3.1660 c         1 MXL      0.926800
     11 O3         -0.2540   -0.8470   -3.5860 o         1 MXL     -0.775800
     12 O4          0.0880    1.3440   -3.1920 o         1 MXL     -0.775800
     13 C8          2.5480   -1.2400   -4.7120 c3        1 MXL      0.045900
     14 O5          3.1640    0.4160    1.6360 os        1 MXL     -0.383600
     15 C9          2.2470    0.6680    2.7020 c3        1 MXL      0.101700
     16 N2          2.9360   -1.9030    1.1000 n4        1 MXL     -0.698800
     17 C10         1.8870   -2.5560    1.9590 c         1 MXL      0.581100
     18 O6          0.9850   -1.8630    2.4110 o         1 MXL     -0.472100
     19 C11         2.1700   -4.0030    2.2520 c3        1 MXL     -0.241400
     20 C12         3.4490   -4.0800    3.1810 c         1 MXL      0.935600
     21 O7          3.4000   -4.8850    4.1290 o         1 MXL     -0.779800
     22 O8          4.4120   -3.3080    2.8900 o         1 MXL     -0.779800
     23 C13         2.3400   -4.8050    1.0100 ca        1 MXL     -0.133300
     24 C14         1.2240   -5.4280    0.4320 ca        1 MXL     -0.085500
     25 C15         1.3530   -6.2000   -0.7170 ca        1 MXL     -0.184500
     26 C16         2.6250   -6.3560   -1.2940 ca        1 MXL      0.132100
     27 C17         3.7510   -5.7460   -0.7240 ca        1 MXL     -0.184500
     28 C18         3.6020   -4.9780    0.4270 ca        1 MXL     -0.085500
     29 O9          2.6960   -7.1370   -2.4250 oh        1 MXL     -0.498100
     30 S1          3.0110   -0.0360   -5.9330 ss        1 MXL     -0.187400
     31 C19         4.6410   -0.2550   -6.2260 cc        1 MXL      0.453800
     32 N3          5.5190   -1.2270   -5.8050 nd        1 MXL     -0.425000
     33 N4          6.7020   -0.9410   -6.3420 nd        1 MXL     -0.051000
     34 N5          6.6810    0.1110   -7.0680 nc        1 MXL     -0.216800
     35 N6          5.4200    0.6060   -7.0380 na        1 MXL     -0.075400
     36 C20         4.9410    1.7730   -7.7280 c3        1 MXL      0.033600
     37 H31         4.1190    0.7830   -0.6500 h2        1 MXL      0.120700
     38 H61         4.8940   -0.4140   -3.0670 h1        1 MXL      0.067700
     39 H62         4.4490   -2.1980   -3.0300 h1        1 MXL      0.067700
     40 H81         1.4350   -1.3410   -4.9010 h1        1 MXL      0.119700
     41 H82         3.0340   -2.2240   -4.9240 h1        1 MXL      0.119700
     42 H91         1.1990    0.7580    2.3240 h1        1 MXL      0.062033
     43 H92         2.3200   -0.1550    3.4550 h1        1 MXL      0.062033
     44 H93         2.6090    1.6360    3.1320 h1        1 MXL      0.062033
     45 HN21        3.0670   -2.4840    0.2580 hn        1 MXL      0.496800
     46 H111        1.3010   -4.3980    2.8520 hc        1 MXL      0.116700
     47 H141        0.2310   -5.3070    0.8920 ha        1 MXL      0.156000
     48 H151        0.4830   -6.6850   -1.1790 ha        1 MXL      0.144500
     49 H171        4.7440   -5.8770   -1.1770 ha        1 MXL      0.144500
     50 H181        4.4890   -4.5210    0.9040 ha        1 MXL      0.156000
     51 HO91        3.6090   -7.1100   -2.7460 ho        1 MXL      0.419000
     52 H201        4.6750    1.5080   -8.7870 h1        1 MXL      0.066033
     53 H202        4.0260    2.1510   -7.1950 h1        1 MXL      0.066033
     54 H203        5.7320    2.5680   -7.7350 h1        1 MXL      0.066033
     55 H22         3.8290   -1.9800    1.6650 hn        1 MXL      0.496800
@<TRIPOS>BOND
     1    1    2 2   
     2    2    3 1   
     3    2    5 1   
     4    3    4 1   
     5    3   14 1   
     6    3   16 1   
     7    4    5 1   
     8    4    9 1   
     9    4   37 1   
    10    5    6 1   
    11    6    7 2   
    12    6   10 1   
    13    7    8 1   
    14    7   13 1   
    15    8    9 1   
    16    8   38 1   
    17    8   39 1   
    18   10   11 1   
    19   10   12 1   
    20   13   30 1   
    21   13   40 1   
    22   13   41 1   
    23   14   15 1   
    24   15   42 1   
    25   15   43 1   
    26   15   44 1   
    27   16   17 1   
    28   16   45 1   
    29   16   55 1   
    30   17   18 2   
    31   17   19 1   
    32   19   20 1   
    33   19   23 1   
    34   19   46 1   
    35   20   21 1   
    36   20   22 1   
    37   23   24 ar  
    38   23   28 ar  
    39   24   25 ar  
    40   24   47 1   
    41   25   26 ar  
    42   25   48 1   
    43   26   27 ar  
    44   26   29 1   
    45   27   28 ar  
    46   27   49 1   
    47   28   50 1   
    48   29   51 1   
    49   30   31 1   
    50   31   32 2   
    51   31   35 1   
    52   32   33 1   
    53   33   34 2   
    54   34   35 1   
    55   35   36 1   
    56   36   52 1   
    57   36   53 1   
    58   36   54 1   
@<TRIPOS>SUBSTRUCTURE
     1 MXL         1 TEMP              0 ****  ****    0 ROOT
