@<TRIPOS>MOLECULE
MXM
   37    39     1     0     0
SMALL
bcc


@<TRIPOS>ATOM
      1 CAW         0.8040   -1.7770   -0.4210 c3        1 MXM     -0.049800
      2 CAV         1.8850   -0.8820   -0.0020 cc        1 MXM     -0.144700
      3 SAT         3.4340   -1.3610    0.3660 ss        1 MXM      0.105700
      4 CAU         1.7560    0.5120    0.1510 cd        1 MXM      0.338200
      5 NAS         2.8840    1.1640    0.5540 nd        1 MXM     -0.565000
      6 CAR         3.8840    0.2530    0.7120 cc        1 MXM      0.327300
      7 NAP         5.2100    0.6520    1.1290 n4        1 MXM     -0.619500
      8 CAN         6.0700    1.2280   -0.0080 c         1 MXM      0.588300
      9 OAQ         5.5150    1.6500   -1.0020 o         1 MXM     -0.363100
     10 CAG         7.5030    1.1100    0.3200 ce        1 MXM     -0.132200
     11 CAC         8.3640    0.4570   -0.5420 cf        1 MXM      0.258900
     12 OAH         7.8920    0.1050   -1.7640 oh        1 MXM     -0.454100
     13 CAA         9.6830    0.0170   -0.0680 ca        1 MXM     -0.046800
     14 CAD        10.7210   -0.2660   -0.9510 ca        1 MXM     -0.109000
     15 CAI        11.9470   -0.7340   -0.4580 ca        1 MXM     -0.058000
     16 CAM        12.1270   -0.9110    0.9090 ca        1 MXM     -0.104000
     17 CAF        11.0880   -0.6020    1.7960 ca        1 MXM     -0.002000
     18 CAB         9.8610   -0.1340    1.3300 ca        1 MXM     -0.344500
     19 SAE         8.6530    0.3080    2.4360 sy        1 MXM      1.501200
     20 OAK         9.2210    0.7430    3.6330 o         1 MXM     -0.636300
     21 OAL         7.6440   -0.6840    2.5100 o         1 MXM     -0.636300
     22 NAJ         7.9380    1.5370    1.5890 nh        1 MXM     -0.657300
     23 CAO         8.0840    2.9430    1.8370 c3        1 MXM      0.199100
     24 H1          1.1420   -2.8420   -0.4610 hc        1 MXM      0.077033
     25 H2          0.4330   -1.4860   -1.4390 hc        1 MXM      0.077033
     26 H3         -0.0570   -1.7070    0.2930 hc        1 MXM      0.077033
     27 H4          0.8380    1.0910   -0.0280 h4        1 MXM      0.081100
     28 H5          5.1340    1.3830    1.8530 hn        1 MXM      0.482800
     29 H7          8.5450   -0.4580   -2.2180 ho        1 MXM      0.464000
     30 H8         10.6030   -0.1090   -2.0350 ha        1 MXM      0.153000
     31 H9         12.7670   -0.9560   -1.1620 ha        1 MXM      0.168000
     32 H10        13.0880   -1.2840    1.3010 ha        1 MXM      0.172000
     33 H11        11.2530   -0.7150    2.8850 ha        1 MXM      0.176000
     34 H14         8.7740    3.4270    1.0950 h1        1 MXM      0.064700
     35 H15         8.4990    3.0790    2.8740 h1        1 MXM      0.064700
     36 H16         7.0830    3.4490    1.7720 h1        1 MXM      0.064700
     37 HAP2        5.7020   -0.1610    1.5450 hn        1 MXM      0.482800
@<TRIPOS>BOND
     1    1    2 1   
     2    1   24 1   
     3    1   25 1   
     4    1   26 1   
     5    2    3 1   
     6    2    4 2   
     7    3    6 1   
     8    4    5 1   
     9    4   27 1   
    10    5    6 2   
    11    6    7 1   
    12    7    8 1   
    13    7   28 1   
    14    7   37 1   
    15    8    9 2   
    16    8   10 1   
    17   10   11 2   
    18   10   22 1   
    19   11   12 1   
    20   11   13 1   
    21   12   29 1   
    22   13   14 ar  
    23   13   18 ar  
    24   14   15 ar  
    25   14   30 1   
    26   15   16 ar  
    27   15   31 1   
    28   16   17 ar  
    29   16   32 1   
    30   17   18 ar  
    31   17   33 1   
    32   18   19 1   
    33   19   20 2   
    34   19   21 2   
    35   19   22 1   
    36   22   23 1   
    37   23   34 1   
    38   23   35 1   
    39   23   36 1   
@<TRIPOS>SUBSTRUCTURE
     1 MXM         1 TEMP              0 ****  ****    0 ROOT
