@<TRIPOS>MOLECULE
MXM
   36    38     1     0     0
SMALL
bcc


@<TRIPOS>ATOM
      1 CAW         6.8910    0.5970   -0.3770 c3        1 MXM     -0.014800
      2 CAV         5.5080    0.6720    0.0950 cc        1 MXM     -0.240700
      3 SAT         4.1940    0.0180   -0.7130 ss        1 MXM      0.009700
      4 CAU         5.0910    1.2950    1.2690 cd        1 MXM      0.346200
      5 NAS         3.7410    1.2540    1.5260 nd        1 MXM     -0.680000
      6 CAR         3.1200    0.5780    0.5250 cc        1 MXM      0.475300
      7 NAP         1.7440    0.3270    0.5280 n         1 MXM     -0.496400
      8 CAN         1.0480   -0.1010   -0.5920 c         1 MXM      0.683300
      9 OAQ         1.6170   -0.4440   -1.6440 o         1 MXM     -0.574100
     10 CAG        -0.4510   -0.1850   -0.4310 ce        1 MXM      0.078800
     11 CAC        -1.1770    0.9330   -0.1020 cf        1 MXM      0.044900
     12 OAH        -0.4860    2.1000    0.1520 oh        1 MXM     -0.492100
     13 CAA        -2.6350    0.9390   -0.0710 ca        1 MXM      0.035200
     14 CAD        -3.3470    2.1450   -0.0960 ca        1 MXM     -0.144000
     15 CAI        -4.7390    2.1330   -0.1070 ca        1 MXM     -0.062000
     16 CAM        -5.4300    0.9200   -0.1020 ca        1 MXM     -0.143000
     17 CAF        -4.7210   -0.2780   -0.0840 ca        1 MXM     -0.011000
     18 CAB        -3.3210   -0.2890   -0.0570 ca        1 MXM     -0.360500
     19 SAE        -2.5290   -1.7800    0.0130 sy        1 MXM      1.511200
     20 OAK        -3.2180   -2.7200   -0.7720 o         1 MXM     -0.637800
     21 OAL        -2.3450   -2.1400    1.3520 o         1 MXM     -0.637800
     22 NAJ        -1.0740   -1.4060   -0.6870 nh        1 MXM     -0.639300
     23 CAO        -0.4430   -2.3190   -1.6050 c3        1 MXM      0.188100
     24 H1          6.9520    0.1120   -1.3830 hc        1 MXM      0.047367
     25 H2          7.3360    1.6220   -0.4560 hc        1 MXM      0.047367
     26 H3          7.5170    0.0020    0.3360 hc        1 MXM      0.047367
     27 H4          5.7410    1.8080    1.9880 h4        1 MXM      0.043100
     28 H5          1.2180    0.7150    1.2850 hn        1 MXM      0.344500
     29 H7         -0.9550    2.5600    0.8660 ho        1 MXM      0.430000
     30 H8         -2.8060    3.1040   -0.1340 ha        1 MXM      0.146000
     31 H9         -5.2950    3.0830   -0.1270 ha        1 MXM      0.144000
     32 H10        -6.5300    0.9090   -0.1170 ha        1 MXM      0.149000
     33 H11        -5.2670   -1.2390   -0.1000 ha        1 MXM      0.159000
     34 H14        -0.1670   -1.7960   -2.5610 h1        1 MXM      0.067033
     35 H15         0.4960   -2.7390   -1.1530 h1        1 MXM      0.067033
     36 H16        -1.1550   -3.1570   -1.8360 h1        1 MXM      0.067033
@<TRIPOS>BOND
     1    1    2 1   
     2    1   24 1   
     3    1   25 1   
     4    1   26 1   
     5    2    3 1   
     6    2    4 2   
     7    3    6 1   
     8    4    5 1   
     9    4   27 1   
    10    5    6 2   
    11    6    7 1   
    12    7    8 1   
    13    7   28 1   
    14    8    9 2   
    15    8   10 1   
    16   10   11 2   
    17   10   22 1   
    18   11   12 1   
    19   11   13 1   
    20   12   29 1   
    21   13   14 ar  
    22   13   18 ar  
    23   14   15 ar  
    24   14   30 1   
    25   15   16 ar  
    26   15   31 1   
    27   16   17 ar  
    28   16   32 1   
    29   17   18 ar  
    30   17   33 1   
    31   18   19 1   
    32   19   20 2   
    33   19   21 2   
    34   19   22 1   
    35   22   23 1   
    36   23   34 1   
    37   23   35 1   
    38   23   36 1   
@<TRIPOS>SUBSTRUCTURE
     1 MXM         1 TEMP              0 ****  ****    0 ROOT
