@<TRIPOS>MOLECULE
MXM
   36    38     1     0     0
SMALL
bcc


@<TRIPOS>ATOM
      1 CAW         0.1340    0.3410   -0.3610 c3        1 MXM     -0.022800
      2 CAV         1.5310   -0.0290   -0.1260 cc        1 MXM     -0.199700
      3 SAT         2.6880    0.9840    0.5310 ss        1 MXM     -0.024300
      4 CAU         2.0930   -1.2720   -0.4250 cd        1 MXM      0.331200
      5 NAS         3.4300   -1.4080   -0.1410 nd        1 MXM     -0.639000
      6 CAR         3.8930   -0.2550    0.3920 cc        1 MXM      0.455300
      7 NAP         5.2030   -0.0410    0.8580 ns        1 MXM     -0.501400
      8 CAN         6.1430    0.6050    0.0510 c         1 MXM      0.680300
      9 OAQ         5.8130    1.2480   -0.9650 o         1 MXM     -0.600100
     10 CAG         7.5790    0.5450    0.4830 ce        1 MXM     -0.066200
     11 CAC         8.5790    0.5080   -0.4620 cf        1 MXM      0.170900
     12 OAH         8.3860    0.4900   -1.8120 oh        1 MXM     -0.487100
     13 CAA         9.9950    0.3860   -0.0890 ca        1 MXM      0.037200
     14 CAD        10.9950    0.6220   -1.0380 ca        1 MXM     -0.107000
     15 CAI        12.3370    0.5260   -0.6730 ca        1 MXM     -0.076000
     16 CAM        12.6840    0.2020    0.6380 ca        1 MXM     -0.135000
     17 CAF        11.6840   -0.0350    1.5800 ca        1 MXM     -0.021000
     18 CAB        10.3320    0.0420    1.2340 ca        1 MXM     -0.351500
     19 SAE         9.1740   -0.2960    2.4210 sy        1 MXM      1.511200
     20 OAK         9.6020    0.2310    3.6540 o         1 MXM     -0.641300
     21 OAL         8.8910   -1.6680    2.4270 o         1 MXM     -0.641300
     22 NAJ         7.8870    0.5590    1.8540 nh        1 MXM     -0.657300
     23 CAO         7.1750    1.4830    2.6930 c3        1 MXM      0.198100
     24 H1         -0.1090    0.2750   -1.4530 hc        1 MXM      0.052033
     25 H2         -0.0750    1.3840   -0.0180 hc        1 MXM      0.052033
     26 H3         -0.5510   -0.3540    0.1890 hc        1 MXM      0.052033
     27 H4          1.5600   -2.1240   -0.8640 h4        1 MXM      0.048100
     28 H5          5.5520   -0.7560    1.4670 hn        1 MXM      0.336500
     29 H7          7.4670    0.7310   -2.0260 ho        1 MXM      0.465000
     30 H8         10.7130    0.8790   -2.0720 ha        1 MXM      0.163000
     31 H9         13.1220    0.7100   -1.4230 ha        1 MXM      0.144000
     32 H10        13.7420    0.1320    0.9310 ha        1 MXM      0.146000
     33 H11        11.9600   -0.2790    2.6220 ha        1 MXM      0.157000
     34 H14         6.3270    0.9600    3.2140 h1        1 MXM      0.057033
     35 H15         6.7560    2.3350    2.0950 h1        1 MXM      0.057033
     36 H16         7.8750    1.8990    3.4700 h1        1 MXM      0.057033
@<TRIPOS>BOND
     1    1    2 1   
     2    1   24 1   
     3    1   25 1   
     4    1   26 1   
     5    2    3 1   
     6    2    4 2   
     7    3    6 1   
     8    4    5 1   
     9    4   27 1   
    10    5    6 2   
    11    6    7 1   
    12    7    8 1   
    13    7   28 1   
    14    8    9 2   
    15    8   10 1   
    16   10   11 2   
    17   10   22 1   
    18   11   12 1   
    19   11   13 1   
    20   12   29 1   
    21   13   14 ar  
    22   13   18 ar  
    23   14   15 ar  
    24   14   30 1   
    25   15   16 ar  
    26   15   31 1   
    27   16   17 ar  
    28   16   32 1   
    29   17   18 ar  
    30   17   33 1   
    31   18   19 1   
    32   19   20 2   
    33   19   21 2   
    34   19   22 1   
    35   22   23 1   
    36   23   34 1   
    37   23   35 1   
    38   23   36 1   
@<TRIPOS>SUBSTRUCTURE
     1 MXM         1 TEMP              0 ****  ****    0 ROOT
