@<TRIPOS>MOLECULE
MXM
   36    38     1     0     0
SMALL
bcc


@<TRIPOS>ATOM
      1 CAW         0.1380    0.3180   -0.3850 c3        1 MXM     -0.022800
      2 CAV         1.5340   -0.0470   -0.1370 cc        1 MXM     -0.199700
      3 SAT         2.6890    0.9810    0.4990 ss        1 MXM     -0.024300
      4 CAU         2.0960   -1.2970   -0.4040 cd        1 MXM      0.331200
      5 NAS         3.4320   -1.4270   -0.1120 nd        1 MXM     -0.639000
      6 CAR         3.8930   -0.2600    0.3940 cc        1 MXM      0.455300
      7 NAP         5.2020   -0.0360    0.8580 n         1 MXM     -0.501400
      8 CAN         6.1440    0.5940    0.0420 c         1 MXM      0.680300
      9 OAQ         5.8170    1.2170   -0.9880 o         1 MXM     -0.600100
     10 CAG         7.5790    0.5440    0.4790 ce        1 MXM     -0.066200
     11 CAC         8.5820    0.4910   -0.4620 cf        1 MXM      0.170900
     12 OAH         8.3920    0.4460   -1.8120 oh        1 MXM     -0.487100
     13 CAA         9.9960    0.3770   -0.0830 ca        1 MXM      0.037200
     14 CAD        10.9990    0.5960   -1.0330 ca        1 MXM     -0.107000
     15 CAI        12.3400    0.5090   -0.6620 ca        1 MXM     -0.076000
     16 CAM        12.6830    0.2100    0.6560 ca        1 MXM     -0.135000
     17 CAF        11.6820   -0.0090    1.5990 ca        1 MXM     -0.021000
     18 CAB        10.3300    0.0590    1.2470 ca        1 MXM     -0.351500
     19 SAE         9.1690   -0.2580    2.4380 sy        1 MXM      1.511200
     20 OAK         9.5930    0.2940    3.6620 o         1 MXM     -0.641300
     21 OAL         8.8870   -1.6290    2.4690 o         1 MXM     -0.641300
     22 NAJ         7.8830    0.5850    1.8510 nh        1 MXM     -0.657300
     23 CAO         7.1680    1.5250    2.6690 c3        1 MXM      0.198100
     24 H1         -0.5500   -0.3650    0.1770 hc        1 MXM      0.052033
     25 H2         -0.0730    1.3680   -0.0640 hc        1 MXM      0.052033
     26 H3         -0.1010    0.2300   -1.4760 hc        1 MXM      0.052033
     27 H4          1.5640   -2.1590   -0.8230 h4        1 MXM      0.048100
     28 H5          5.5500   -0.7390    1.4830 hn        1 MXM      0.336500
     29 H7          7.4740    0.6820   -2.0340 ho        1 MXM      0.465000
     30 H8         10.7200    0.8330   -2.0730 ha        1 MXM      0.163000
     31 H9         13.1280    0.6790   -1.4130 ha        1 MXM      0.144000
     32 H10        13.7410    0.1470    0.9530 ha        1 MXM      0.146000
     33 H11        11.9550   -0.2330    2.6460 ha        1 MXM      0.157000
     34 H14         7.8650    1.9560    3.4400 h1        1 MXM      0.057033
     35 H15         6.7500    2.3640    2.0530 h1        1 MXM      0.057033
     36 H16         6.3190    1.0110    3.1970 h1        1 MXM      0.057033
@<TRIPOS>BOND
     1    1    2 1   
     2    1   24 1   
     3    1   25 1   
     4    1   26 1   
     5    2    3 1   
     6    2    4 2   
     7    3    6 1   
     8    4    5 1   
     9    4   27 1   
    10    5    6 2   
    11    6    7 1   
    12    7    8 1   
    13    7   28 1   
    14    8    9 2   
    15    8   10 1   
    16   10   11 2   
    17   10   22 1   
    18   11   12 1   
    19   11   13 1   
    20   12   29 1   
    21   13   14 ar  
    22   13   18 ar  
    23   14   15 ar  
    24   14   30 1   
    25   15   16 ar  
    26   15   31 1   
    27   16   17 ar  
    28   16   32 1   
    29   17   18 ar  
    30   17   33 1   
    31   18   19 1   
    32   19   20 2   
    33   19   21 2   
    34   19   22 1   
    35   22   23 1   
    36   23   34 1   
    37   23   35 1   
    38   23   36 1   
@<TRIPOS>SUBSTRUCTURE
     1 MXM         1 TEMP              0 ****  ****    0 ROOT
