@<TRIPOS>MOLECULE
MXN
   17    17     1     0     0
SMALL
bcc


@<TRIPOS>ATOM
      1 C1          0.0730   -0.0380    0.2680 ca        1 MXN     -0.132300
      2 C2          0.9410   -0.9090    0.9320 ca        1 MXN     -0.108000
      3 C3          2.3000   -0.9130    0.6190 ca        1 MXN     -0.127000
      4 C4          2.7960   -0.0470   -0.3560 ca        1 MXN     -0.114000
      5 C5          1.9310    0.8230   -1.0210 ca        1 MXN     -0.127000
      6 C6          0.5730    0.8280   -0.7110 ca        1 MXN     -0.108000
      7 C7         -1.3890   -0.0290    0.6210 c3        1 MXN      0.260500
      8 C8         -2.2010   -0.3360   -0.5600 c1        1 MXN      0.176700
      9 N9         -2.8540   -0.5940   -1.4860 n1        1 MXN     -0.351800
     10 O10        -1.7940    1.1970    1.2040 oh        1 MXN     -0.570800
     11 H2          0.5550   -1.5910    1.7050 ha        1 MXN      0.135500
     12 H3          2.9810   -1.6000    1.1430 ha        1 MXN      0.138000
     13 H4          3.8690   -0.0510   -0.6030 ha        1 MXN      0.137000
     14 H5          2.3200    1.5040   -1.7920 ha        1 MXN      0.138000
     15 H6         -0.1110    1.5080   -1.2430 ha        1 MXN      0.135500
     16 H7         -1.6150   -0.7960    1.4240 h1        1 MXN      0.107700
     17 HO10       -1.4990    1.9140    0.6280 ho        1 MXN      0.411000
@<TRIPOS>BOND
     1    1    2 ar  
     2    1    6 ar  
     3    1    7 1   
     4    2    3 ar  
     5    2   11 1   
     6    3    4 ar  
     7    3   12 1   
     8    4    5 ar  
     9    4   13 1   
    10    5    6 ar  
    11    5   14 1   
    12    6   15 1   
    13    7    8 1   
    14    7   10 1   
    15    7   16 1   
    16    8    9 3   
    17   10   17 1   
@<TRIPOS>SUBSTRUCTURE
     1 MXN         1 TEMP              0 ****  ****    0 ROOT
