@<TRIPOS>MOLECULE
MXN
   17    17     1     0     0
SMALL
bcc


@<TRIPOS>ATOM
      1 C1         -0.0180   -0.0300    0.0160 ca        1 MXN     -0.099300
      2 C2          1.3780    0.0740    0.0080 ca        1 MXN     -0.101000
      3 C3          2.0790    0.1040    1.2120 ca        1 MXN     -0.133000
      4 C4          1.3930    0.0260    2.4240 ca        1 MXN     -0.116000
      5 C5          0.0030   -0.0840    2.4320 ca        1 MXN     -0.133000
      6 C6         -0.7050   -0.1100    1.2300 ca        1 MXN     -0.101000
      7 C7         -0.7550   -0.0610   -1.2940 c3        1 MXN      0.265500
      8 C8         -0.9880    1.2980   -1.7930 c1        1 MXN      0.171700
      9 N9         -1.1640    2.3750   -2.1910 n1        1 MXN     -0.348800
     10 O10        -1.9870   -0.7450   -1.0990 oh        1 MXN     -0.576800
     11 H2          1.9220    0.1340   -0.9470 ha        1 MXN      0.143000
     12 H3          3.1760    0.1900    1.2040 ha        1 MXN      0.135500
     13 H4          1.9490    0.0490    3.3730 ha        1 MXN      0.134000
     14 H5         -0.5400   -0.1490    3.3870 ha        1 MXN      0.135500
     15 H6         -1.8020   -0.2030    1.2300 ha        1 MXN      0.143000
     16 H7         -0.1380   -0.6150   -2.0660 h1        1 MXN      0.067700
     17 HO10       -2.4270   -0.7820   -1.9580 ho        1 MXN      0.413000
@<TRIPOS>BOND
     1    1    2 ar  
     2    1    6 ar  
     3    1    7 1   
     4    2    3 ar  
     5    2   11 1   
     6    3    4 ar  
     7    3   12 1   
     8    4    5 ar  
     9    4   13 1   
    10    5    6 ar  
    11    5   14 1   
    12    6   15 1   
    13    7    8 1   
    14    7   10 1   
    15    7   16 1   
    16    8    9 3   
    17   10   17 1   
@<TRIPOS>SUBSTRUCTURE
     1 MXN         1 TEMP              0 ****  ****    0 ROOT
