@<TRIPOS>MOLECULE
MXN
   17    17     1     0     0
SMALL
bcc


@<TRIPOS>ATOM
      1 C1         -0.0170   -0.0280    0.0150 ca        1 MXN     -0.099300
      2 C2          1.3790    0.0710    0.0050 ca        1 MXN     -0.101000
      3 C3          2.0820    0.0930    1.2080 ca        1 MXN     -0.133000
      4 C4          1.3970    0.0130    2.4210 ca        1 MXN     -0.116000
      5 C5          0.0060   -0.0910    2.4310 ca        1 MXN     -0.133000
      6 C6         -0.7030   -0.1090    1.2300 ca        1 MXN     -0.101000
      7 C7         -0.7560   -0.0500   -1.2940 c3        1 MXN      0.265500
      8 C8         -0.9850    1.3120   -1.7870 c1        1 MXN      0.171700
      9 N9         -1.1580    2.3910   -2.1810 n1        1 MXN     -0.348800
     10 O10        -1.9910   -0.7300   -1.1010 oh        1 MXN     -0.576800
     11 H2          1.9220    0.1320   -0.9500 ha        1 MXN      0.143000
     12 H3          3.1790    0.1740    1.2000 ha        1 MXN      0.135500
     13 H4          1.9540    0.0300    3.3690 ha        1 MXN      0.134000
     14 H5         -0.5360   -0.1570    3.3860 ha        1 MXN      0.135500
     15 H6         -1.8010   -0.1970    1.2300 ha        1 MXN      0.143000
     16 H7         -0.1420   -0.6030   -2.0690 h1        1 MXN      0.067700
     17 HO10       -2.4320   -0.7620   -1.9590 ho        1 MXN      0.413000
@<TRIPOS>BOND
     1    1    2 ar  
     2    1    6 ar  
     3    1    7 1   
     4    2    3 ar  
     5    2   11 1   
     6    3    4 ar  
     7    3   12 1   
     8    4    5 ar  
     9    4   13 1   
    10    5    6 ar  
    11    5   14 1   
    12    6   15 1   
    13    7    8 1   
    14    7   10 1   
    15    7   16 1   
    16    8    9 3   
    17   10   17 1   
@<TRIPOS>SUBSTRUCTURE
     1 MXN         1 TEMP              0 ****  ****    0 ROOT
