@<TRIPOS>MOLECULE
MXN
   17    17     1     0     0
SMALL
bcc


@<TRIPOS>ATOM
      1 C1         -0.0450   -0.0220    0.0640 ca        1 MXN     -0.099300
      2 C2          1.3540    0.0130    0.0550 ca        1 MXN     -0.101000
      3 C3          2.0550    0.0410    1.2590 ca        1 MXN     -0.133000
      4 C4          1.3650    0.0280    2.4720 ca        1 MXN     -0.116000
      5 C5         -0.0280   -0.0130    2.4800 ca        1 MXN     -0.133000
      6 C6         -0.7360   -0.0360    1.2790 ca        1 MXN     -0.101000
      7 C7         -0.7820   -0.0520   -1.2460 c3        1 MXN      0.265500
      8 C8         -0.9470    1.3030   -1.7820 c1        1 MXN      0.171700
      9 N9         -1.0690    2.3770   -2.2090 n1        1 MXN     -0.348800
     10 O10        -2.0470   -0.6670   -1.0360 oh        1 MXN     -0.576800
     11 H2          1.9010    0.0210   -0.9000 ha        1 MXN      0.143000
     12 H3          3.1550    0.0720    1.2510 ha        1 MXN      0.135500
     13 H4          1.9220    0.0490    3.4210 ha        1 MXN      0.134000
     14 H5         -0.5740   -0.0260    3.4360 ha        1 MXN      0.135500
     15 H6         -1.8370   -0.0750    1.2780 ha        1 MXN      0.143000
     16 H7         -0.1930   -0.6560   -2.0020 h1        1 MXN      0.067700
     17 HO10       -2.4880   -0.7060   -1.8940 ho        1 MXN      0.413000
@<TRIPOS>BOND
     1    1    2 ar  
     2    1    6 ar  
     3    1    7 1   
     4    2    3 ar  
     5    2   11 1   
     6    3    4 ar  
     7    3   12 1   
     8    4    5 ar  
     9    4   13 1   
    10    5    6 ar  
    11    5   14 1   
    12    6   15 1   
    13    7    8 1   
    14    7   10 1   
    15    7   16 1   
    16    8    9 3   
    17   10   17 1   
@<TRIPOS>SUBSTRUCTURE
     1 MXN         1 TEMP              0 ****  ****    0 ROOT
