@<TRIPOS>MOLECULE
MXP
   62    62     1     0     0
SMALL
bcc


@<TRIPOS>ATOM
      1 O1         -0.1730    0.6750    0.3970 os        1 MXP     -0.354200
      2 C1         -0.1190   -0.3620    2.5530 cc        1 MXP     -0.302000
      3 N1         -5.3960    4.5050   -1.7980 n4        1 MXP     -0.507600
      4 C2          1.3200   -0.4430    2.4860 cc        1 MXP      0.246100
      5 C3          1.9900    0.0390    1.3890 cd        1 MXP     -0.328400
      6 O2          2.0350   -0.9930    3.5090 oh        1 MXP     -0.456100
      7 C4          1.2360    0.6170    0.3000 c         1 MXP      0.751800
      8 C5         -0.7960    0.2000    1.5170 cd        1 MXP      0.157900
      9 C6          3.4770    0.0620    1.3040 c         1 MXP      0.616500
     10 C7          4.1360   -1.0830    0.6450 ce        1 MXP     -0.207400
     11 O3          1.5820    1.1030   -0.7740 o         1 MXP     -0.556500
     12 C8          5.4560   -1.2750    0.8690 cf        1 MXP     -0.031000
     13 C9          6.2400   -2.3650    0.3410 cf        1 MXP     -0.187000
     14 C10         7.5800   -2.4560    0.4630 c2        1 MXP     -0.049400
     15 C11         8.3160   -3.6270   -0.0950 c3        1 MXP     -0.056200
     16 C12         9.1100   -3.2530   -1.3330 c3        1 MXP     -0.076400
     17 C13         9.8870   -4.4410   -1.8590 c3        1 MXP     -0.080400
     18 C14        10.6750   -4.0800   -3.0920 c3        1 MXP     -0.093100
     19 C15         3.3090   -1.9550   -0.2180 c3        1 MXP     -0.047900
     20 C16         8.4020   -1.4330    1.1530 c3        1 MXP     -0.077900
     21 C17        -2.2790    0.3560    1.4450 c3        1 MXP     -0.041200
     22 C18        -2.6600    1.7420    0.9600 c3        1 MXP     -0.082400
     23 C19        -4.1420    1.8230    0.6420 c3        1 MXP     -0.072200
     24 C20        -4.4590    3.1380    0.0320 c2        1 MXP     -0.025200
     25 C21        -5.1070    3.2330   -1.1410 c2        1 MXP     -0.166000
     26 C22        -6.8720    4.6730   -2.0110 c         1 MXP      0.612100
     27 C23        -8.7700    5.9490   -1.3870 c3        1 MXP      0.131700
     28 O4          4.1020    1.0100    1.7940 o         1 MXP     -0.516100
     29 O5         -7.3480    5.6900   -1.2630 os        1 MXP     -0.397900
     30 O6         -7.5170    3.9740   -2.7760 o         1 MXP     -0.405000
     31 H1         -0.6410   -0.7450    3.4400 ha        1 MXP      0.162000
     32 HN1        -5.0400    5.2990   -1.2470 hn        1 MXP      0.477800
     33 HO2         1.4190   -1.2640    4.2090 ho        1 MXP      0.437000
     34 H8          5.9950   -0.5510    1.5130 ha        1 MXP      0.144000
     35 H9          5.6860   -3.1630   -0.1840 ha        1 MXP      0.130000
     36 H11         7.6010   -4.4540   -0.3510 hc        1 MXP      0.052200
     37 H11A        9.0160   -4.0240    0.6900 hc        1 MXP      0.052200
     38 H12         8.4120   -2.8780   -2.1270 hc        1 MXP      0.045200
     39 H12A        9.8170   -2.4160   -1.0900 hc        1 MXP      0.045200
     40 H13        10.5840   -4.8140   -1.0620 hc        1 MXP      0.040200
     41 H13A        9.1780   -5.2770   -2.0950 hc        1 MXP      0.040200
     42 H14        11.4050   -3.2650   -2.8700 hc        1 MXP      0.035033
     43 H14A        9.9950   -3.7290   -3.9060 hc        1 MXP      0.035033
     44 H14B       11.2400   -4.9690   -3.4640 hc        1 MXP      0.035033
     45 H15         2.4810   -1.3730   -0.6960 hc        1 MXP      0.043700
     46 H15A        2.8570   -2.7830    0.3850 hc        1 MXP      0.043700
     47 H15B        3.9210   -2.4090   -1.0360 hc        1 MXP      0.043700
     48 H16         9.4910   -1.6790    1.0940 hc        1 MXP      0.052700
     49 H16A        8.2460   -0.4250    0.6930 hc        1 MXP      0.052700
     50 H16B        8.1170   -1.3700    2.2340 hc        1 MXP      0.052700
     51 H17        -2.7230    0.1590    2.4560 hc        1 MXP      0.074700
     52 H17A       -2.6750   -0.4210    0.7350 hc        1 MXP      0.074700
     53 H18        -2.0630    1.9870    0.0400 hc        1 MXP      0.071200
     54 H18A       -2.3960    2.5000    1.7440 hc        1 MXP      0.071200
     55 H19        -4.4350    0.9770   -0.0370 hc        1 MXP      0.083200
     56 H19A       -4.7440    1.7170    1.5890 hc        1 MXP      0.083200
     57 H20        -4.1070    4.0190    0.6010 ha        1 MXP      0.156000
     58 H21        -5.4770    2.3660   -1.7260 hx        1 MXP      0.213000
     59 H23        -9.3390    5.0480   -1.0540 h1        1 MXP      0.091367
     60 H23A       -9.0070    6.2120   -2.4450 h1        1 MXP      0.091367
     61 H23B       -8.9050    6.8180   -0.6920 h1        1 MXP      0.091367
     62 H121       -4.9410    4.5030   -2.7250 hn        1 MXP      0.477800
@<TRIPOS>BOND
     1    1    7 1   
     2    1    8 1   
     3    2    4 1   
     4    2    8 2   
     5    2   31 1   
     6    3   25 1   
     7    3   26 1   
     8    3   32 1   
     9    3   62 1   
    10    4    5 2   
    11    4    6 1   
    12    5    7 1   
    13    5    9 1   
    14    6   33 1   
    15    7   11 2   
    16    8   21 1   
    17    9   10 1   
    18    9   28 2   
    19   10   12 2   
    20   10   19 1   
    21   12   13 1   
    22   12   34 1   
    23   13   14 2   
    24   13   35 1   
    25   14   15 1   
    26   14   20 1   
    27   15   16 1   
    28   15   36 1   
    29   15   37 1   
    30   16   17 1   
    31   16   38 1   
    32   16   39 1   
    33   17   18 1   
    34   17   40 1   
    35   17   41 1   
    36   18   42 1   
    37   18   43 1   
    38   18   44 1   
    39   19   45 1   
    40   19   46 1   
    41   19   47 1   
    42   20   48 1   
    43   20   49 1   
    44   20   50 1   
    45   21   22 1   
    46   21   51 1   
    47   21   52 1   
    48   22   23 1   
    49   22   53 1   
    50   22   54 1   
    51   23   24 1   
    52   23   55 1   
    53   23   56 1   
    54   24   25 2   
    55   24   57 1   
    56   25   58 1   
    57   26   29 1   
    58   26   30 2   
    59   27   29 1   
    60   27   59 1   
    61   27   60 1   
    62   27   61 1   
@<TRIPOS>SUBSTRUCTURE
     1 MXP         1 TEMP              0 ****  ****    0 ROOT
