@<TRIPOS>MOLECULE
MXP
   61    61     1     0     0
SMALL
bcc


@<TRIPOS>ATOM
      1 O1          0.5970   -0.2320   -1.0360 os        1 MXP     -0.331200
      2 C1          1.0180    2.0430   -0.4320 cc        1 MXP     -0.341000
      3 N1          8.4240   -0.2110    0.4400 n         1 MXP     -0.465100
      4 C2         -0.2860    2.1350    0.1670 cc        1 MXP      0.263100
      5 C3         -1.1350    1.0530    0.1550 cd        1 MXP     -0.352400
      6 O2         -0.7120    3.3030    0.7280 oh        1 MXP     -0.458100
      7 C4         -0.6910   -0.1780   -0.4610 c         1 MXP      0.748800
      8 C5          1.4050    0.8660   -0.9990 cd        1 MXP      0.194900
      9 C6         -2.4660    1.0880    0.8080 c         1 MXP      0.613500
     10 C7         -3.6490    0.8060   -0.0370 ce        1 MXP     -0.187400
     11 O3         -1.2400   -1.2700   -0.5920 o         1 MXP     -0.561500
     12 C8         -4.8080    0.4710    0.5720 cf        1 MXP     -0.053000
     13 C9         -6.0370    0.1280   -0.1020 cf        1 MXP     -0.166000
     14 C10        -7.2180   -0.0420    0.5260 c2        1 MXP     -0.073400
     15 C11        -8.4450   -0.3970   -0.2430 c3        1 MXP     -0.050200
     16 C12        -8.8800   -1.8260    0.0240 c3        1 MXP     -0.076400
     17 C13       -10.1550   -2.1550   -0.7230 c3        1 MXP     -0.080400
     18 C14       -10.5910   -3.5750   -0.4680 c3        1 MXP     -0.093100
     19 C15        -3.4710    0.9000   -1.5020 c3        1 MXP     -0.055900
     20 C16        -7.3860    0.1220    1.9900 c3        1 MXP     -0.070900
     21 C17         2.7200    0.6230   -1.6600 c3        1 MXP     -0.057200
     22 C18         3.8620    0.7110   -0.6670 c3        1 MXP     -0.074400
     23 C19         5.1940    0.5360   -1.3730 c3        1 MXP     -0.027200
     24 C20         6.3210    0.6270   -0.4170 c2        1 MXP     -0.258200
     25 C21         7.3300   -0.2670   -0.4230 c2        1 MXP     -0.001400
     26 C22         9.4270   -1.1620    0.3850 c         1 MXP      0.742100
     27 C23        11.4760   -1.8950    1.3230 c3        1 MXP      0.137700
     28 O4         -2.5640    1.3520    2.0140 o         1 MXP     -0.525100
     29 O5         10.4080   -0.9440    1.3320 os        1 MXP     -0.441900
     30 O6          9.5300   -2.1290   -0.3850 o         1 MXP     -0.572000
     31 H1          1.6880    2.9120   -0.4200 ha        1 MXP      0.159000
     32 HN1         8.4860    0.5060    1.1250 hn        1 MXP      0.335500
     33 HO2         0.0180    3.9420    0.7010 ho        1 MXP      0.433000
     34 H8         -4.8330    0.4440    1.6800 ha        1 MXP      0.142000
     35 H9         -5.9780   -0.0100   -1.1960 ha        1 MXP      0.129000
     36 H11        -9.2730    0.3060    0.0470 hc        1 MXP      0.048200
     37 H11A       -8.2700   -0.2650   -1.3440 hc        1 MXP      0.048200
     38 H12        -8.0660   -2.5310   -0.2900 hc        1 MXP      0.045200
     39 H12A       -9.0390   -1.9720    1.1250 hc        1 MXP      0.045200
     40 H13       -10.9670   -1.4490   -0.4070 hc        1 MXP      0.038200
     41 H13A       -9.9940   -2.0020   -1.8230 hc        1 MXP      0.038200
     42 H14        -9.8040   -4.2950   -0.7990 hc        1 MXP      0.033367
     43 H14A      -10.7800   -3.7400    0.6210 hc        1 MXP      0.033367
     44 H14B      -11.5320   -3.7980   -1.0270 hc        1 MXP      0.033367
     45 H15        -3.0620   -0.0670   -1.8960 hc        1 MXP      0.047367
     46 H15A       -4.4370    1.1160   -2.0200 hc        1 MXP      0.047367
     47 H15B       -2.7510    1.7160   -1.7610 hc        1 MXP      0.047367
     48 H16        -7.0620    1.1440    2.3100 hc        1 MXP      0.048700
     49 H16A       -8.4520   -0.0190    2.2950 hc        1 MXP      0.048700
     50 H16B       -6.7630   -0.6280    2.5400 hc        1 MXP      0.048700
     51 H17         2.7150   -0.3910   -2.1450 hc        1 MXP      0.077700
     52 H17A        2.8530    1.3900   -2.4700 hc        1 MXP      0.077700
     53 H18         3.8360    1.7040   -0.1460 hc        1 MXP      0.052700
     54 H18A        3.7430   -0.0830    0.1160 hc        1 MXP      0.052700
     55 H19         5.2030   -0.4490   -1.9140 hc        1 MXP      0.048200
     56 H19A        5.3120    1.3410   -2.1500 hc        1 MXP      0.048200
     57 H20         6.2840    1.4730    0.2860 ha        1 MXP      0.127000
     58 H21         7.3620   -1.1220   -1.1300 h4        1 MXP      0.170000
     59 H23        11.0780   -2.9180    1.5250 h1        1 MXP      0.055700
     60 H23A       11.9980   -1.8740    0.3360 h1        1 MXP      0.055700
     61 H23B       12.1400   -1.5390    2.1490 h1        1 MXP      0.055700
@<TRIPOS>BOND
     1    1    7 1   
     2    1    8 1   
     3    2    4 1   
     4    2    8 2   
     5    2   31 1   
     6    3   25 1   
     7    3   26 1   
     8    3   32 1   
     9    4    5 2   
    10    4    6 1   
    11    5    7 1   
    12    5    9 1   
    13    6   33 1   
    14    7   11 2   
    15    8   21 1   
    16    9   10 1   
    17    9   28 2   
    18   10   12 2   
    19   10   19 1   
    20   12   13 1   
    21   12   34 1   
    22   13   14 2   
    23   13   35 1   
    24   14   15 1   
    25   14   20 1   
    26   15   16 1   
    27   15   36 1   
    28   15   37 1   
    29   16   17 1   
    30   16   38 1   
    31   16   39 1   
    32   17   18 1   
    33   17   40 1   
    34   17   41 1   
    35   18   42 1   
    36   18   43 1   
    37   18   44 1   
    38   19   45 1   
    39   19   46 1   
    40   19   47 1   
    41   20   48 1   
    42   20   49 1   
    43   20   50 1   
    44   21   22 1   
    45   21   51 1   
    46   21   52 1   
    47   22   23 1   
    48   22   53 1   
    49   22   54 1   
    50   23   24 1   
    51   23   55 1   
    52   23   56 1   
    53   24   25 2   
    54   24   57 1   
    55   25   58 1   
    56   26   29 1   
    57   26   30 2   
    58   27   29 1   
    59   27   59 1   
    60   27   60 1   
    61   27   61 1   
@<TRIPOS>SUBSTRUCTURE
     1 MXP         1 TEMP              0 ****  ****    0 ROOT
