@<TRIPOS>MOLECULE
MXP
   62    62     1     0     0
SMALL
bcc


@<TRIPOS>ATOM
      1 O1         -1.5730    0.5640    1.4870 os        1 MXP     -0.389200
      2 C1         -0.9420   -0.9780    3.1980 cc        1 MXP     -0.298000
      3 N1         -2.4240    2.9260   -0.4780 n4        1 MXP     -0.508600
      4 C2          0.4440   -0.8490    2.8210 cc        1 MXP      0.274100
      5 C3          0.8050   -0.0020    1.7940 cd        1 MXP     -0.335400
      6 O2          1.4120   -1.5390    3.4770 oh        1 MXP     -0.443100
      7 C4         -0.2270    0.7230    1.1080 c         1 MXP      0.780800
      8 C5         -1.8910   -0.2660    2.5330 cd        1 MXP      0.171900
      9 C6          2.2150    0.2840    1.4030 c         1 MXP      0.613500
     10 C7          2.9820   -0.8100    0.7820 ce        1 MXP     -0.222400
     11 O3         -0.1950    1.5270    0.1660 o         1 MXP     -0.664500
     12 C8          4.3190   -0.6530    0.6400 cf        1 MXP     -0.011000
     13 C9          5.2290   -1.6240    0.0900 cf        1 MXP     -0.200000
     14 C10         6.5400   -1.3850   -0.1300 c2        1 MXP     -0.032400
     15 C11         7.4230   -2.4530   -0.6820 c3        1 MXP     -0.060200
     16 C12         7.8050   -2.1760   -2.1240 c3        1 MXP     -0.075400
     17 C13         8.7390   -3.2440   -2.6520 c3        1 MXP     -0.080400
     18 C14         9.1210   -2.9810   -4.0860 c3        1 MXP     -0.094100
     19 C15         2.2270   -2.0120    0.3650 c3        1 MXP     -0.044900
     20 C16         7.1900   -0.0860    0.1660 c3        1 MXP     -0.081900
     21 C17        -3.3510   -0.3010    2.8350 c3        1 MXP     -0.052200
     22 C18        -4.0310    1.0480    2.6900 c3        1 MXP     -0.070400
     23 C19        -4.4260    1.3330    1.2470 c3        1 MXP     -0.087200
     24 C20        -4.4310    2.7890    0.9790 c2        1 MXP     -0.043200
     25 C21        -3.5730    3.4870    0.2180 c2        1 MXP     -0.139000
     26 C22        -2.6400    2.9130   -1.9550 c         1 MXP      0.619100
     27 C23        -2.3470    4.1300   -3.9650 c3        1 MXP      0.129700
     28 O4          2.6790    1.4130    1.6070 o         1 MXP     -0.520100
     29 O5         -2.2360    4.0710   -2.5230 os        1 MXP     -0.395900
     30 O6         -3.1210    1.9610   -2.5530 o         1 MXP     -0.428000
     31 H1         -1.2140   -1.6440    4.0300 ha        1 MXP      0.176000
     32 HN1        -1.5820    3.4900   -0.2670 hn        1 MXP      0.498800
     33 HO2         1.0040   -2.0650    4.1860 ho        1 MXP      0.448000
     34 H8          4.7730    0.3020    0.9810 ha        1 MXP      0.145000
     35 H9          4.8150   -2.6190   -0.1510 ha        1 MXP      0.133000
     36 H11         6.9160   -3.4530   -0.6210 hc        1 MXP      0.055700
     37 H11A        8.3540   -2.5150   -0.0550 hc        1 MXP      0.055700
     38 H12         8.3010   -1.1720   -2.1980 hc        1 MXP      0.044200
     39 H12A        6.8800   -2.1380   -2.7580 hc        1 MXP      0.044200
     40 H13         9.6640   -3.2800   -2.0170 hc        1 MXP      0.041700
     41 H13A        8.2440   -4.2470   -2.5720 hc        1 MXP      0.041700
     42 H14         8.2150   -2.9650   -4.7400 hc        1 MXP      0.036033
     43 H14A        9.6390   -1.9960   -4.1830 hc        1 MXP      0.036033
     44 H14B        9.8090   -3.7790   -4.4560 hc        1 MXP      0.036033
     45 H15         1.2670   -1.7210   -0.1290 hc        1 MXP      0.042033
     46 H15A        2.8080   -2.6360   -0.3570 hc        1 MXP      0.042033
     47 H15B        1.9850   -2.6390    1.2620 hc        1 MXP      0.042033
     48 H16         7.1440    0.1290    1.2640 hc        1 MXP      0.055367
     49 H16A        6.6730    0.7460   -0.3740 hc        1 MXP      0.055367
     50 H16B        8.2640   -0.0900   -0.1440 hc        1 MXP      0.055367
     51 H17        -3.8350   -1.0550    2.1550 hc        1 MXP      0.089200
     52 H17A       -3.4790   -0.6670    3.8910 hc        1 MXP      0.089200
     53 H18        -4.9510    1.0610    3.3330 hc        1 MXP      0.067700
     54 H18A       -3.3460    1.8510    3.0710 hc        1 MXP      0.067700
     55 H19        -5.4620    0.9330    1.0570 hc        1 MXP      0.077200
     56 H19A       -3.7430    0.7750    0.5510 hc        1 MXP      0.077200
     57 H20        -5.2430    3.3580    1.4780 ha        1 MXP      0.179000
     58 H21        -3.6670    4.5790    0.0540 hx        1 MXP      0.198000
     59 H23        -1.9570    5.1570   -4.1850 h1        1 MXP      0.086367
     60 H23A       -1.7120    3.3330   -4.4190 h1        1 MXP      0.086367
     61 H23B       -3.4170    4.0130   -4.2600 h1        1 MXP      0.086367
     62 H121       -2.2190    1.9500   -0.1700 hn        1 MXP      0.498800
@<TRIPOS>BOND
     1    1    7 1   
     2    1    8 1   
     3    2    4 1   
     4    2    8 2   
     5    2   31 1   
     6    3   25 1   
     7    3   26 1   
     8    3   32 1   
     9    3   62 1   
    10    4    5 2   
    11    4    6 1   
    12    5    7 1   
    13    5    9 1   
    14    6   33 1   
    15    7   11 2   
    16    8   21 1   
    17    9   10 1   
    18    9   28 2   
    19   10   12 2   
    20   10   19 1   
    21   12   13 1   
    22   12   34 1   
    23   13   14 2   
    24   13   35 1   
    25   14   15 1   
    26   14   20 1   
    27   15   16 1   
    28   15   36 1   
    29   15   37 1   
    30   16   17 1   
    31   16   38 1   
    32   16   39 1   
    33   17   18 1   
    34   17   40 1   
    35   17   41 1   
    36   18   42 1   
    37   18   43 1   
    38   18   44 1   
    39   19   45 1   
    40   19   46 1   
    41   19   47 1   
    42   20   48 1   
    43   20   49 1   
    44   20   50 1   
    45   21   22 1   
    46   21   51 1   
    47   21   52 1   
    48   22   23 1   
    49   22   53 1   
    50   22   54 1   
    51   23   24 1   
    52   23   55 1   
    53   23   56 1   
    54   24   25 2   
    55   24   57 1   
    56   25   58 1   
    57   26   29 1   
    58   26   30 2   
    59   27   29 1   
    60   27   59 1   
    61   27   60 1   
    62   27   61 1   
@<TRIPOS>SUBSTRUCTURE
     1 MXP         1 TEMP              0 ****  ****    0 ROOT
