@<TRIPOS>MOLECULE
MXP
   62    62     1     0     0
SMALL
bcc


@<TRIPOS>ATOM
      1 O1         -0.1710    0.6720    0.4130 os        1 MXP     -0.354200
      2 C1         -0.1090   -0.3630    2.5700 cc        1 MXP     -0.302000
      3 N1         -5.3980    4.4990   -1.7670 ny        1 MXP     -0.507600
      4 C2          1.3300   -0.4450    2.4960 cc        1 MXP      0.246100
      5 C3          1.9950    0.0370    1.3960 cd        1 MXP     -0.328400
      6 O2          2.0500   -0.9930    3.5160 oh        1 MXP     -0.456100
      7 C4          1.2360    0.6140    0.3090 c         1 MXP      0.751800
      8 C5         -0.7900    0.1980    1.5360 cd        1 MXP      0.157900
      9 C6          3.4820    0.0610    1.3040 c         1 MXP      0.616500
     10 C7          4.1380   -1.0840    0.6420 ce        1 MXP     -0.207400
     11 O3          1.5780    1.0990   -0.7660 o         1 MXP     -0.556500
     12 C8          5.4610   -1.2730    0.8570 cf        1 MXP     -0.031000
     13 C9          6.2430   -2.3610    0.3240 cf        1 MXP     -0.187000
     14 C10         7.5850   -2.4480    0.4350 c2        1 MXP     -0.049400
     15 C11         8.3200   -3.6180   -0.1270 c3        1 MXP     -0.056200
     16 C12         9.1010   -3.2440   -1.3730 c3        1 MXP     -0.076400
     17 C13         9.8780   -4.4310   -1.9030 c3        1 MXP     -0.080400
     18 C14        10.6520   -4.0710   -3.1440 c3        1 MXP     -0.093100
     19 C15         3.3070   -1.9580   -0.2140 c3        1 MXP     -0.047900
     20 C16         8.4100   -1.4220    1.1160 c3        1 MXP     -0.077900
     21 C17        -2.2730    0.3530    1.4700 c3        1 MXP     -0.041200
     22 C18        -2.6560    1.7390    0.9870 c3        1 MXP     -0.082400
     23 C19        -4.1400    1.8180    0.6720 c3        1 MXP     -0.072200
     24 C20        -4.4580    3.1330    0.0620 c2        1 MXP     -0.025200
     25 C21        -5.1070    3.2280   -1.1100 c2        1 MXP     -0.166000
     26 C22        -6.8740    4.6650   -1.9820 c         1 MXP      0.612100
     27 C23        -8.7750    5.9370   -1.3590 c3        1 MXP      0.131700
     28 O4          4.1090    1.0080    1.7930 o         1 MXP     -0.516100
     29 O5         -7.3520    5.6810   -1.2340 os        1 MXP     -0.397900
     30 O6         -7.5170    3.9640   -2.7470 o         1 MXP     -0.405000
     31 H1         -0.6270   -0.7460    3.4590 ha        1 MXP      0.162000
     32 HN1        -5.0440    5.2940   -1.2150 hn        1 MXP      0.477800
     33 HO2         1.4370   -1.2640    4.2200 ho        1 MXP      0.437000
     34 H8          6.0020   -0.5470    1.4960 ha        1 MXP      0.144000
     35 H9          5.6880   -3.1630   -0.1940 ha        1 MXP      0.130000
     36 H11         7.6050   -4.4480   -0.3750 hc        1 MXP      0.052200
     37 H11A        9.0270   -4.0120    0.6530 hc        1 MXP      0.052200
     38 H12         8.3950   -2.8740   -2.1620 hc        1 MXP      0.045200
     39 H12A        9.8070   -2.4050   -1.1390 hc        1 MXP      0.045200
     40 H13        10.5830   -4.8000   -1.1120 hc        1 MXP      0.040200
     41 H13A        9.1690   -5.2710   -2.1310 hc        1 MXP      0.040200
     42 H14        11.3820   -3.2520   -2.9310 hc        1 MXP      0.035033
     43 H14A        9.9640   -3.7240   -3.9530 hc        1 MXP      0.035033
     44 H14B       11.2180   -4.9580   -3.5190 hc        1 MXP      0.035033
     45 H15         2.4780   -1.3760   -0.6910 hc        1 MXP      0.043700
     46 H15A        2.8570   -2.7830    0.3940 hc        1 MXP      0.043700
     47 H15B        3.9150   -2.4160   -1.0330 hc        1 MXP      0.043700
     48 H16         9.4990   -1.6640    1.0470 hc        1 MXP      0.052700
     49 H16A        8.2460   -0.4150    0.6550 hc        1 MXP      0.052700
     50 H16B        8.1330   -1.3580    2.1990 hc        1 MXP      0.052700
     51 H17        -2.7130    0.1560    2.4830 hc        1 MXP      0.074700
     52 H17A       -2.6720   -0.4240    0.7610 hc        1 MXP      0.074700
     53 H18        -2.0620    1.9840    0.0650 hc        1 MXP      0.071200
     54 H18A       -2.3910    2.4970    1.7700 hc        1 MXP      0.071200
     55 H19        -4.4340    0.9720   -0.0050 hc        1 MXP      0.083200
     56 H19A       -4.7390    1.7120    1.6200 hc        1 MXP      0.083200
     57 H20        -4.1080    4.0150    0.6320 ha        1 MXP      0.156000
     58 H21        -5.4760    2.3610   -1.6950 hx        1 MXP      0.213000
     59 H23        -9.3420    5.0350   -1.0270 h1        1 MXP      0.091367
     60 H23A       -9.0120    6.1990   -2.4180 h1        1 MXP      0.091367
     61 H23B       -8.9120    6.8060   -0.6660 h1        1 MXP      0.091367
     62 H121       -4.9420    4.4980   -2.6930 hn        1 MXP      0.477800
@<TRIPOS>BOND
     1    1    7 1   
     2    1    8 1   
     3    2    4 1   
     4    2    8 2   
     5    2   31 1   
     6    3   25 1   
     7    3   26 1   
     8    3   32 1   
     9    3   62 1   
    10    4    5 2   
    11    4    6 1   
    12    5    7 1   
    13    5    9 1   
    14    6   33 1   
    15    7   11 2   
    16    8   21 1   
    17    9   10 1   
    18    9   28 2   
    19   10   12 2   
    20   10   19 1   
    21   12   13 1   
    22   12   34 1   
    23   13   14 2   
    24   13   35 1   
    25   14   15 1   
    26   14   20 1   
    27   15   16 1   
    28   15   36 1   
    29   15   37 1   
    30   16   17 1   
    31   16   38 1   
    32   16   39 1   
    33   17   18 1   
    34   17   40 1   
    35   17   41 1   
    36   18   42 1   
    37   18   43 1   
    38   18   44 1   
    39   19   45 1   
    40   19   46 1   
    41   19   47 1   
    42   20   48 1   
    43   20   49 1   
    44   20   50 1   
    45   21   22 1   
    46   21   51 1   
    47   21   52 1   
    48   22   23 1   
    49   22   53 1   
    50   22   54 1   
    51   23   24 1   
    52   23   55 1   
    53   23   56 1   
    54   24   25 2   
    55   24   57 1   
    56   25   58 1   
    57   26   29 1   
    58   26   30 2   
    59   27   29 1   
    60   27   59 1   
    61   27   60 1   
    62   27   61 1   
@<TRIPOS>SUBSTRUCTURE
     1 MXP         1 TEMP              0 ****  ****    0 ROOT
