@<TRIPOS>MOLECULE
MXR
   52    53     1     0     0
SMALL
bcc


@<TRIPOS>ATOM
      1 C1          4.9800    0.6780    0.6010 c         1 MXR      0.584900
      2 C2          0.9810    0.2100    0.7910 c3        1 MXR     -0.071900
      3 C3          4.5060   -0.6380    0.0390 c3        1 MXR     -0.194700
      4 C4          3.0020   -0.6670   -0.2570 c3        1 MXR      0.102500
      5 C5          1.4480    0.9780   -0.4370 ce        1 MXR      0.383300
      6 O6          5.7240    0.7330    1.5850 o         1 MXR     -0.569100
      7 C7          5.2890   -0.9510   -1.2500 c3        1 MXR      0.143100
      8 O8          5.1480   -2.3210   -1.5980 oh        1 MXR     -0.596800
      9 C9          6.7580   -0.5940   -1.1030 c3        1 MXR     -0.137100
     10 N10         2.5260    0.5150   -0.9900 n2        1 MXR     -0.599900
     11 C11         0.7210    2.2770   -0.8190 c         1 MXR      0.841300
     12 O12         0.9900    3.2740   -0.1010 o         1 MXR     -0.801300
     13 O13        -0.1040    2.2410   -1.7660 o         1 MXR     -0.801300
     14 S14        -0.5190   -0.7270    0.6170 ss        1 MXR     -0.334200
     15 C15        -1.8220    0.4300    0.2780 c3        1 MXR     -0.024600
     16 C16        -2.9920   -0.3760   -0.2670 c3        1 MXR     -0.075400
     17 C17        -4.1440   -0.1870    0.7500 c3        1 MXR      0.098500
     18 C18         2.0860   -0.8480    1.0010 c3        1 MXR     -0.081700
     19 N19        -3.7760    0.8680    1.7010 n3        1 MXR     -0.790200
     20 C20         2.7620   -0.6730    2.3340 c3        1 MXR     -0.086100
     21 C21        -2.3470    1.1370    1.5390 c3        1 MXR      0.144800
     22 C22        -5.4630    0.0800    0.0130 c         1 MXR      0.655100
     23 N23        -6.1210   -0.9910   -0.5830 n         1 MXR     -0.484800
     24 O24        -5.9460    1.2270   -0.0720 o         1 MXR     -0.613100
     25 C25        -7.3680   -0.7910   -1.2640 c3        1 MXR      0.082800
     26 C26        -5.6810   -2.3430   -0.4070 c3        1 MXR      0.082800
     27 H1          4.6370    1.5970    0.0750 h4        1 MXR      0.041200
     28 H3          0.8870    0.9190    1.6480 h1        1 MXR      0.095700
     29 H4          4.7260   -1.4530    0.7860 hc        1 MXR      0.058700
     30 H5          2.8380   -1.5630   -0.9300 h1        1 MXR      0.071700
     31 H8          4.8340   -0.4030   -2.1240 h1        1 MXR      0.109700
     32 H9          5.4880   -2.8410   -0.8600 ho        1 MXR      0.388000
     33 H10         7.1780   -1.0250   -0.1620 hc        1 MXR      0.042700
     34 H11         7.3330   -0.9970   -1.9710 hc        1 MXR      0.042700
     35 H12         6.8800    0.5150   -1.0700 hc        1 MXR      0.042700
     36 H16        -1.4600    1.1860   -0.4750 h1        1 MXR      0.156700
     37 H17        -3.2840   -0.0020   -1.2800 hc        1 MXR      0.064200
     38 H18        -2.7280   -1.4600   -0.3600 hc        1 MXR      0.064200
     39 H19        -4.2600   -1.1250    1.3690 h1        1 MXR      0.069700
     40 H20         1.6400   -1.8810    0.9590 hc        1 MXR      0.059700
     41 H21        -4.3130    1.7000    1.5180 hn        1 MXR      0.370800
     42 H23         2.0000   -0.6910    3.1520 hc        1 MXR      0.036033
     43 H24         3.4930   -1.4970    2.5220 hc        1 MXR      0.036033
     44 H25         3.3060    0.3020    2.3840 hc        1 MXR      0.036033
     45 H26        -1.8280    0.7310    2.4510 h1        1 MXR      0.063200
     46 H27        -2.1410    2.2400    1.4800 h1        1 MXR      0.063200
     47 H28        -7.3120   -1.2330   -2.2960 h1        1 MXR      0.038367
     48 H29        -8.2040   -1.2930   -0.7060 h1        1 MXR      0.038367
     49 H30        -7.5930    0.3060   -1.3490 h1        1 MXR      0.038367
     50 H31        -5.8700   -2.6930    0.6450 h1        1 MXR      0.038367
     51 H32        -6.2360   -3.0180   -1.1110 h1        1 MXR      0.038367
     52 H33        -4.5830   -2.4300   -0.6230 h1        1 MXR      0.038367
@<TRIPOS>BOND
     1    1    3 1   
     2    1    6 2   
     3    1   27 1   
     4    2    5 1   
     5    2   14 1   
     6    2   18 1   
     7    2   28 1   
     8    3    4 1   
     9    3    7 1   
    10    3   29 1   
    11    4   10 1   
    12    4   18 1   
    13    4   30 1   
    14    5   10 2   
    15    5   11 1   
    16    7    8 1   
    17    7    9 1   
    18    7   31 1   
    19    8   32 1   
    20    9   33 1   
    21    9   34 1   
    22    9   35 1   
    23   11   12 1   
    24   11   13 1   
    25   14   15 1   
    26   15   16 1   
    27   15   21 1   
    28   15   36 1   
    29   16   17 1   
    30   16   37 1   
    31   16   38 1   
    32   17   19 1   
    33   17   22 1   
    34   17   39 1   
    35   18   20 1   
    36   18   40 1   
    37   19   21 1   
    38   19   41 1   
    39   20   42 1   
    40   20   43 1   
    41   20   44 1   
    42   21   45 1   
    43   21   46 1   
    44   22   23 1   
    45   22   24 2   
    46   23   25 1   
    47   23   26 1   
    48   25   47 1   
    49   25   48 1   
    50   25   49 1   
    51   26   50 1   
    52   26   51 1   
    53   26   52 1   
@<TRIPOS>SUBSTRUCTURE
     1 MXR         1 TEMP              0 ****  ****    0 ROOT
