@<TRIPOS>MOLECULE
MXR
   53    54     1     0     0
SMALL
bcc


@<TRIPOS>ATOM
      1 C1          0.4330    0.2150    0.5030 c         1 MXR      0.571900
      2 C2          1.6680    3.0550   -2.0720 c3        1 MXR     -0.085900
      3 C3          1.7970   -0.0570   -0.0850 c3        1 MXR     -0.162700
      4 C4          2.4530    1.2040   -0.6660 c3        1 MXR      0.096500
      5 C5          1.8330    3.3810   -0.5990 ce        1 MXR      0.390300
      6 O6         -0.6090   -0.1570   -0.0350 o         1 MXR     -0.523100
      7 C7          2.6930   -0.6530    1.0150 c3        1 MXR      0.142100
      8 O8          3.9160   -1.0090    0.3770 oh        1 MXR     -0.604800
      9 C9          2.0500   -1.8730    1.6520 c3        1 MXR     -0.138100
     10 N10         2.2350    2.4020    0.1570 n2        1 MXR     -0.506900
     11 C11         1.5280    4.7330   -0.0850 c         1 MXR      0.569800
     12 O12         2.1200    5.3990    0.7630 o         1 MXR     -0.504000
     13 O13         0.4220    5.2930   -0.6590 oh        1 MXR     -0.609100
     14 S14         2.7690    3.9600   -3.1190 ss        1 MXR     -0.255200
     15 C15         1.7980    5.3340   -3.6730 c3        1 MXR     -0.029600
     16 C16         2.7650    6.4190   -4.1300 c3        1 MXR     -0.076400
     17 C17         2.2820    6.8530   -5.5350 c3        1 MXR      0.098500
     18 C18         2.0570    1.5610   -2.1400 c3        1 MXR     -0.070700
     19 N19         1.1350    6.0290   -5.9280 n7        1 MXR     -0.784200
     20 C20         0.9610    0.7330   -2.7520 c3        1 MXR     -0.098100
     21 C21         0.9260    5.0130   -4.9010 c3        1 MXR      0.150800
     22 C22         1.9820    8.3630   -5.5280 c         1 MXR      0.643100
     23 N23         3.0420    9.2510   -5.6060 n         1 MXR     -0.472800
     24 O24         0.8090    8.7790   -5.4210 o         1 MXR     -0.614100
     25 C25         2.8010   10.6670   -5.6750 c3        1 MXR      0.076800
     26 C26         4.3840    8.8050   -5.8400 c3        1 MXR      0.076800
     27 H1          0.4300    0.7680    1.4690 h4        1 MXR      0.014200
     28 H3          0.6050    3.2310   -2.3740 h1        1 MXR      0.108700
     29 H4          1.7160   -0.8150   -0.9130 hc        1 MXR      0.098700
     30 H5          3.5720    1.0150   -0.6520 h1        1 MXR      0.112700
     31 H8          2.9000    0.1300    1.7990 h1        1 MXR      0.053700
     32 H9          4.4760   -1.4050    1.0540 ho        1 MXR      0.408000
     33 H10         1.0730   -1.5990    2.1170 hc        1 MXR      0.049367
     34 H11         1.8770   -2.6660    0.8860 hc        1 MXR      0.049367
     35 H12         2.7190   -2.2870    2.4450 hc        1 MXR      0.049367
     36 H16         1.1530    5.6960   -2.8330 h1        1 MXR      0.088700
     37 H17         2.7650    7.2780   -3.4150 hc        1 MXR      0.069200
     38 H18         3.8110    6.0220   -4.1920 hc        1 MXR      0.069200
     39 H19         3.0860    6.6410   -6.3000 h1        1 MXR      0.083700
     40 H20         2.9820    1.4510   -2.7730 hc        1 MXR      0.082700
     41 H21         0.3140    6.5990   -6.0400 hn        1 MXR      0.380800
     42 H23         1.3130   -0.3130   -2.9300 hc        1 MXR      0.051033
     43 H24         0.6650    1.1690   -3.7390 hc        1 MXR      0.051033
     44 H25         0.0570    0.6970   -2.0950 hc        1 MXR      0.051033
     45 H26        -0.1560    4.9390   -4.6070 h1        1 MXR      0.060200
     46 H27         1.2390    4.0250   -5.3410 h1        1 MXR      0.060200
     47 H28         3.0950   11.0640   -6.6830 h1        1 MXR      0.045033
     48 H29         1.7140   10.8860   -5.4990 h1        1 MXR      0.045033
     49 H30         3.4110   11.1890   -4.8890 h1        1 MXR      0.045033
     50 H31         4.5110    8.4360   -6.8950 h1        1 MXR      0.045033
     51 H32         5.0990    9.6540   -5.6710 h1        1 MXR      0.045033
     52 H33         4.6470    7.9730   -5.1330 h1        1 MXR      0.045033
     53 H231        0.2660    6.1680   -0.2660 ho        1 MXR      0.454000
@<TRIPOS>BOND
     1    1    3 1   
     2    1    6 2   
     3    1   27 1   
     4    2    5 1   
     5    2   14 1   
     6    2   18 1   
     7    2   28 1   
     8    3    4 1   
     9    3    7 1   
    10    3   29 1   
    11    4   10 1   
    12    4   18 1   
    13    4   30 1   
    14    5   10 2   
    15    5   11 1   
    16    7    8 1   
    17    7    9 1   
    18    7   31 1   
    19    8   32 1   
    20    9   33 1   
    21    9   34 1   
    22    9   35 1   
    23   11   12 2   
    24   11   13 1   
    25   13   53 1   
    26   14   15 1   
    27   15   16 1   
    28   15   21 1   
    29   15   36 1   
    30   16   17 1   
    31   16   37 1   
    32   16   38 1   
    33   17   19 1   
    34   17   22 1   
    35   17   39 1   
    36   18   20 1   
    37   18   40 1   
    38   19   21 1   
    39   19   41 1   
    40   20   42 1   
    41   20   43 1   
    42   20   44 1   
    43   21   45 1   
    44   21   46 1   
    45   22   23 1   
    46   22   24 2   
    47   23   25 1   
    48   23   26 1   
    49   25   47 1   
    50   25   48 1   
    51   25   49 1   
    52   26   50 1   
    53   26   51 1   
    54   26   52 1   
@<TRIPOS>SUBSTRUCTURE
     1 MXR         1 TEMP              0 ****  ****    0 ROOT
