@<TRIPOS>MOLECULE
MXR
   53    54     1     0     0
SMALL
bcc


@<TRIPOS>ATOM
      1 C1          0.4200    0.8890    0.9030 c         1 MXR      0.571900
      2 C2          1.3110    2.7610   -2.5770 c3        1 MXR     -0.084900
      3 C3          1.6500    0.3490    0.2130 c3        1 MXR     -0.163700
      4 C4          2.2350    1.3320   -0.8100 c3        1 MXR      0.097500
      5 C5          1.7250    3.4800   -1.3070 ce        1 MXR      0.386300
      6 O6         -0.7110    0.4590    0.6800 o         1 MXR     -0.522100
      7 C7          2.7040    0.0180    1.2830 c3        1 MXR      0.142100
      8 O8          3.7840   -0.6040    0.5930 oh        1 MXR     -0.604800
      9 C9          2.1440   -0.9120    2.3440 c3        1 MXR     -0.138100
     10 N10         2.2010    2.7310   -0.3590 n2        1 MXR     -0.506900
     11 C11         1.5520    4.9440   -1.1880 c         1 MXR      0.567800
     12 O12         2.3500    5.7980   -0.8010 o         1 MXR     -0.510000
     13 O13         0.3230    5.3740   -1.5970 oh        1 MXR     -0.603100
     14 S14         2.2800    3.1510   -4.0040 ss        1 MXR     -0.248200
     15 C15         1.6850    4.7360   -4.5180 c3        1 MXR     -0.037600
     16 C16         2.7370    5.8230   -4.3320 c3        1 MXR     -0.087400
     17 C17         2.7610    6.6180   -5.6590 c3        1 MXR      0.099500
     18 C18         1.6000    1.2800   -2.2440 c3        1 MXR     -0.067700
     19 N19         1.9220    5.9280   -6.6440 n3        1 MXR     -0.786200
     20 C20         0.3660    0.4320   -2.3930 c3        1 MXR     -0.099100
     21 C21         1.3880    4.7170   -6.0290 c3        1 MXR      0.161800
     22 C22         2.3330    8.0730   -5.3930 c         1 MXR      0.642100
     23 N23         3.2550    8.9470   -4.8420 n         1 MXR     -0.472800
     24 O24         1.1700    8.4510   -5.6460 o         1 MXR     -0.619100
     25 C25         4.6180    8.5630   -4.6150 c3        1 MXR      0.076800
     26 C26         2.9190   10.3290   -4.6360 c3        1 MXR      0.076800
     27 H1          0.6040    1.7000    1.6430 h4        1 MXR      0.014200
     28 H3          0.2260    2.9530   -2.7700 h1        1 MXR      0.107700
     29 H4          1.3980   -0.6040   -0.3320 hc        1 MXR      0.099700
     30 H5          3.3330    1.0650   -0.9180 h1        1 MXR      0.113700
     31 H8          3.0710    0.9720    1.7590 h1        1 MXR      0.053700
     32 H9          4.4380   -0.8440    1.2600 ho        1 MXR      0.409000
     33 H10         1.2720   -0.4390    2.8550 hc        1 MXR      0.049700
     34 H11         2.9270   -1.1370    3.1080 hc        1 MXR      0.049700
     35 H12         1.8140   -1.8740    1.8830 hc        1 MXR      0.049700
     36 H16         0.7580    4.9930   -3.9440 h1        1 MXR      0.086700
     37 H17         2.4860    6.4760   -3.4590 hc        1 MXR      0.069700
     38 H18         3.7440    5.3700   -4.1450 hc        1 MXR      0.069700
     39 H19         3.8050    6.6180   -6.0910 h1        1 MXR      0.083700
     40 H20         2.3890    0.8880   -2.9480 hc        1 MXR      0.082700
     41 H21         1.1770    6.5300   -6.9540 hn        1 MXR      0.380800
     42 H23        -0.4000    0.6850   -1.6200 hc        1 MXR      0.051700
     43 H24        -0.0830    0.5930   -3.4040 hc        1 MXR      0.051700
     44 H25         0.6220   -0.6520   -2.2990 hc        1 MXR      0.051700
     45 H26         0.2850    4.6080   -6.2110 h1        1 MXR      0.062700
     46 H27         1.9090    3.8400   -6.5070 h1        1 MXR      0.062700
     47 H28         4.6630    7.5720   -4.0890 h1        1 MXR      0.045367
     48 H29         5.1240    9.3310   -3.9710 h1        1 MXR      0.045367
     49 H30         5.1800    8.4830   -5.5860 h1        1 MXR      0.045367
     50 H31         1.8380   10.5080   -4.8810 h1        1 MXR      0.045367
     51 H32         3.5550   10.9840   -5.2900 h1        1 MXR      0.045367
     52 H33         3.1030   10.6050   -3.5630 h1        1 MXR      0.045367
     53 H231        0.2670    6.3390   -1.4880 ho        1 MXR      0.455000
@<TRIPOS>BOND
     1    1    3 1   
     2    1    6 2   
     3    1   27 1   
     4    2    5 1   
     5    2   14 1   
     6    2   18 1   
     7    2   28 1   
     8    3    4 1   
     9    3    7 1   
    10    3   29 1   
    11    4   10 1   
    12    4   18 1   
    13    4   30 1   
    14    5   10 2   
    15    5   11 1   
    16    7    8 1   
    17    7    9 1   
    18    7   31 1   
    19    8   32 1   
    20    9   33 1   
    21    9   34 1   
    22    9   35 1   
    23   11   12 2   
    24   11   13 1   
    25   13   53 1   
    26   14   15 1   
    27   15   16 1   
    28   15   21 1   
    29   15   36 1   
    30   16   17 1   
    31   16   37 1   
    32   16   38 1   
    33   17   19 1   
    34   17   22 1   
    35   17   39 1   
    36   18   20 1   
    37   18   40 1   
    38   19   21 1   
    39   19   41 1   
    40   20   42 1   
    41   20   43 1   
    42   20   44 1   
    43   21   45 1   
    44   21   46 1   
    45   22   23 1   
    46   22   24 2   
    47   23   25 1   
    48   23   26 1   
    49   25   47 1   
    50   25   48 1   
    51   25   49 1   
    52   26   50 1   
    53   26   51 1   
    54   26   52 1   
@<TRIPOS>SUBSTRUCTURE
     1 MXR         1 TEMP              0 ****  ****    0 ROOT
