@<TRIPOS>MOLECULE
MXR
   53    54     1     0     0
SMALL
bcc


@<TRIPOS>ATOM
      1 C1          0.3680    1.5980    0.5900 c         1 MXR      0.577900
      2 C2          1.6890    2.8120   -2.9470 c3        1 MXR     -0.076900
      3 C3          1.5350    0.7760    0.1010 c3        1 MXR     -0.161700
      4 C4          2.3370    1.4830   -1.0010 c3        1 MXR      0.100500
      5 C5          2.2450    3.6170   -1.7740 ce        1 MXR      0.374300
      6 O6         -0.8020    1.2500    0.4250 o         1 MXR     -0.538100
      7 C7          2.4550    0.4760    1.2970 c3        1 MXR      0.143100
      8 O8          3.4170   -0.4650    0.8270 oh        1 MXR     -0.603800
      9 C9          1.6810   -0.1070    2.4660 c3        1 MXR     -0.136100
     10 N10         2.5610    2.9110   -0.7340 n2        1 MXR     -0.545900
     11 C11         2.3540    5.1210   -1.8760 c         1 MXR      0.833300
     12 O12         3.4620    5.6950   -1.7000 o         1 MXR     -0.838300
     13 O13         1.3430    5.7880   -2.2820 o         1 MXR     -0.838300
     14 S14         2.5680    2.8360   -4.5060 ss        1 MXR     -0.244200
     15 C15         2.5250    4.5540   -4.8500 c3        1 MXR     -0.065600
     16 C16         3.4330    5.1370   -5.9210 c3        1 MXR     -0.075400
     17 C17         2.7150    6.4800   -6.2410 c3        1 MXR      0.099500
     18 C18         1.7500    1.3550   -2.4490 c3        1 MXR     -0.075700
     19 N19         1.2820    6.2880   -6.0290 n3        1 MXR     -0.821200
     20 C20         0.4160    0.6700   -2.5660 c3        1 MXR     -0.095100
     21 C21         1.1170    5.0780   -5.2150 c3        1 MXR      0.119800
     22 C22         3.2720    7.5740   -5.3160 c         1 MXR      0.550100
     23 N23         2.7100    7.7470   -3.9330 n4        1 MXR     -0.580200
     24 O24         4.1770    8.3290   -5.6590 o         1 MXR     -0.471100
     25 C25         3.7920    8.0710   -2.9640 c3        1 MXR      0.099100
     26 C26         1.6770    8.8120   -3.9360 c3        1 MXR      0.099100
     27 H1          0.6290    2.5380    1.1250 h4        1 MXR      0.020200
     28 H3          0.6410    3.1580   -3.1340 h1        1 MXR      0.099700
     29 H4          1.1700   -0.2060   -0.3090 hc        1 MXR      0.090700
     30 H5          3.3600    0.9940   -1.0060 h1        1 MXR      0.096700
     31 H8          2.9810    1.4210    1.6150 h1        1 MXR      0.058700
     32 H9          4.0380   -0.6070    1.5510 ho        1 MXR      0.403000
     33 H10         2.3760   -0.3410    3.3070 hc        1 MXR      0.046367
     34 H11         1.1660   -1.0490    2.1600 hc        1 MXR      0.046367
     35 H12         0.9160    0.6220    2.8260 hc        1 MXR      0.046367
     36 H16         2.8690    5.0330   -3.8940 h1        1 MXR      0.100700
     37 H17         3.4670    4.5040   -6.8420 hc        1 MXR      0.079700
     38 H18         4.4760    5.2910   -5.5590 hc        1 MXR      0.079700
     39 H19         2.9490    6.8260   -7.2870 h1        1 MXR      0.101700
     40 H20         2.4990    0.7830   -3.0660 hc        1 MXR      0.068700
     41 H21         0.8030    6.2120   -6.9060 hn        1 MXR      0.381800
     42 H23         0.5110   -0.4170   -2.3240 hc        1 MXR      0.046700
     43 H24        -0.3380    1.1230   -1.8770 hc        1 MXR      0.046700
     44 H25         0.0350    0.7590   -3.6140 hc        1 MXR      0.046700
     45 H26         0.5550    5.3600   -4.2770 h1        1 MXR      0.092200
     46 H27         0.5370    4.2840   -5.7580 h1        1 MXR      0.092200
     47 H28         4.5810    7.2720   -3.0220 hx        1 MXR      0.099033
     48 H29         4.2250    9.0750   -3.2000 hx        1 MXR      0.099033
     49 H30         3.3560    8.0350   -1.9270 hx        1 MXR      0.099033
     50 H31         1.2500    8.8890   -2.9000 hx        1 MXR      0.099033
     51 H32         2.1410    9.7870   -4.2360 hx        1 MXR      0.099033
     52 H33         0.8570    8.5370   -4.6510 hx        1 MXR      0.099033
     53 H231        2.2400    6.8600   -3.5890 hn        1 MXR      0.532800
@<TRIPOS>BOND
     1    1    3 1   
     2    1    6 2   
     3    1   27 1   
     4    2    5 1   
     5    2   14 1   
     6    2   18 1   
     7    2   28 1   
     8    3    4 1   
     9    3    7 1   
    10    3   29 1   
    11    4   10 1   
    12    4   18 1   
    13    4   30 1   
    14    5   10 2   
    15    5   11 1   
    16    7    8 1   
    17    7    9 1   
    18    7   31 1   
    19    8   32 1   
    20    9   33 1   
    21    9   34 1   
    22    9   35 1   
    23   11   12 1   
    24   11   13 1   
    25   14   15 1   
    26   15   16 1   
    27   15   21 1   
    28   15   36 1   
    29   16   17 1   
    30   16   37 1   
    31   16   38 1   
    32   17   19 1   
    33   17   22 1   
    34   17   39 1   
    35   18   20 1   
    36   18   40 1   
    37   19   21 1   
    38   19   41 1   
    39   20   42 1   
    40   20   43 1   
    41   20   44 1   
    42   21   45 1   
    43   21   46 1   
    44   22   23 1   
    45   22   24 2   
    46   23   25 1   
    47   23   26 1   
    48   23   53 1   
    49   25   47 1   
    50   25   48 1   
    51   25   49 1   
    52   26   50 1   
    53   26   51 1   
    54   26   52 1   
@<TRIPOS>SUBSTRUCTURE
     1 MXR         1 TEMP              0 ****  ****    0 ROOT
