@<TRIPOS>MOLECULE
MXS
   45    47     1     0     0
SMALL
bcc


@<TRIPOS>ATOM
      1 C1          0.0880   -0.2750   -0.0900 cc        1 MXS      0.054600
      2 C2          1.4040    0.1550   -0.0750 cd        1 MXS     -0.160000
      3 C3          2.1000    0.2620    1.1620 cd        1 MXS     -0.072300
      4 C4          3.4010    0.6800    1.4850 cc        1 MXS     -0.149000
      5 C5          3.5510    0.5680    2.9010 cc        1 MXS     -0.240200
      6 C6          2.3290    0.0790    3.4470 cd        1 MXS      0.103900
      7 C7          0.1260   -0.5250    2.3410 cd        1 MXS     -0.026300
      8 C8         -0.5570   -0.6180    1.1560 cc        1 MXS     -0.205000
      9 C9          4.7440    0.8930    3.6680 c         1 MXS      0.583100
     10 C10         2.3950   -1.4010    5.3770 c3        1 MXS      0.083500
     11 C11         3.3350   -1.1470    6.5880 c         1 MXS      0.740600
     12 C12         1.2630   -2.3380    5.8350 c3        1 MXS     -0.013200
     13 C13         0.0700   -1.6070    6.3990 c3        1 MXS     -0.059100
     14 C14         0.8420   -3.2450    4.7050 c3        1 MXS     -0.059100
     15 C15        -1.7990   -0.9840   -1.5220 c         1 MXS      0.743100
     16 C16        -3.3400   -1.6930   -3.1870 c3        1 MXS      0.141700
     17 N1          1.4380   -0.1010    2.3720 na        1 MXS      0.029700
     18 N2          1.9270   -0.1470    4.7800 nh        1 MXS     -0.691000
     19 O6         -2.0740   -1.1110   -2.8780 os        1 MXS     -0.457900
     20 O1          5.7520    1.3910    3.1490 o         1 MXS     -0.570100
     21 O2          4.0250   -0.1110    6.6840 o         1 MXS     -0.755500
     22 O3          3.3460   -2.0820    7.4800 os        1 MXS     -0.450800
     23 O4          2.8080   -4.3290    6.6240 o         1 MXS     -0.571800
     24 O5          0.6070   -4.5000    7.3530 oh        1 MXS     -0.738700
     25 N3         -0.6020   -0.3320   -1.3180 n         1 MXS     -0.432100
     26 O7         -2.6460   -1.4080   -0.7210 o         1 MXS     -0.573000
     27 S1          1.9140   -3.3440    7.2360 s6        1 MXS      0.465400
     28 H2          1.9580    0.4310   -0.9830 ha        1 MXS      0.141000
     29 H4          4.1660    1.0260    0.7950 ha        1 MXS      0.161000
     30 H7         -0.3290   -0.7770    3.3190 h4        1 MXS      0.194000
     31 H8         -1.6040   -0.9610    1.1610 ha        1 MXS      0.181000
     32 H9          4.6990    0.6640    4.7620 h4        1 MXS      0.062200
     33 H10         3.0220   -1.9780    4.6310 h1        1 MXS      0.073700
     34 H13         0.3980   -0.8210    7.1220 hc        1 MXS      0.031033
     35 H13A       -0.5970   -2.3340    6.9270 hc        1 MXS      0.031033
     36 H13B       -0.5230   -1.1140    5.5900 hc        1 MXS      0.031033
     37 H14         0.5360   -2.6600    3.8050 hc        1 MXS      0.031033
     38 H14A        1.6880   -3.9210    4.4210 hc        1 MXS      0.031033
     39 H14B       -0.0220   -3.8780    5.0280 hc        1 MXS      0.031033
     40 H16        -4.1620   -1.0650   -2.7690 h1        1 MXS      0.049367
     41 H16A       -3.3540   -1.7010   -4.3040 h1        1 MXS      0.049367
     42 H16B       -3.3980   -2.7270   -2.7680 h1        1 MXS      0.049367
     43 HN2         2.2280    0.6330    5.3450 hn        1 MXS      0.405800
     44 HO5         0.7790   -5.3240    6.9120 ho        1 MXS      0.397000
     45 HN3        -0.0690   -0.1190   -2.1340 hn        1 MXS      0.329500
@<TRIPOS>BOND
     1    1    2 2   
     2    1    8 1   
     3    1   25 1   
     4    2    3 1   
     5    2   28 1   
     6    3    4 2   
     7    3   17 1   
     8    4    5 1   
     9    4   29 1   
    10    5    6 2   
    11    5    9 1   
    12    6   17 1   
    13    6   18 1   
    14    7    8 2   
    15    7   17 1   
    16    7   30 1   
    17    8   31 1   
    18    9   20 2   
    19    9   32 1   
    20   10   11 1   
    21   10   12 1   
    22   10   18 1   
    23   10   33 1   
    24   11   21 2   
    25   11   22 1   
    26   12   13 1   
    27   12   14 1   
    28   12   27 1   
    29   13   34 1   
    30   13   35 1   
    31   13   36 1   
    32   14   37 1   
    33   14   38 1   
    34   14   39 1   
    35   15   19 1   
    36   15   25 1   
    37   15   26 2   
    38   16   19 1   
    39   16   40 1   
    40   16   41 1   
    41   16   42 1   
    42   18   43 1   
    43   22   27 1   
    44   23   27 2   
    45   24   27 1   
    46   24   44 1   
    47   25   45 1   
@<TRIPOS>SUBSTRUCTURE
     1 MXS         1 TEMP              0 ****  ****    0 ROOT
