@<TRIPOS>MOLECULE
MXS
   47    48     1     0     0
SMALL
bcc


@<TRIPOS>ATOM
      1 C1         -0.3560    0.1760    0.0830 cc        1 MXS     -0.070400
      2 C2          0.9130    0.7200    0.0230 cd        1 MXS     -0.005000
      3 C3          1.7080    0.7250    1.1980 cd        1 MXS     -0.078300
      4 C4          3.0330    1.1580    1.4400 cc        1 MXS     -0.081000
      5 C5          3.3450    0.8490    2.7900 cc        1 MXS     -0.131200
      6 C6          2.1900    0.2510    3.3790 cd        1 MXS     -0.023100
      7 C7         -0.0880   -0.3640    2.4390 cd        1 MXS     -0.037300
      8 C8         -0.8690   -0.3720    1.3110 cc        1 MXS     -0.154000
      9 C9          4.6570    1.0460    3.4360 c         1 MXS      0.556100
     10 C10         1.9090   -1.7320    4.8320 c3        1 MXS     -0.052500
     11 C11         3.3390   -2.4170    5.0310 c         1 MXS      0.951600
     12 C12         1.0070   -2.1660    5.9720 c3        1 MXS     -0.080700
     13 C13        -0.4310   -1.7620    5.7750 c3        1 MXS     -0.086600
     14 C14         1.5110   -1.7220    7.3230 c3        1 MXS     -0.086600
     15 C15        -1.5120   -1.2840   -1.5110 c         1 MXS      0.617100
     16 C16        -0.8350   -3.0740   -2.9070 c3        1 MXS      0.130700
     17 N1          1.1840    0.1730    2.4100 na        1 MXS      0.045700
     18 N2          2.0800   -0.2380    4.7350 n4        1 MXS     -0.602800
     19 O6         -0.6740   -1.6940   -2.4810 os        1 MXS     -0.389900
     20 O1          5.3460    2.0300    3.1800 o         1 MXS     -0.464100
     21 O2          4.3380   -1.6660    5.0160 o         1 MXS     -0.751800
     22 O3          3.2570   -3.6590    5.2060 o         1 MXS     -0.751800
     23 O4          0.6710   -4.3420    4.6040 o         1 MXS     -0.552200
     24 O5         -0.3150   -4.4110    6.7120 oh        1 MXS     -0.655800
     25 N3         -1.2120    0.1350   -1.1040 n4        1 MXS     -0.498200
     26 O7         -2.4270   -1.9190   -1.0120 o         1 MXS     -0.407000
     27 S1          1.1500   -4.0220    5.9380 s4        1 MXS      0.742700
     28 H2          1.3610    1.1450   -0.8910 ha        1 MXS      0.183000
     29 H4          3.7010    1.6370    0.7240 ha        1 MXS      0.204000
     30 H7         -0.4340   -0.7990    3.4000 h4        1 MXS      0.210000
     31 H8         -1.8750   -0.8230    1.3520 ha        1 MXS      0.192000
     32 H9          4.9790    0.2280    4.1260 h4        1 MXS      0.093200
     33 H10         1.4920   -2.1200    3.8590 hx        1 MXS      0.110700
     34 H13        -1.0400   -2.1200    6.6460 hc        1 MXS      0.048533
     35 H13A       -0.8450   -2.2390    4.8520 hc        1 MXS      0.048533
     36 H13B       -0.5560   -0.6540    5.7080 hc        1 MXS      0.048533
     37 H14         1.3390   -0.6290    7.4820 hc        1 MXS      0.048533
     38 H14A        0.9640   -2.2740    8.1280 hc        1 MXS      0.048533
     39 H14B        2.6060   -1.9310    7.4240 hc        1 MXS      0.048533
     40 H16        -1.8670   -3.2190   -3.3060 h1        1 MXS      0.094367
     41 H16A       -0.6310   -3.7520   -2.0440 h1        1 MXS      0.094367
     42 H16B       -0.0540   -3.1560   -3.7060 h1        1 MXS      0.094367
     43 HN2         1.3240    0.2420    5.2360 hn        1 MXS      0.473300
     44 HO5        -0.9960   -4.7400    6.1270 ho        1 MXS      0.441000
     45 HN3        -0.7520    0.6230   -1.8860 hn        1 MXS      0.481300
     46 H22         2.9970   -0.0330    5.1990 hn        1 MXS      0.473300
     47 H32        -2.1080    0.5950   -0.8820 hn        1 MXS      0.481300
@<TRIPOS>BOND
     1    1    2 2   
     2    1    8 1   
     3    1   25 1   
     4    2    3 1   
     5    2   28 1   
     6    3    4 2   
     7    3   17 1   
     8    4    5 1   
     9    4   29 1   
    10    5    6 2   
    11    5    9 1   
    12    6   17 1   
    13    6   18 1   
    14    7    8 2   
    15    7   17 1   
    16    7   30 1   
    17    8   31 1   
    18    9   20 2   
    19    9   32 1   
    20   10   11 1   
    21   10   12 1   
    22   10   18 1   
    23   10   33 1   
    24   11   21 1   
    25   11   22 1   
    26   12   13 1   
    27   12   14 1   
    28   12   27 1   
    29   13   34 1   
    30   13   35 1   
    31   13   36 1   
    32   14   37 1   
    33   14   38 1   
    34   14   39 1   
    35   15   19 1   
    36   15   25 1   
    37   15   26 2   
    38   16   19 1   
    39   16   40 1   
    40   16   41 1   
    41   16   42 1   
    42   18   43 1   
    43   18   46 1   
    44   23   27 2   
    45   24   27 1   
    46   24   44 1   
    47   25   45 1   
    48   25   47 1   
@<TRIPOS>SUBSTRUCTURE
     1 MXS         1 TEMP              0 ****  ****    0 ROOT
