@<TRIPOS>MOLECULE
MXS
   45    47     1     0     0
SMALL
bcc


@<TRIPOS>ATOM
      1 C1          0.0790   -0.2800   -0.0890 cc        1 MXS      0.054600
      2 C2          1.3940    0.1530   -0.0780 cd        1 MXS     -0.160000
      3 C3          2.0920    0.2640    1.1570 cd        1 MXS     -0.072300
      4 C4          3.3930    0.6870    1.4770 cc        1 MXS     -0.149000
      5 C5          3.5460    0.5770    2.8930 cc        1 MXS     -0.240200
      6 C6          2.3260    0.0840    3.4420 cd        1 MXS      0.103900
      7 C7          0.1230   -0.5280    2.3410 cd        1 MXS     -0.026300
      8 C8         -0.5620   -0.6240    1.1590 cc        1 MXS     -0.205000
      9 C9          4.7400    0.9070    3.6570 c         1 MXS      0.583100
     10 C10         2.4000   -1.3930    5.3740 c3        1 MXS      0.083500
     11 C11         3.3420   -1.1360    6.5820 c         1 MXS      0.740600
     12 C12         1.2720   -2.3330    5.8350 c3        1 MXS     -0.013200
     13 C13         0.0790   -1.6040    6.4000 c3        1 MXS     -0.059100
     14 C14         0.8520   -3.2430    4.7070 c3        1 MXS     -0.059100
     15 C15        -1.8070   -1.0000   -1.5170 c         1 MXS      0.743100
     16 C16        -3.3470   -1.7200   -3.1770 c3        1 MXS      0.141700
     17 N1          1.4340   -0.0990    2.3690 na        1 MXS      0.029700
     18 N2          1.9280   -0.1410    4.7770 nu        1 MXS     -0.691000
     19 O6         -2.0840   -1.1300   -2.8720 os        1 MXS     -0.457900
     20 O1          5.7450    1.4060    3.1350 o         1 MXS     -0.570100
     21 O2          4.0300   -0.0980    6.6750 o         1 MXS     -0.755500
     22 O3          3.3580   -2.0690    7.4760 os        1 MXS     -0.450800
     23 O4          2.8230   -4.3190    6.6230 o         1 MXS     -0.571800
     24 O5          0.6250   -4.4940    7.3570 oh        1 MXS     -0.738700
     25 N3         -0.6130   -0.3410   -1.3160 ns        1 MXS     -0.432100
     26 O7         -2.6500   -1.4280   -0.7140 o         1 MXS     -0.573000
     27 S1          1.9280   -3.3360    7.2360 s6        1 MXS      0.465400
     28 H2          1.9440    0.4300   -0.9870 ha        1 MXS      0.141000
     29 H4          4.1550    1.0340    0.7850 ha        1 MXS      0.161000
     30 H7         -0.3290   -0.7800    3.3210 h4        1 MXS      0.194000
     31 H8         -1.6080   -0.9700    1.1660 ha        1 MXS      0.181000
     32 H9          4.6970    0.6790    4.7510 h4        1 MXS      0.062200
     33 H10         3.0270   -1.9690    4.6270 h1        1 MXS      0.073700
     34 H13        -0.5860   -2.3330    6.9310 hc        1 MXS      0.031033
     35 H13A       -0.5180   -1.1140    5.5930 hc        1 MXS      0.031033
     36 H13B        0.4050   -0.8170    7.1220 hc        1 MXS      0.031033
     37 H14         1.6980   -3.9170    4.4230 hc        1 MXS      0.031033
     38 H14A        0.5430   -2.6590    3.8070 hc        1 MXS      0.031033
     39 H14B       -0.0100   -3.8770    5.0330 hc        1 MXS      0.031033
     40 H16        -4.1730   -1.0950   -2.7590 h1        1 MXS      0.049367
     41 H16A       -3.3990   -2.7530   -2.7580 h1        1 MXS      0.049367
     42 H16B       -3.3640   -1.7280   -4.2950 h1        1 MXS      0.049367
     43 HN2         2.2290    0.6410    5.3400 hn        1 MXS      0.405800
     44 HO5         0.7980   -5.3190    6.9170 ho        1 MXS      0.397000
     45 HN3        -0.0830   -0.1270   -2.1340 hn        1 MXS      0.329500
@<TRIPOS>BOND
     1    1    2 2   
     2    1    8 1   
     3    1   25 1   
     4    2    3 1   
     5    2   28 1   
     6    3    4 2   
     7    3   17 1   
     8    4    5 1   
     9    4   29 1   
    10    5    6 2   
    11    5    9 1   
    12    6   17 1   
    13    6   18 1   
    14    7    8 2   
    15    7   17 1   
    16    7   30 1   
    17    8   31 1   
    18    9   20 2   
    19    9   32 1   
    20   10   11 1   
    21   10   12 1   
    22   10   18 1   
    23   10   33 1   
    24   11   21 2   
    25   11   22 1   
    26   12   13 1   
    27   12   14 1   
    28   12   27 1   
    29   13   34 1   
    30   13   35 1   
    31   13   36 1   
    32   14   37 1   
    33   14   38 1   
    34   14   39 1   
    35   15   19 1   
    36   15   25 1   
    37   15   26 2   
    38   16   19 1   
    39   16   40 1   
    40   16   41 1   
    41   16   42 1   
    42   18   43 1   
    43   22   27 1   
    44   23   27 2   
    45   24   27 1   
    46   24   44 1   
    47   25   45 1   
@<TRIPOS>SUBSTRUCTURE
     1 MXS         1 TEMP              0 ****  ****    0 ROOT
