@<TRIPOS>MOLECULE
MXS
   45    47     1     0     0
SMALL
bcc


@<TRIPOS>ATOM
      1 C1         -3.6010   -0.6150   -0.0480 cc        1 MXS      0.054600
      2 C2         -3.0500   -1.7960    0.4180 cd        1 MXS     -0.160000
      3 C3         -1.6600   -2.0460    0.2420 cd        1 MXS     -0.072300
      4 C4         -0.8420   -3.1380    0.5800 cc        1 MXS     -0.149000
      5 C5          0.4880   -2.8240    0.1640 cc        1 MXS     -0.240200
      6 C6          0.4810   -1.5310   -0.4350 cd        1 MXS      0.103900
      7 C7         -1.4090    0.1100   -0.8490 cd        1 MXS     -0.026300
      8 C8         -2.7500    0.3550   -0.6980 cc        1 MXS     -0.205000
      9 C9          1.6600   -3.6720    0.3200 c         1 MXS      0.583100
     10 C10         2.4130   -0.0790   -0.1570 c3        1 MXS      0.083500
     11 C11         3.8710   -0.6020   -0.2800 c         1 MXS      0.740600
     12 C12         2.4310    1.4480   -0.3530 c3        1 MXS     -0.013200
     13 C13         2.2860    1.8670   -1.7960 c3        1 MXS     -0.059100
     14 C14         1.3700    2.1000    0.4970 c3        1 MXS     -0.059100
     15 C15        -5.6200    0.8120   -0.0670 c         1 MXS      0.743100
     16 C16        -7.6870    1.9520    0.2120 c3        1 MXS      0.141700
     17 N1         -0.8450   -1.0610   -0.3900 na        1 MXS      0.029700
     18 N2          1.5040   -0.7880   -1.0610 nh        1 MXS     -0.691000
     19 O6         -6.9210    0.7660    0.4190 os        1 MXS     -0.457900
     20 O1          1.5920   -4.8210    0.7770 o         1 MXS     -0.570100
     21 O2          4.1270   -1.7700   -0.6380 o         1 MXS     -0.755500
     22 O3          4.7910    0.2580    0.0120 os        1 MXS     -0.450800
     23 O4          4.1000    1.9970    1.6170 o         1 MXS     -0.571800
     24 O5          3.7660    3.7660    0.1460 oh        1 MXS     -0.738700
     25 N3         -4.9870   -0.4020    0.0930 n         1 MXS     -0.432100
     26 O7         -5.2410    1.8690   -0.5950 o         1 MXS     -0.573000
     27 S1          4.0990    2.0490    0.1540 s6        1 MXS      0.465400
     28 H2         -3.6360   -2.5770    0.9220 ha        1 MXS      0.141000
     29 H4         -1.1500   -4.0560    1.0700 ha        1 MXS      0.161000
     30 H7         -0.7210    0.8240   -1.3420 h4        1 MXS      0.194000
     31 H8         -3.1740    1.2990   -1.0740 ha        1 MXS      0.181000
     32 H9          2.6340   -3.2220    0.0040 h4        1 MXS      0.062200
     33 H10         2.1200   -0.2710    0.9200 h1        1 MXS      0.073700
     34 H13         1.2370    1.7280   -2.1550 hc        1 MXS      0.031033
     35 H13A        2.5480    2.9510   -1.8960 hc        1 MXS      0.031033
     36 H13B        2.9640    1.2670   -2.4500 hc        1 MXS      0.031033
     37 H14         1.5970    1.9410    1.5820 hc        1 MXS      0.031033
     38 H14A        1.3490    3.2010    0.3000 hc        1 MXS      0.031033
     39 H14B        0.3580    1.6810    0.2800 hc        1 MXS      0.031033
     40 H16        -7.2020    2.8150    0.7290 h1        1 MXS      0.049367
     41 H16A       -7.7790    2.1630   -0.8800 h1        1 MXS      0.049367
     42 H16B       -8.6770    1.7030    0.6680 h1        1 MXS      0.049367
     43 HN2         2.0310   -1.4050   -1.6610 hn        1 MXS      0.405800
     44 HO5         3.5700    4.1250    1.0040 ho        1 MXS      0.397000
     45 HN3        -5.4940   -1.1020    0.5920 hn        1 MXS      0.329500
@<TRIPOS>BOND
     1    1    2 2   
     2    1    8 1   
     3    1   25 1   
     4    2    3 1   
     5    2   28 1   
     6    3    4 2   
     7    3   17 1   
     8    4    5 1   
     9    4   29 1   
    10    5    6 2   
    11    5    9 1   
    12    6   17 1   
    13    6   18 1   
    14    7    8 2   
    15    7   17 1   
    16    7   30 1   
    17    8   31 1   
    18    9   20 2   
    19    9   32 1   
    20   10   11 1   
    21   10   12 1   
    22   10   18 1   
    23   10   33 1   
    24   11   21 2   
    25   11   22 1   
    26   12   13 1   
    27   12   14 1   
    28   12   27 1   
    29   13   34 1   
    30   13   35 1   
    31   13   36 1   
    32   14   37 1   
    33   14   38 1   
    34   14   39 1   
    35   15   19 1   
    36   15   25 1   
    37   15   26 2   
    38   16   19 1   
    39   16   40 1   
    40   16   41 1   
    41   16   42 1   
    42   18   43 1   
    43   22   27 1   
    44   23   27 2   
    45   24   27 1   
    46   24   44 1   
    47   25   45 1   
@<TRIPOS>SUBSTRUCTURE
     1 MXS         1 TEMP              0 ****  ****    0 ROOT
