@<TRIPOS>MOLECULE
MXT
   40    41     1     0     0
SMALL
bcc


@<TRIPOS>ATOM
      1 N1          0.5400    1.6220    0.0860 n         1 MXT     -0.504400
      2 N2         -0.9450   -1.5030   -0.7890 n3        1 MXT     -0.487100
      3 O2         -0.8160   -2.6800   -0.0820 oh        1 MXT     -0.419300
      4 O11         2.6260    1.7330   -0.8960 o         1 MXT     -0.592500
      5 O12        -0.8150    3.0370    1.4560 o         1 MXT     -0.592500
      6 C14         1.9090    1.6220    0.0860 c         1 MXT      0.704500
      7 C21        -0.3240    1.3350   -1.0850 c3        1 MXT      0.131700
      8 C22        -1.6590    0.8910   -0.6050 c3        1 MXT     -0.093400
      9 C23         0.3410    0.3050   -1.9400 c3        1 MXT     -0.093400
     10 C24        -1.6100   -0.4890    0.0590 c3        1 MXT      0.179200
     11 C25        -0.8490   -0.3740    1.3860 c3        1 MXT     -0.097600
     12 C26        -3.0560   -0.9520    0.3510 c3        1 MXT     -0.097600
     13 C27         0.3810   -1.0700   -1.2700 c3        1 MXT      0.179200
     14 C28         0.9050   -2.1060   -2.2910 c3        1 MXT     -0.097600
     15 C29         1.3480   -1.0150   -0.0800 c3        1 MXT     -0.097600
     16 C11         1.0580    1.6220    2.3760 c3        1 MXT     -0.166400
     17 C12         2.3840    1.6220    1.5640 c3        1 MXT     -0.166400
     18 C13         0.1030    2.2400    1.3330 c         1 MXT      0.704500
     19 H21        -0.4320    2.1540   -1.6050 h1        1 MXT      0.045700
     20 H121        3.0640    0.9450    1.7390 hc        1 MXT      0.089700
     21 H122        2.8690    2.4380    1.7910 hc        1 MXT      0.089700
     22 H221       -1.9950    1.5410    0.0410 hc        1 MXT      0.072200
     23 H222       -2.2710    0.8540   -1.3640 hc        1 MXT      0.072200
     24 H231       -0.1460    0.2320   -2.7830 hc        1 MXT      0.072200
     25 H232        1.2550    0.5920   -2.1270 hc        1 MXT      0.072200
     26 H251       -0.7120   -1.2650    1.7600 hc        1 MXT      0.041533
     27 H252       -1.3680    0.1650    2.0120 hc        1 MXT      0.041533
     28 H253        0.0160    0.0500    1.2290 hc        1 MXT      0.041533
     29 H261       -3.5530   -0.2230    0.7690 hc        1 MXT      0.041533
     30 H262       -3.0360   -1.7200    0.9540 hc        1 MXT      0.041533
     31 H263       -3.4910   -1.2060   -0.4840 hc        1 MXT      0.041533
     32 H281        1.1220   -2.9380   -1.8280 hc        1 MXT      0.041533
     33 H282        0.2180   -2.2770   -2.9630 hc        1 MXT      0.041533
     34 H283        1.7070   -1.7580   -2.7260 hc        1 MXT      0.041533
     35 H291        1.2370   -0.1670    0.3910 hc        1 MXT      0.041533
     36 H292        1.1570   -1.7530    0.5290 hc        1 MXT      0.041533
     37 H293        2.2670   -1.0890   -0.4030 hc        1 MXT      0.041533
     38 H111        0.6620    0.7880    2.6940 hc        1 MXT      0.089700
     39 H112        1.1850    2.1220    3.2040 hc        1 MXT      0.089700
     40 HO21       -1.2750   -3.3220   -0.4890 ho        1 MXT      0.413000
@<TRIPOS>BOND
     1    1    6 1   
     2    1    7 1   
     3    1   18 1   
     4    2    3 1   
     5    2   10 1   
     6    2   13 1   
     7    3   40 1   
     8    4    6 2   
     9    5   18 2   
    10    6   17 1   
    11    7    8 1   
    12    7    9 1   
    13    7   19 1   
    14    8   10 1   
    15    8   22 1   
    16    8   23 1   
    17    9   13 1   
    18    9   24 1   
    19    9   25 1   
    20   10   11 1   
    21   10   12 1   
    22   11   26 1   
    23   11   27 1   
    24   11   28 1   
    25   12   29 1   
    26   12   30 1   
    27   12   31 1   
    28   13   14 1   
    29   13   15 1   
    30   14   32 1   
    31   14   33 1   
    32   14   34 1   
    33   15   35 1   
    34   15   36 1   
    35   15   37 1   
    36   16   17 1   
    37   16   18 1   
    38   16   38 1   
    39   16   39 1   
    40   17   20 1   
    41   17   21 1   
@<TRIPOS>SUBSTRUCTURE
     1 MXT         1 TEMP              0 ****  ****    0 ROOT
