@<TRIPOS>MOLECULE
MXT
   40    41     1     0     0
SMALL
bcc


@<TRIPOS>ATOM
      1 N1         -0.0630    0.0020    0.0330 n         1 MXT     -0.512400
      2 N2         -3.3510    0.0150   -2.8490 n3        1 MXT     -0.474100
      3 O2         -4.4900    0.0290   -2.1320 oh        1 MXT     -0.421300
      4 O11         2.0240   -0.0230   -1.0370 o         1 MXT     -0.586500
      5 O12        -1.7250    0.0260    1.6950 o         1 MXT     -0.586500
      6 C14         1.3480   -0.0110   -0.0030 c         1 MXT      0.700000
      7 C21        -0.8930    0.0030   -1.1590 c3        1 MXT      0.117700
      8 C22        -1.7740    1.2540   -1.2600 c3        1 MXT     -0.112400
      9 C23        -1.7950   -1.2330   -1.2470 c3        1 MXT     -0.112400
     10 C24        -2.5900    1.2780   -2.5640 c3        1 MXT      0.175200
     11 C25        -1.6670    1.6160   -3.7450 c3        1 MXT     -0.088350
     12 C26        -3.5690    2.4660   -2.4340 c3        1 MXT     -0.088350
     13 C27        -2.6120   -1.2570   -2.5510 c3        1 MXT      0.175200
     14 C28        -1.6940   -1.6230   -3.7280 c3        1 MXT     -0.088350
     15 C29        -3.6110   -2.4260   -2.4090 c3        1 MXT     -0.088350
     16 C11         0.6540    0.0080    2.3200 c3        1 MXT     -0.164400
     17 C12         1.8900   -0.0080    1.4240 c3        1 MXT     -0.164400
     18 C13        -0.5360    0.0140    1.3630 c         1 MXT      0.700000
     19 H21        -0.1690   -0.0080   -2.0320 h1        1 MXT      0.083700
     20 H121        2.5160   -0.9200    1.5840 hc        1 MXT      0.088700
     21 H122        2.5320    0.8940    1.5740 hc        1 MXT      0.088700
     22 H221       -1.1390    2.1760   -1.2260 hc        1 MXT      0.063950
     23 H222       -2.4780    1.2790   -0.3860 hc        1 MXT      0.063950
     24 H231       -1.1770   -2.1660   -1.2020 hc        1 MXT      0.063950
     25 H232       -2.5010   -1.2370   -0.3730 hc        1 MXT      0.063950
     26 H251       -2.2130    1.5240   -4.7140 hc        1 MXT      0.042450
     27 H252       -0.7690    0.9580   -3.7750 hc        1 MXT      0.042450
     28 H253       -1.3150    2.6710   -3.6340 hc        1 MXT      0.042450
     29 H261       -4.1670    2.5780   -3.3680 hc        1 MXT      0.042450
     30 H262       -4.2660    2.3130   -1.5750 hc        1 MXT      0.042450
     31 H263       -2.9870    3.4010   -2.2610 hc        1 MXT      0.042450
     32 H281       -0.7910   -0.9730   -3.7720 hc        1 MXT      0.042450
     33 H282       -2.2420   -1.5400   -4.6970 hc        1 MXT      0.042450
     34 H283       -1.3520   -2.6780   -3.6010 hc        1 MXT      0.042450
     35 H291       -4.3040   -2.2550   -1.5520 hc        1 MXT      0.042450
     36 H292       -3.0440   -3.3700   -2.2290 hc        1 MXT      0.042450
     37 H293       -4.2110   -2.5370   -3.3430 hc        1 MXT      0.042450
     38 H111        0.5970   -0.8950    2.9760 hc        1 MXT      0.088700
     39 H112        0.6140    0.9190    2.9660 hc        1 MXT      0.088700
     40 HO21       -5.1940    0.0320   -2.8050 ho        1 MXT      0.415000
@<TRIPOS>BOND
     1    1    6 1   
     2    1    7 1   
     3    1   18 1   
     4    2    3 1   
     5    2   10 1   
     6    2   13 1   
     7    3   40 1   
     8    4    6 2   
     9    5   18 2   
    10    6   17 1   
    11    7    8 1   
    12    7    9 1   
    13    7   19 1   
    14    8   10 1   
    15    8   22 1   
    16    8   23 1   
    17    9   13 1   
    18    9   24 1   
    19    9   25 1   
    20   10   11 1   
    21   10   12 1   
    22   11   26 1   
    23   11   27 1   
    24   11   28 1   
    25   12   29 1   
    26   12   30 1   
    27   12   31 1   
    28   13   14 1   
    29   13   15 1   
    30   14   32 1   
    31   14   33 1   
    32   14   34 1   
    33   15   35 1   
    34   15   36 1   
    35   15   37 1   
    36   16   17 1   
    37   16   18 1   
    38   16   38 1   
    39   16   39 1   
    40   17   20 1   
    41   17   21 1   
@<TRIPOS>SUBSTRUCTURE
     1 MXT         1 TEMP              0 ****  ****    0 ROOT
