@<TRIPOS>MOLECULE
MXT
   40    41     1     0     0
SMALL
bcc


@<TRIPOS>ATOM
      1 N1         -0.0620    0.0060    0.0320 n         1 MXT     -0.512400
      2 N2         -3.3510    0.0120   -2.8480 n3        1 MXT     -0.474100
      3 O2         -4.4900    0.0270   -2.1300 oh        1 MXT     -0.421300
      4 O11         2.0240   -0.0210   -1.0390 o         1 MXT     -0.586500
      5 O12        -1.7230    0.0340    1.6950 o         1 MXT     -0.586500
      6 C14         1.3490   -0.0060   -0.0040 c         1 MXT      0.700000
      7 C21        -0.8930    0.0040   -1.1590 c3        1 MXT      0.117700
      8 C22        -1.7740    1.2540   -1.2630 c3        1 MXT     -0.112400
      9 C23        -1.7950   -1.2330   -1.2440 c3        1 MXT     -0.112400
     10 C24        -2.5910    1.2750   -2.5670 c3        1 MXT      0.175200
     11 C25        -1.6680    1.6100   -3.7490 c3        1 MXT     -0.088600
     12 C26        -3.5700    2.4630   -2.4390 c3        1 MXT     -0.088600
     13 C27        -2.6120   -1.2600   -2.5470 c3        1 MXT      0.175200
     14 C28        -1.6960   -1.6290   -3.7240 c3        1 MXT     -0.088600
     15 C29        -3.6110   -2.4290   -2.4020 c3        1 MXT     -0.088600
     16 C11         0.6570    0.0180    2.3190 c3        1 MXT     -0.164400
     17 C12         1.8910   -0.0000    1.4220 c3        1 MXT     -0.164400
     18 C13        -0.5340    0.0210    1.3620 c         1 MXT      0.700000
     19 H21        -0.1700   -0.0090   -2.0330 h1        1 MXT      0.083700
     20 H121        2.5180   -0.9110    1.5840 hc        1 MXT      0.088700
     21 H122        2.5340    0.9020    1.5700 hc        1 MXT      0.088700
     22 H221       -1.1390    2.1770   -1.2310 hc        1 MXT      0.063950
     23 H222       -2.4780    1.2820   -0.3890 hc        1 MXT      0.063950
     24 H231       -1.1770   -2.1660   -1.1970 hc        1 MXT      0.063950
     25 H232       -2.5000   -1.2340   -0.3690 hc        1 MXT      0.063950
     26 H251       -2.2150    1.5170   -4.7180 hc        1 MXT      0.042450
     27 H252       -0.7720    0.9500   -3.7790 hc        1 MXT      0.042450
     28 H253       -1.3150    2.6640   -3.6400 hc        1 MXT      0.042450
     29 H261       -4.1680    2.5730   -3.3740 hc        1 MXT      0.042450
     30 H262       -2.9870    3.3990   -2.2700 hc        1 MXT      0.042450
     31 H263       -4.2660    2.3130   -1.5800 hc        1 MXT      0.042450
     32 H281       -0.7910   -0.9800   -3.7680 hc        1 MXT      0.042450
     33 H282       -1.3550   -2.6850   -3.5960 hc        1 MXT      0.042450
     34 H283       -2.2430   -1.5470   -4.6930 hc        1 MXT      0.042450
     35 H291       -4.3040   -2.2550   -1.5440 hc        1 MXT      0.042450
     36 H292       -4.2120   -2.5430   -3.3340 hc        1 MXT      0.042450
     37 H293       -3.0440   -3.3720   -2.2180 hc        1 MXT      0.042450
     38 H111        0.6000   -0.8830    2.9770 hc        1 MXT      0.088700
     39 H112        0.6160    0.9300    2.9630 hc        1 MXT      0.088700
     40 HO21       -5.1950    0.0280   -2.8030 ho        1 MXT      0.415000
@<TRIPOS>BOND
     1    1    6 1   
     2    1    7 1   
     3    1   18 1   
     4    2    3 1   
     5    2   10 1   
     6    2   13 1   
     7    3   40 1   
     8    4    6 2   
     9    5   18 2   
    10    6   17 1   
    11    7    8 1   
    12    7    9 1   
    13    7   19 1   
    14    8   10 1   
    15    8   22 1   
    16    8   23 1   
    17    9   13 1   
    18    9   24 1   
    19    9   25 1   
    20   10   11 1   
    21   10   12 1   
    22   11   26 1   
    23   11   27 1   
    24   11   28 1   
    25   12   29 1   
    26   12   30 1   
    27   12   31 1   
    28   13   14 1   
    29   13   15 1   
    30   14   32 1   
    31   14   33 1   
    32   14   34 1   
    33   15   35 1   
    34   15   36 1   
    35   15   37 1   
    36   16   17 1   
    37   16   18 1   
    38   16   38 1   
    39   16   39 1   
    40   17   20 1   
    41   17   21 1   
@<TRIPOS>SUBSTRUCTURE
     1 MXT         1 TEMP              0 ****  ****    0 ROOT
