@<TRIPOS>MOLECULE
MXT
   40    41     1     0     0
SMALL
bcc


@<TRIPOS>ATOM
      1 N1         -0.0630   -0.0010    0.0410 n         1 MXT     -0.512400
      2 N2         -3.3450    0.0170   -2.8480 n3        1 MXT     -0.474100
      3 O2         -4.4850    0.0330   -2.1320 oh        1 MXT     -0.421300
      4 O11         2.0260   -0.0280   -1.0240 o         1 MXT     -0.586500
      5 O12        -1.7290    0.0260    1.7000 o         1 MXT     -0.586500
      6 C14         1.3480   -0.0150    0.0080 c         1 MXT      0.700000
      7 C21        -0.8910    0.0010   -1.1520 c3        1 MXT      0.117700
      8 C22        -1.7690    1.2530   -1.2560 c3        1 MXT     -0.112400
      9 C23        -1.7950   -1.2340   -1.2420 c3        1 MXT     -0.112400
     10 C24        -2.5830    1.2780   -2.5620 c3        1 MXT      0.175200
     11 C25        -1.6560    1.6150   -3.7410 c3        1 MXT     -0.088600
     12 C26        -3.5600    2.4680   -2.4340 c3        1 MXT     -0.088600
     13 C27        -2.6090   -1.2560   -2.5480 c3        1 MXT      0.175200
     14 C28        -1.6900   -1.6240   -3.7230 c3        1 MXT     -0.088600
     15 C29        -3.6100   -2.4240   -2.4070 c3        1 MXT     -0.088600
     16 C11         0.6500    0.0050    2.3300 c3        1 MXT     -0.164400
     17 C12         1.8870   -0.0130    1.4360 c3        1 MXT     -0.164400
     18 C13        -0.5390    0.0120    1.3700 c         1 MXT      0.700000
     19 H21        -0.1650   -0.0110   -2.0240 h1        1 MXT      0.083700
     20 H121        2.5300    0.8880    1.5870 hc        1 MXT      0.088700
     21 H122        2.5110   -0.9250    1.5970 hc        1 MXT      0.088700
     22 H221       -1.1330    2.1750   -1.2200 hc        1 MXT      0.063950
     23 H222       -2.4760    1.2800   -0.3830 hc        1 MXT      0.063950
     24 H231       -2.5020   -1.2360   -0.3690 hc        1 MXT      0.063950
     25 H232       -1.1780   -2.1680   -1.1960 hc        1 MXT      0.063950
     26 H251       -0.7630    0.9510   -3.7720 hc        1 MXT      0.042533
     27 H252       -1.2980    2.6670   -3.6270 hc        1 MXT      0.042533
     28 H253       -2.2020    1.5280   -4.7110 hc        1 MXT      0.042533
     29 H261       -2.9760    3.4030   -2.2610 hc        1 MXT      0.042533
     30 H262       -4.1560    2.5810   -3.3700 hc        1 MXT      0.042533
     31 H263       -4.2580    2.3180   -1.5770 hc        1 MXT      0.042533
     32 H281       -2.2330   -1.5370   -4.6940 hc        1 MXT      0.042533
     33 H282       -0.7820   -0.9800   -3.7610 hc        1 MXT      0.042533
     34 H283       -1.3540   -2.6830   -3.5980 hc        1 MXT      0.042533
     35 H291       -4.3050   -2.2500   -1.5510 hc        1 MXT      0.042533
     36 H292       -3.0460   -3.3690   -2.2240 hc        1 MXT      0.042533
     37 H293       -4.2080   -2.5350   -3.3420 hc        1 MXT      0.042533
     38 H111        0.5900   -0.8980    2.9860 hc        1 MXT      0.088700
     39 H112        0.6090    0.9160    2.9760 hc        1 MXT      0.088700
     40 HO21       -5.1890    0.0360   -2.8080 ho        1 MXT      0.415000
@<TRIPOS>BOND
     1    1    6 1   
     2    1    7 1   
     3    1   18 1   
     4    2    3 1   
     5    2   10 1   
     6    2   13 1   
     7    3   40 1   
     8    4    6 2   
     9    5   18 2   
    10    6   17 1   
    11    7    8 1   
    12    7    9 1   
    13    7   19 1   
    14    8   10 1   
    15    8   22 1   
    16    8   23 1   
    17    9   13 1   
    18    9   24 1   
    19    9   25 1   
    20   10   11 1   
    21   10   12 1   
    22   11   26 1   
    23   11   27 1   
    24   11   28 1   
    25   12   29 1   
    26   12   30 1   
    27   12   31 1   
    28   13   14 1   
    29   13   15 1   
    30   14   32 1   
    31   14   33 1   
    32   14   34 1   
    33   15   35 1   
    34   15   36 1   
    35   15   37 1   
    36   16   17 1   
    37   16   18 1   
    38   16   38 1   
    39   16   39 1   
    40   17   20 1   
    41   17   21 1   
@<TRIPOS>SUBSTRUCTURE
     1 MXT         1 TEMP              0 ****  ****    0 ROOT
