@<TRIPOS>MOLECULE
MXT
   40    41     1     0     0
SMALL
bcc


@<TRIPOS>ATOM
      1 N1         -1.7980   -0.0010    0.0050 n         1 MXT     -0.512400
      2 N2          2.5730   -0.0910   -0.0190 n3        1 MXT     -0.474100
      3 O2          2.9300   -1.2090   -0.6790 oh        1 MXT     -0.421300
      4 O11        -2.6180    1.8920    1.1200 o         1 MXT     -0.586500
      5 O12        -1.6920   -2.0220   -1.1920 o         1 MXT     -0.586500
      6 C14        -2.8160    0.8430    0.4980 c         1 MXT      0.700000
      7 C21        -0.3820    0.2700    0.1750 c3        1 MXT      0.117700
      8 C22         0.3470    0.4440   -1.1630 c3        1 MXT     -0.112400
      9 C23         0.3330   -0.8230    0.9780 c3        1 MXT     -0.112400
     10 C24         1.8300    0.8060   -0.9660 c3        1 MXT      0.175200
     11 C25         1.9470    2.2690   -0.5080 c3        1 MXT     -0.088600
     12 C26         2.4750    0.7450   -2.3680 c3        1 MXT     -0.088600
     13 C27         1.8150   -0.4850    1.2150 c3        1 MXT      0.175200
     14 C28         1.9290    0.6180    2.2790 c3        1 MXT     -0.088600
     15 C29         2.4470   -1.7480    1.8420 c3        1 MXT     -0.088600
     16 C11        -3.8710   -1.0320   -0.6200 c3        1 MXT     -0.164400
     17 C12        -4.1780    0.2550    0.1410 c3        1 MXT     -0.164400
     18 C13        -2.3460   -1.1190   -0.6610 c         1 MXT      0.700000
     19 H21        -0.3280    1.2440    0.7520 h1        1 MXT      0.083700
     20 H121       -4.7570    0.0640    1.0780 hc        1 MXT      0.088700
     21 H122       -4.7460    0.9890   -0.4830 hc        1 MXT      0.088700
     22 H221        0.2780   -0.5130   -1.7470 hc        1 MXT      0.064200
     23 H222       -0.1370    1.2570   -1.7630 hc        1 MXT      0.064200
     24 H231       -0.1610   -0.9560    1.9740 hc        1 MXT      0.064200
     25 H232        0.2640   -1.7950    0.4180 hc        1 MXT      0.064200
     26 H251        3.0040    2.5200   -0.2510 hc        1 MXT      0.042533
     27 H252        1.6170    2.9330   -1.3430 hc        1 MXT      0.042533
     28 H253        1.3040    2.4830    0.3750 hc        1 MXT      0.042533
     29 H261        2.4080   -0.2860   -2.7900 hc        1 MXT      0.042533
     30 H262        1.9370    1.4460   -3.0480 hc        1 MXT      0.042533
     31 H263        3.5480    1.0440   -2.3130 hc        1 MXT      0.042533
     32 H281        1.2920    1.5000    2.0360 hc        1 MXT      0.042533
     33 H282        1.5860    0.2080    3.2600 hc        1 MXT      0.042533
     34 H283        2.9860    0.9590    2.3860 hc        1 MXT      0.042533
     35 H291        3.5180   -1.5620    2.0880 hc        1 MXT      0.042533
     36 H292        1.8980   -2.0040    2.7790 hc        1 MXT      0.042533
     37 H293        2.3820   -2.6140    1.1400 hc        1 MXT      0.042533
     38 H111       -4.2790   -1.9350   -0.1030 hc        1 MXT      0.088700
     39 H112       -4.2690   -1.0110   -1.6640 hc        1 MXT      0.088700
     40 HO21        3.9040   -1.1930   -0.6630 ho        1 MXT      0.415000
@<TRIPOS>BOND
     1    1    6 1   
     2    1    7 1   
     3    1   18 1   
     4    2    3 1   
     5    2   10 1   
     6    2   13 1   
     7    3   40 1   
     8    4    6 2   
     9    5   18 2   
    10    6   17 1   
    11    7    8 1   
    12    7    9 1   
    13    7   19 1   
    14    8   10 1   
    15    8   22 1   
    16    8   23 1   
    17    9   13 1   
    18    9   24 1   
    19    9   25 1   
    20   10   11 1   
    21   10   12 1   
    22   11   26 1   
    23   11   27 1   
    24   11   28 1   
    25   12   29 1   
    26   12   30 1   
    27   12   31 1   
    28   13   14 1   
    29   13   15 1   
    30   14   32 1   
    31   14   33 1   
    32   14   34 1   
    33   15   35 1   
    34   15   36 1   
    35   15   37 1   
    36   16   17 1   
    37   16   18 1   
    38   16   38 1   
    39   16   39 1   
    40   17   20 1   
    41   17   21 1   
@<TRIPOS>SUBSTRUCTURE
     1 MXT         1 TEMP              0 ****  ****    0 ROOT
