@<TRIPOS>MOLECULE
MXX
   32    33     1     0     0
SMALL
bcc


@<TRIPOS>ATOM
      1 O17        -0.0900   -0.0040   -0.0270 o         1 MXX     -0.640500
      2 C9          1.1580   -0.0030   -0.0290 c         1 MXX      0.693700
      3 N10         1.8600   -0.0020    1.1970 n         1 MXX     -0.337000
      4 C16         1.0760   -0.0000    2.4110 c3        1 MXX      0.068300
      5 C3          3.2560   -0.0020    1.2340 ca        1 MXX      0.123600
      6 C4          3.9900   -0.0020    2.4750 ca        1 MXX      0.048100
      7 O12         3.2490   -0.0030    3.6500 os        1 MXX     -0.333900
      8 C13         3.9820   -0.0020    4.8680 c3        1 MXX      0.113700
      9 C5          5.3750   -0.0010    2.4920 ca        1 MXX     -0.131000
     10 C6          6.1050   -0.0010    1.3030 ca        1 MXX     -0.224000
     11 C1          5.4330   -0.0010    0.0880 ca        1 MXX      0.156100
     12 O11         6.1070   -0.0010   -1.1190 os        1 MXX     -0.327900
     13 C14         7.5290   -0.0010   -1.0580 c3        1 MXX      0.111700
     14 C2          4.0110   -0.0020    0.0180 ca        1 MXX     -0.130800
     15 C7          3.3000   -0.0020   -1.2460 cc        1 MXX      0.046600
     16 C15         4.0190   -0.0020   -2.5440 c3        1 MXX     -0.062900
     17 C8          1.9440   -0.0030   -1.2570 cd        1 MXX     -0.258200
     18 H16        -0.0190    0.0010    2.1600 h1        1 MXX      0.063367
     19 H16A        1.3080    0.9170    3.0150 h1        1 MXX      0.063367
     20 H16B        1.3050   -0.9180    3.0160 h1        1 MXX      0.063367
     21 H13         4.6100    0.9180    4.9550 h1        1 MXX      0.045033
     22 H13A        3.1780   -0.0030    5.6480 h1        1 MXX      0.045033
     23 H13B        4.6120   -0.9210    4.9550 h1        1 MXX      0.045033
     24 H5          5.9310   -0.0010    3.4410 ha        1 MXX      0.143000
     25 H6          7.2020   -0.0000    1.3570 ha        1 MXX      0.143000
     26 H14         7.9040    0.9180   -0.5460 h1        1 MXX      0.047033
     27 H14A        7.9040   -0.9200   -0.5460 h1        1 MXX      0.047033
     28 H14B        7.8300   -0.0010   -2.1370 h1        1 MXX      0.047033
     29 H15         3.3010   -0.0020   -3.4020 hc        1 MXX      0.057367
     30 H15A        4.6690   -0.9090   -2.6260 hc        1 MXX      0.057367
     31 H15B        4.6680    0.9060   -2.6260 hc        1 MXX      0.057367
     32 H8          1.3550   -0.0040   -2.1860 ha        1 MXX      0.164000
@<TRIPOS>BOND
     1    1    2 2   
     2    2    3 1   
     3    2   17 1   
     4    3    4 1   
     5    3    5 1   
     6    4   18 1   
     7    4   19 1   
     8    4   20 1   
     9    5    6 ar  
    10    5   14 ar  
    11    6    7 1   
    12    6    9 ar  
    13    7    8 1   
    14    8   21 1   
    15    8   22 1   
    16    8   23 1   
    17    9   10 ar  
    18    9   24 1   
    19   10   11 ar  
    20   10   25 1   
    21   11   12 1   
    22   11   14 ar  
    23   12   13 1   
    24   13   26 1   
    25   13   27 1   
    26   13   28 1   
    27   14   15 1   
    28   15   16 1   
    29   15   17 2   
    30   16   29 1   
    31   16   30 1   
    32   16   31 1   
    33   17   32 1   
@<TRIPOS>SUBSTRUCTURE
     1 MXX         1 TEMP              0 ****  ****    0 ROOT
