@<TRIPOS>MOLECULE
MXX
   32    30     1     0     0
SMALL
bcc


@<TRIPOS>ATOM
      1 O17        -4.1450   -0.0700   -0.8400 o         1 MXX     -0.363000
      2 C9         -2.9230   -0.0030   -0.8400 c1        1 MXX      0.332000
      3 N10        -2.1940   -0.0020    0.4270 n2        1 MXX     -0.241000
      4 C16        -2.9330   -0.0660    1.6950 c3        1 MXX     -0.085000
      5 C3         -0.6810   -0.0420    0.4320 c2        1 MXX      0.136000
      6 C4          0.0150   -0.0510    1.6510 c1        1 MXX     -0.015000
      7 O12        -0.1530   -0.7200    2.8600 o         1 MXX     -0.221000
      8 C13        -0.0230    0.1050    3.9850 c3        1 MXX     -0.077000
      9 C5          1.4170   -0.0910    1.6590 c2        1 MXX     -0.108000
     10 C6          2.1300   -0.1230    0.4430 c1        1 MXX     -0.232000
     11 C1          1.4380   -0.1150   -0.7770 c1        1 MXX      0.121000
     12 O11         2.3300   -0.5680   -1.7890 os        1 MXX     -0.211000
     13 C14         3.5020    0.2590   -1.9490 c3        1 MXX     -0.079000
     14 C2          0.0330   -0.0750   -0.7880 c2        1 MXX     -0.126000
     15 C7         -0.7230   -0.0660   -2.1170 c2        1 MXX      0.040000
     16 C15         0.0530    0.0010   -3.4450 c3        1 MXX     -0.185000
     17 C8         -2.1800   -0.0460   -2.1220 c2        1 MXX     -0.240000
     18 H16        -2.6920    0.7120    2.2580 h1        1 MXX      0.101667
     19 H16A       -3.8890   -0.0520    1.5130 h1        1 MXX      0.101667
     20 H16B       -2.6990   -0.9030    2.1700 h1        1 MXX      0.101667
     21 H13        -0.8290    0.0350    4.5370 h1        1 MXX      0.082333
     22 H13A        0.7520   -0.1760    4.5060 h1        1 MXX      0.082333
     23 H13B        0.0960    1.0330    3.6970 h1        1 MXX      0.082333
     24 H5          1.9090   -0.0970    2.5250 ha        1 MXX      0.143000
     25 H6          3.1130   -0.1510    0.4500 ha        1 MXX      0.144000
     26 H14         3.3040    1.1620   -1.6530 h1        1 MXX      0.086667
     27 H14A        4.2400   -0.1090   -1.4100 h1        1 MXX      0.086667
     28 H14B        3.7650    0.2750   -2.8990 h1        1 MXX      0.086667
     29 H15         0.5960   -0.8060   -3.5460 hc        1 MXX      0.096667
     30 H15A       -0.5890    0.0650   -4.2030 hc        1 MXX      0.096667
     31 H15B        0.6360    0.7870   -3.4440 hc        1 MXX      0.096667
     32 H8         -2.6770   -0.1030   -2.9860 ha        1 MXX      0.164000
@<TRIPOS>BOND
     1    1    2 1   
     2    2   17 1   
     3    3    4 1   
     4    3    5 1   
     5    4   18 1   
     6    4   19 1   
     7    4   20 1   
     8    5    6 1   
     9    5   14 1   
    10    6    9 1   
    11    7    8 1   
    12    8   21 1   
    13    8   22 1   
    14    8   23 1   
    15    9   10 1   
    16    9   24 1   
    17   10   25 1   
    18   11   12 1   
    19   11   14 1   
    20   12   13 1   
    21   13   26 1   
    22   13   27 1   
    23   13   28 1   
    24   14   15 1   
    25   15   16 1   
    26   15   17 1   
    27   16   29 1   
    28   16   30 1   
    29   16   31 1   
    30   17   32 1   
@<TRIPOS>SUBSTRUCTURE
     1 MXX         1 TEMP              0 ****  ****    0 ROOT
