@<TRIPOS>MOLECULE
MXX
   32    33     1     0     0
SMALL
bcc


@<TRIPOS>ATOM
      1 O17        -0.0230   -0.2290    0.1670 o         1 MXX     -0.635500
      2 C9          1.2200   -0.1420    0.1180 c         1 MXX      0.694700
      3 N10         1.9470    0.1390    1.2980 n         1 MXX     -0.341000
      4 C16         1.1950    0.4460    2.4920 c3        1 MXX      0.070300
      5 C3          3.3410    0.1770    1.2950 ca        1 MXX      0.133600
      6 C4          4.0970    0.3410    2.5010 ca        1 MXX      0.002100
      7 O12         3.4570    0.4830    3.7290 os        1 MXX     -0.341900
      8 C13         3.6360   -0.6410    4.5920 c3        1 MXX      0.112700
      9 C5          5.4810    0.4510    2.4810 ca        1 MXX     -0.070000
     10 C6          6.1840    0.3740    1.2830 ca        1 MXX     -0.245000
     11 C1          5.4850    0.1670    0.0950 ca        1 MXX      0.181100
     12 O11         6.1330    0.0600   -1.1190 os        1 MXX     -0.326900
     13 C14         7.5510    0.2010   -1.1070 c3        1 MXX      0.110700
     14 C2          4.0690    0.0520    0.0650 ca        1 MXX     -0.148800
     15 C7          3.3300   -0.2000   -1.1570 cc        1 MXX      0.049600
     16 C15         4.0190   -0.3550   -2.4610 c3        1 MXX     -0.063900
     17 C8          1.9790   -0.3070   -1.1170 cd        1 MXX     -0.262200
     18 H16         0.1060    0.5500    2.2380 h1        1 MXX      0.061367
     19 H16A        1.5610    1.4090    2.9380 h1        1 MXX      0.061367
     20 H16B        1.3150   -0.3790    3.2440 h1        1 MXX      0.061367
     21 H13         4.7210   -0.8080    4.7990 h1        1 MXX      0.040700
     22 H13A        3.0940   -0.3480    5.5260 h1        1 MXX      0.040700
     23 H13B        3.1830   -1.5560    4.1410 h1        1 MXX      0.040700
     24 H5          6.0210    0.5990    3.4300 ha        1 MXX      0.147000
     25 H6          7.2780    0.4740    1.2980 ha        1 MXX      0.145000
     26 H14         7.8450    1.2090   -0.7280 h1        1 MXX      0.048700
     27 H14A        8.0230   -0.6060   -0.4970 h1        1 MXX      0.048700
     28 H14B        7.8250    0.0900   -2.1880 h1        1 MXX      0.048700
     29 H15         3.2880   -0.5570   -3.2820 hc        1 MXX      0.057367
     30 H15A        4.7450   -1.2060   -2.4160 hc        1 MXX      0.057367
     31 H15B        4.5850    0.5780   -2.7120 hc        1 MXX      0.057367
     32 H8          1.3710   -0.5120   -2.0110 ha        1 MXX      0.164000
@<TRIPOS>BOND
     1    1    2 2   
     2    2    3 1   
     3    2   17 1   
     4    3    4 1   
     5    3    5 1   
     6    4   18 1   
     7    4   19 1   
     8    4   20 1   
     9    5    6 ar  
    10    5   14 ar  
    11    6    7 1   
    12    6    9 ar  
    13    7    8 1   
    14    8   21 1   
    15    8   22 1   
    16    8   23 1   
    17    9   10 ar  
    18    9   24 1   
    19   10   11 ar  
    20   10   25 1   
    21   11   12 1   
    22   11   14 ar  
    23   12   13 1   
    24   13   26 1   
    25   13   27 1   
    26   13   28 1   
    27   14   15 1   
    28   15   16 1   
    29   15   17 2   
    30   16   29 1   
    31   16   30 1   
    32   16   31 1   
    33   17   32 1   
@<TRIPOS>SUBSTRUCTURE
     1 MXX         1 TEMP              0 ****  ****    0 ROOT
