@<TRIPOS>MOLECULE
MXX
   32    33     1     0     0
SMALL
bcc


@<TRIPOS>ATOM
      1 O17        -0.0770   -0.1070    0.0270 o         1 MXX     -0.638500
      2 C9          1.1700   -0.0600    0.0120 c         1 MXX      0.693700
      3 N10         1.8790    0.1000    1.2240 n         1 MXX     -0.338000
      4 C16         1.1060    0.2930    2.4290 c3        1 MXX      0.070300
      5 C3          3.2740    0.1040    1.2510 ca        1 MXX      0.128600
      6 C4          4.0120    0.1790    2.4820 ca        1 MXX      0.030100
      7 O12         3.3040    0.2490    3.6760 os        1 MXX     -0.337900
      8 C13         3.9090   -0.4230    4.7780 c3        1 MXX      0.112700
      9 C5          5.3970    0.2380    2.4930 ca        1 MXX     -0.108000
     10 C6          6.1220    0.1970    1.3040 ca        1 MXX     -0.232000
     11 C1          5.4440    0.0910    0.0950 ca        1 MXX      0.166100
     12 O11         6.1120    0.0310   -1.1130 os        1 MXX     -0.327900
     13 C14         7.5330    0.1100   -1.0640 c3        1 MXX      0.110700
     14 C2          4.0230    0.0360    0.0320 ca        1 MXX     -0.137800
     15 C7          3.3040   -0.0980   -1.2200 cc        1 MXX      0.047600
     16 C15         4.0160   -0.1830   -2.5190 c3        1 MXX     -0.062900
     17 C8          1.9500   -0.1550   -1.2170 cd        1 MXX     -0.259200
     18 H16         0.0170    0.3930    2.1720 h1        1 MXX      0.062367
     19 H16A        1.2360   -0.5860    3.1150 h1        1 MXX      0.062367
     20 H16B        1.4420    1.2280    2.9530 h1        1 MXX      0.062367
     21 H13         4.3400   -1.4050    4.4730 h1        1 MXX      0.043033
     22 H13A        4.6970    0.2270    5.2310 h1        1 MXX      0.043033
     23 H13B        3.0630   -0.5660    5.4980 h1        1 MXX      0.043033
     24 H5          5.9380    0.3140    3.4490 ha        1 MXX      0.143000
     25 H6          7.2190    0.2470    1.3480 ha        1 MXX      0.144000
     26 H14         7.8290    0.0530   -2.1430 h1        1 MXX      0.047367
     27 H14A        7.8620    1.0800   -0.6180 h1        1 MXX      0.047367
     28 H14B        7.9580   -0.7520   -0.4950 h1        1 MXX      0.047367
     29 H15         4.7040   -1.0660   -2.5270 hc        1 MXX      0.057367
     30 H15A        3.2960   -0.2880   -3.3680 hc        1 MXX      0.057367
     31 H15B        4.6270    0.7410   -2.6860 hc        1 MXX      0.057367
     32 H8          1.3560   -0.2670   -2.1360 ha        1 MXX      0.164000
@<TRIPOS>BOND
     1    1    2 2   
     2    2    3 1   
     3    2   17 1   
     4    3    4 1   
     5    3    5 1   
     6    4   18 1   
     7    4   19 1   
     8    4   20 1   
     9    5    6 ar  
    10    5   14 ar  
    11    6    7 1   
    12    6    9 ar  
    13    7    8 1   
    14    8   21 1   
    15    8   22 1   
    16    8   23 1   
    17    9   10 ar  
    18    9   24 1   
    19   10   11 ar  
    20   10   25 1   
    21   11   12 1   
    22   11   14 ar  
    23   12   13 1   
    24   13   26 1   
    25   13   27 1   
    26   13   28 1   
    27   14   15 1   
    28   15   16 1   
    29   15   17 2   
    30   16   29 1   
    31   16   30 1   
    32   16   31 1   
    33   17   32 1   
@<TRIPOS>SUBSTRUCTURE
     1 MXX         1 TEMP              0 ****  ****    0 ROOT
