@<TRIPOS>MOLECULE
MXX
   32    33     1     0     0
SMALL
bcc


@<TRIPOS>ATOM
      1 O17        -2.5000    2.8720   -0.1060 o         1 MXX     -0.638500
      2 C9         -1.5070    2.1160   -0.0610 c         1 MXX      0.693700
      3 N10        -1.6960    0.7260    0.1070 n         1 MXX     -0.338000
      4 C16        -3.0460    0.2530    0.3100 c3        1 MXX      0.070300
      5 C3         -0.6140   -0.1560    0.1090 ca        1 MXX      0.128600
      6 C4         -0.7900   -1.5790    0.1920 ca        1 MXX      0.030100
      7 O12        -2.0830   -2.0840    0.2720 os        1 MXX     -0.337900
      8 C13        -2.2900   -3.3250   -0.3980 c3        1 MXX      0.112700
      9 C5          0.2940   -2.4410    0.2490 ca        1 MXX     -0.108000
     10 C6          1.5980   -1.9520    0.1990 ca        1 MXX     -0.232000
     11 C1          1.8080   -0.5820    0.0860 ca        1 MXX      0.166100
     12 O11         3.0790   -0.0430    0.0170 os        1 MXX     -0.327900
     13 C14         4.1680   -0.9560    0.0950 c3        1 MXX      0.110700
     14 C2          0.7280    0.3430    0.0320 ca        1 MXX     -0.137800
     15 C7          0.9320    1.7710   -0.1110 cc        1 MXX      0.047600
     16 C15         2.2920    2.3550   -0.2060 c3        1 MXX     -0.062900
     17 C8         -0.1370    2.6030   -0.1660 cd        1 MXX     -0.259200
     18 H16        -3.7440    1.1280    0.4110 h1        1 MXX      0.062367
     19 H16A       -3.3710   -0.3710   -0.5640 h1        1 MXX      0.062367
     20 H16B       -3.0980   -0.3620    1.2490 h1        1 MXX      0.062367
     21 H13        -1.7680   -3.3520   -1.3840 h1        1 MXX      0.043033
     22 H13A       -1.9440   -4.1660    0.2510 h1        1 MXX      0.043033
     23 H13B       -3.4000   -3.3710   -0.5340 h1        1 MXX      0.043033
     24 H5          0.1320   -3.5270    0.3310 ha        1 MXX      0.143000
     25 H6          2.4340   -2.6620    0.2480 ha        1 MXX      0.144000
     26 H14         4.1560   -1.5050    1.0680 h1        1 MXX      0.047367
     27 H14A        4.1480   -1.6700   -0.7630 h1        1 MXX      0.047367
     28 H14B        5.0650   -0.2880    0.0310 h1        1 MXX      0.047367
     29 H15         2.8340    1.9330   -1.0890 hc        1 MXX      0.057367
     30 H15A        2.2470    3.4670   -0.3170 hc        1 MXX      0.057367
     31 H15B        2.8810    2.1150    0.7160 hc        1 MXX      0.057367
     32 H8         -0.0390    3.6920   -0.2840 ha        1 MXX      0.164000
@<TRIPOS>BOND
     1    1    2 2   
     2    2    3 1   
     3    2   17 1   
     4    3    4 1   
     5    3    5 1   
     6    4   18 1   
     7    4   19 1   
     8    4   20 1   
     9    5    6 ar  
    10    5   14 ar  
    11    6    7 1   
    12    6    9 ar  
    13    7    8 1   
    14    8   21 1   
    15    8   22 1   
    16    8   23 1   
    17    9   10 ar  
    18    9   24 1   
    19   10   11 ar  
    20   10   25 1   
    21   11   12 1   
    22   11   14 ar  
    23   12   13 1   
    24   13   26 1   
    25   13   27 1   
    26   13   28 1   
    27   14   15 1   
    28   15   16 1   
    29   15   17 2   
    30   16   29 1   
    31   16   30 1   
    32   16   31 1   
    33   17   32 1   
@<TRIPOS>SUBSTRUCTURE
     1 MXX         1 TEMP              0 ****  ****    0 ROOT
