@<TRIPOS>MOLECULE
MXY
   26    26     1     0     0
SMALL
bcc


@<TRIPOS>ATOM
      1 C1         -1.1700    0.5370   -0.8380 c3        1 MXY      0.325900
      2 C2          0.3440    0.5370   -0.8380 c3        1 MXY      0.051100
      3 C3          0.9070    0.5370    0.5340 c3        1 MXY      0.109100
      4 C4          0.3310   -0.5480    1.3810 c3        1 MXY      0.118100
      5 C5         -1.1880   -0.5450    1.3700 c3        1 MXY      0.160100
      6 O2          0.8090    1.7100   -1.5320 os        1 MXY     -0.428600
      7 O3          2.3450    0.3540    0.4510 oh        1 MXY     -0.609800
      8 O4          0.7950   -1.8130    0.8930 oh        1 MXY     -0.589800
      9 O5         -1.7390   -0.5410    0.0140 os        1 MXY     -0.442600
     10 CM          1.5130    1.4280   -2.7210 c3        1 MXY      0.110700
     11 C6         -1.6800   -1.7610    2.0870 c3        1 MXY     -0.089100
     12 OGL        -1.6160    0.3660   -2.1330 oh        1 MXY     -0.596800
     13 H1         -1.4850    1.3990   -0.5070 h2        1 MXY      0.081700
     14 H2          0.6600   -0.2570   -1.3100 h1        1 MXY      0.073700
     15 H3          0.7210    1.3990    0.9530 h1        1 MXY      0.058700
     16 H4          0.6400   -0.4310    2.3000 h1        1 MXY      0.055700
     17 H5         -1.5050    0.2490    1.8410 h1        1 MXY      0.040700
     18 HO3         2.7470    0.9050    1.0190 ho        1 MXY      0.427000
     19 HO4         1.3630   -2.1660    1.4770 ho        1 MXY      0.422000
     20 HCM1        1.7480    2.2650   -3.1650 h1        1 MXY      0.044367
     21 HCM2        0.9520    0.8920   -3.3120 h1        1 MXY      0.044367
     22 HCM3        2.3270    0.9330   -2.5070 h1        1 MXY      0.044367
     23 H61        -1.2120   -1.8470    2.9400 hc        1 MXY      0.054367
     24 H62        -2.6390   -1.6790    2.2490 hc        1 MXY      0.054367
     25 H63        -1.5090   -2.5520    1.5420 hc        1 MXY      0.054367
     26 HOG        -2.4620    0.6300   -2.1920 ho        1 MXY      0.428000
@<TRIPOS>BOND
     1    1    2 1   
     2    1    9 1   
     3    1   12 1   
     4    1   13 1   
     5    2    3 1   
     6    2    6 1   
     7    2   14 1   
     8    3    4 1   
     9    3    7 1   
    10    3   15 1   
    11    4    5 1   
    12    4    8 1   
    13    4   16 1   
    14    5    9 1   
    15    5   11 1   
    16    5   17 1   
    17    6   10 1   
    18    7   18 1   
    19    8   19 1   
    20   10   20 1   
    21   10   21 1   
    22   10   22 1   
    23   11   23 1   
    24   11   24 1   
    25   11   25 1   
    26   12   26 1   
@<TRIPOS>SUBSTRUCTURE
     1 MXY         1 TEMP              0 ****  ****    0 ROOT
