@<TRIPOS>MOLECULE
MXY
   26    26     1     0     0
SMALL
bcc


@<TRIPOS>ATOM
      1 C1          1.1970    0.1250    0.4320 c3        1 MXY      0.312900
      2 C2         -0.2610   -0.0850    0.8970 c3        1 MXY      0.084100
      3 C3         -1.2690    0.5930   -0.0510 c3        1 MXY      0.115100
      4 C4         -0.9110    0.3150   -1.5220 c3        1 MXY      0.076100
      5 C5          0.5460    0.7120   -1.7860 c3        1 MXY      0.121100
      6 O2         -0.4230    0.5510    2.1610 os        1 MXY     -0.405600
      7 O3         -2.5810    0.1510    0.2250 oh        1 MXY     -0.575800
      8 O4         -1.1560   -1.0480   -1.8220 oh        1 MXY     -0.594800
      9 O5          1.3950   -0.0910   -0.9610 os        1 MXY     -0.465600
     10 CM         -0.0220   -0.2600    3.2560 c3        1 MXY      0.110700
     11 C6          0.9570    0.4480   -3.2200 c3        1 MXY     -0.093100
     12 OGL         1.9820   -0.8970    0.9950 oh        1 MXY     -0.601800
     13 H1          1.5730    1.1440    0.7270 h2        1 MXY      0.055700
     14 H2         -0.4770   -1.1860    0.9680 h1        1 MXY      0.068700
     15 H3         -1.2920    1.7000    0.1510 h1        1 MXY      0.098700
     16 H4         -1.6100    0.8840   -2.1960 h1        1 MXY      0.097700
     17 H5          0.6900    1.7970   -1.5220 h1        1 MXY      0.052700
     18 HO3        -2.6550   -0.7560   -0.1070 ho        1 MXY      0.412000
     19 HO4        -0.4130   -1.5570   -1.4670 ho        1 MXY      0.416000
     20 HCM1       -0.1340    0.4100    4.1450 h1        1 MXY      0.042367
     21 HCM2       -0.6940   -1.1490    3.3470 h1        1 MXY      0.042367
     22 HCM3        1.0390   -0.5910    3.1340 h1        1 MXY      0.042367
     23 H61         2.0550    0.6120   -3.3400 hc        1 MXY      0.053700
     24 H62         0.7170   -0.6060   -3.5010 hc        1 MXY      0.053700
     25 H63         0.4030    1.1410   -3.8950 hc        1 MXY      0.053700
     26 HOG         2.7980   -0.9640    0.4780 ho        1 MXY      0.428000
@<TRIPOS>BOND
     1    1    2 1   
     2    1    9 1   
     3    1   12 1   
     4    1   13 1   
     5    2    3 1   
     6    2    6 1   
     7    2   14 1   
     8    3    4 1   
     9    3    7 1   
    10    3   15 1   
    11    4    5 1   
    12    4    8 1   
    13    4   16 1   
    14    5    9 1   
    15    5   11 1   
    16    5   17 1   
    17    6   10 1   
    18    7   18 1   
    19    8   19 1   
    20   10   20 1   
    21   10   21 1   
    22   10   22 1   
    23   11   23 1   
    24   11   24 1   
    25   11   25 1   
    26   12   26 1   
@<TRIPOS>SUBSTRUCTURE
     1 MXY         1 TEMP              0 ****  ****    0 ROOT
