@<TRIPOS>MOLECULE
MXZ
   26    26     1     0     0
SMALL
bcc


@<TRIPOS>ATOM
      1 C1          0.0880   -0.0090   -0.0270 c3        1 MXZ      0.309900
      2 C2          1.6180   -0.1190    0.0760 c3        1 MXZ      0.092100
      3 C3          2.0460   -0.0740    1.5510 c3        1 MXZ      0.112100
      4 C4          1.3160   -1.1880    2.3210 c3        1 MXZ      0.122100
      5 C5         -0.2010   -1.0390    2.1250 c3        1 MXZ      0.150100
      6 O1         -0.3320    1.2390    0.4690 oh        1 MXZ     -0.614800
      7 O2          2.2940    0.9570   -0.5610 os        1 MXZ     -0.412600
      8 O3          3.4340   -0.3290    1.6840 oh        1 MXZ     -0.611800
      9 O4          1.7110   -2.4720    1.8690 oh        1 MXZ     -0.592800
     10 O5         -0.5780   -0.9890    0.7450 os        1 MXZ     -0.438600
     11 CM          2.2090    0.9260   -1.9770 c3        1 MXZ      0.115700
     12 C6         -0.9600   -2.2060    2.7240 c3        1 MXZ     -0.088100
     13 H1C1       -0.2700   -0.1850   -1.0810 h2        1 MXZ      0.070700
     14 H2          1.9270   -1.1030   -0.3790 h1        1 MXZ      0.074700
     15 H3          1.7920    0.9330    1.9830 h1        1 MXZ      0.075700
     16 H4          1.5580   -1.0930    3.4170 h1        1 MXZ      0.054700
     17 H5         -0.5090   -0.0660    2.6050 h1        1 MXZ      0.049700
     18 H1         -1.2970    1.2480    0.4350 ho        1 MXZ      0.416000
     19 HA          3.8870    0.3150    1.1230 ho        1 MXZ      0.427000
     20 HB          2.6790   -2.4840    1.8910 ho        1 MXZ      0.420000
     21 HMC1        2.8590    1.7750   -2.3080 h1        1 MXZ      0.037700
     22 HMC2        1.1550    1.0900   -2.3090 h1        1 MXZ      0.037700
     23 HMC3        2.5930   -0.0440   -2.3780 h1        1 MXZ      0.037700
     24 H6C1       -0.7760   -2.2380    3.8240 hc        1 MXZ      0.052033
     25 H6C2       -0.6120   -3.1630    2.2660 hc        1 MXZ      0.052033
     26 H6C3       -2.0530   -2.0900    2.5320 hc        1 MXZ      0.052033
@<TRIPOS>BOND
     1    1    2 1   
     2    1    6 1   
     3    1   10 1   
     4    1   13 1   
     5    2    3 1   
     6    2    7 1   
     7    2   14 1   
     8    3    4 1   
     9    3    8 1   
    10    3   15 1   
    11    4    5 1   
    12    4    9 1   
    13    4   16 1   
    14    5   10 1   
    15    5   12 1   
    16    5   17 1   
    17    6   18 1   
    18    7   11 1   
    19    8   19 1   
    20    9   20 1   
    21   11   21 1   
    22   11   22 1   
    23   11   23 1   
    24   12   24 1   
    25   12   25 1   
    26   12   26 1   
@<TRIPOS>SUBSTRUCTURE
     1 MXZ         1 TEMP              0 ****  ****    0 ROOT
