@<TRIPOS>MOLECULE
MXZ
   26    26     1     0     0
SMALL
bcc


@<TRIPOS>ATOM
      1 C1          1.2030   -0.4610    0.3160 c3        1 MXZ      0.299900
      2 C2         -0.1840   -0.2540    0.9580 c3        1 MXZ      0.096100
      3 C3         -1.0110    0.8000    0.1980 c3        1 MXZ      0.122100
      4 C4         -0.9740    0.5040   -1.3140 c3        1 MXZ      0.077100
      5 C5          0.4800    0.4140   -1.7900 c3        1 MXZ      0.109100
      6 O1          1.9960    0.6780    0.5290 oh        1 MXZ     -0.601800
      7 O2         -0.0670    0.2180    2.2910 os        1 MXZ     -0.378600
      8 O3         -2.3430    0.8270    0.6600 oh        1 MXZ     -0.574800
      9 O4         -1.7080   -0.6780   -1.5860 oh        1 MXZ     -0.597800
     10 O5          1.1440   -0.6470   -1.0880 os        1 MXZ     -0.458600
     11 CM          0.3830   -0.7670    3.2070 c3        1 MXZ      0.110700
     12 C6          0.5800    0.0810   -3.2640 c3        1 MXZ     -0.092100
     13 H1C1        1.6960   -1.3990    0.7020 h2        1 MXZ      0.068700
     14 H2         -0.7210   -1.2440    0.9370 h1        1 MXZ      0.047700
     15 H3         -0.6010    1.8250    0.4180 h1        1 MXZ      0.110700
     16 H4         -1.5240    1.3130   -1.8690 h1        1 MXZ      0.097700
     17 H5          1.0030    1.3840   -1.5600 h1        1 MXZ      0.068700
     18 H1          2.8550    0.5070    0.1210 ho        1 MXZ      0.415000
     19 HA         -2.7750    0.0220    0.3400 ho        1 MXZ      0.409000
     20 HB         -1.1260   -1.4260   -1.3940 ho        1 MXZ      0.410000
     21 HMC1        0.3440   -0.2520    4.2000 h1        1 MXZ      0.036033
     22 HMC2       -0.2930   -1.6580    3.2010 h1        1 MXZ      0.036033
     23 HMC3        1.4300   -1.0770    2.9690 h1        1 MXZ      0.036033
     24 H6C1        1.6430   -0.1110   -3.5430 hc        1 MXZ      0.051700
     25 H6C2       -0.0220   -0.8310   -3.4970 hc        1 MXZ      0.051700
     26 H6C3        0.1880    0.9380   -3.8620 hc        1 MXZ      0.051700
@<TRIPOS>BOND
     1    1    2 1   
     2    1    6 1   
     3    1   10 1   
     4    1   13 1   
     5    2    3 1   
     6    2    7 1   
     7    2   14 1   
     8    3    4 1   
     9    3    8 1   
    10    3   15 1   
    11    4    5 1   
    12    4    9 1   
    13    4   16 1   
    14    5   10 1   
    15    5   12 1   
    16    5   17 1   
    17    6   18 1   
    18    7   11 1   
    19    8   19 1   
    20    9   20 1   
    21   11   21 1   
    22   11   22 1   
    23   11   23 1   
    24   12   24 1   
    25   12   25 1   
    26   12   26 1   
@<TRIPOS>SUBSTRUCTURE
     1 MXZ         1 TEMP              0 ****  ****    0 ROOT
