@<TRIPOS>MOLECULE
MXZ
   26    26     1     0     0
SMALL
bcc


@<TRIPOS>ATOM
      1 C1          0.0780   -0.0410   -0.0340 c3        1 MXZ      0.309900
      2 C2          1.6100   -0.1090    0.0720 c3        1 MXZ      0.092100
      3 C3          2.0340   -0.0370    1.5460 c3        1 MXZ      0.112100
      4 C4          1.3340   -1.1620    2.3270 c3        1 MXZ      0.122100
      5 C5         -0.1860   -1.0560    2.1280 c3        1 MXZ      0.150100
      6 O1         -0.3760    1.2010    0.4490 oh        1 MXZ     -0.614800
      7 O2          2.2570    0.9780   -0.5770 os        1 MXZ     -0.412600
      8 O3          3.4290   -0.2530    1.6830 oh        1 MXZ     -0.611800
      9 O4          1.7640   -2.4390    1.8890 oh        1 MXZ     -0.592800
     10 O5         -0.5630   -1.0300    0.7470 os        1 MXZ     -0.438600
     11 CM          2.1770    0.9290   -1.9920 c3        1 MXZ      0.115700
     12 C6         -0.9150   -2.2360    2.7390 c3        1 MXZ     -0.088100
     13 H1C1       -0.2750   -0.2370   -1.0870 h2        1 MXZ      0.070700
     14 H2          1.9450   -1.0890   -0.3730 h1        1 MXZ      0.074700
     15 H3          1.7540    0.9680    1.9680 h1        1 MXZ      0.075700
     16 H4          1.5720   -1.0490    3.4220 h1        1 MXZ      0.054700
     17 H5         -0.5210   -0.0860    2.5980 h1        1 MXZ      0.049700
     18 H1         -1.3410    1.1840    0.4140 ho        1 MXZ      0.416000
     19 HA          3.8650    0.3970    1.1160 ho        1 MXZ      0.427000
     20 HB          2.7310   -2.4250    1.9110 ho        1 MXZ      0.420000
     21 HMC1        1.1190    1.0600   -2.3280 h1        1 MXZ      0.037700
     22 HMC2        2.5890   -0.0340   -2.3820 h1        1 MXZ      0.037700
     23 HMC3        2.8030    1.7920   -2.3310 h1        1 MXZ      0.037700
     24 H6C1       -2.0100   -2.1520    2.5450 hc        1 MXZ      0.052033
     25 H6C2       -0.5400   -3.1880    2.2900 hc        1 MXZ      0.052033
     26 H6C3       -0.7310   -2.2520    3.8380 hc        1 MXZ      0.052033
@<TRIPOS>BOND
     1    1    2 1   
     2    1    6 1   
     3    1   10 1   
     4    1   13 1   
     5    2    3 1   
     6    2    7 1   
     7    2   14 1   
     8    3    4 1   
     9    3    8 1   
    10    3   15 1   
    11    4    5 1   
    12    4    9 1   
    13    4   16 1   
    14    5   10 1   
    15    5   12 1   
    16    5   17 1   
    17    6   18 1   
    18    7   11 1   
    19    8   19 1   
    20    9   20 1   
    21   11   21 1   
    22   11   22 1   
    23   11   23 1   
    24   12   24 1   
    25   12   25 1   
    26   12   26 1   
@<TRIPOS>SUBSTRUCTURE
     1 MXZ         1 TEMP              0 ****  ****    0 ROOT
