@<TRIPOS>MOLECULE
MY0
   22    21     1     0     0
SMALL
bcc


@<TRIPOS>ATOM
      1 N           1.3390    1.1480   -1.3310 n3        1 MY0     -0.630800
      2 N5          1.3970    0.4140   -0.1750 n         1 MY0     -0.363200
      3 O          -4.4500   -0.2690   -0.5890 o         1 MY0     -0.850800
      4 O4          0.2780   -0.3270    1.6720 o         1 MY0     -0.648100
      5 O7          4.9620    0.0060    0.1830 o         1 MY0     -0.855800
      6 O8          3.9960    1.6740   -0.9290 o         1 MY0     -0.855800
      7 O2         -2.3580   -1.7550    0.0550 oh        1 MY0     -0.638800
      8 C3         -1.1270    0.3040   -0.2070 c3        1 MY0     -0.136400
      9 C5          2.6300    0.3530    0.6100 c3        1 MY0     -0.049000
     10 C          -3.6220    0.3380    0.1570 c         1 MY0      0.888600
     11 C4          0.1950    0.1140    0.5050 c         1 MY0      0.676100
     12 C6          3.9500    0.7010   -0.1190 c         1 MY0      0.903600
     13 C2         -2.2970   -0.4000    0.4760 c3        1 MY0      0.023100
     14 H           1.7520    2.0630   -1.1570 hn        1 MY0      0.344300
     15 HO2        -3.0630   -1.8090   -0.6100 ho        1 MY0      0.410000
     16 H3         -1.3410    1.4070   -0.2310 hc        1 MY0      0.072200
     17 H3A        -1.0530   -0.0660   -1.2620 hc        1 MY0      0.072200
     18 H5          2.5460    1.0510    1.4910 h1        1 MY0      0.037200
     19 H5A         2.7080   -0.6940    1.0120 h1        1 MY0      0.037200
     20 H20        -2.1340   -0.4320    1.5880 h1        1 MY0      0.068700
     21 H2          1.9710    0.7030   -1.9910 hn        1 MY0      0.344300
     22 OXT        -3.8260    1.4800    0.6510 o         1 MY0     -0.850800
@<TRIPOS>BOND
     1    1    2 1   
     2    1   14 1   
     3    1   21 1   
     4    2    9 1   
     5    2   11 1   
     6    3   10 1   
     7    4   11 2   
     8    5   12 1   
     9    6   12 1   
    10    7   13 1   
    11    7   15 1   
    12    8   11 1   
    13    8   13 1   
    14    8   16 1   
    15    8   17 1   
    16    9   12 1   
    17    9   18 1   
    18    9   19 1   
    19   10   13 1   
    20   10   22 1   
    21   13   20 1   
@<TRIPOS>SUBSTRUCTURE
     1 MY0         1 TEMP              0 ****  ****    0 ROOT
