@<TRIPOS>MOLECULE
MY0
   22    20     1     0     0
SMALL
bcc


@<TRIPOS>ATOM
      1 N          -1.4220   -1.0910    1.4850 n3        1 MY0     -0.190000
      2 N5         -0.4110   -0.1040    1.3930 n         1 MY0     -0.289000
      3 O          -0.9920    0.1140   -4.2520 o         1 MY0     -0.585000
      4 O4          1.2960    0.7100    0.1090 o         1 MY0     -0.409000
      5 O7          1.0120   -0.7190    4.0940 o         1 MY0     -0.590500
      6 O8          2.2360    0.7390    3.0280 o         1 MY0     -0.590500
      7 O2          0.6680    1.3990   -2.5040 oh        1 MY0     -0.367000
      8 C3         -0.4910   -0.1870   -1.1540 c3        1 MY0     -0.167000
      9 C5         -0.1220    0.7390    2.5300 c3        1 MY0     -0.115000
     10 C          -0.1560   -0.5660   -3.5680 c1        1 MY0      0.308000
     11 C4          0.2240    0.1490    0.1400 c2        1 MY0      0.320000
     12 C6          1.1180    0.2170    3.2480 c2        1 MY0      0.322000
     13 C2          0.4510    0.0220   -2.3180 c2        1 MY0     -0.038000
     14 H          -2.2000   -0.7050    1.7970 hn        1 MY0      0.139500
     15 HO2         1.4000    1.5210   -3.0180 ho        1 MY0      0.210000
     16 H3         -1.2590    0.3880   -1.2560 hc        1 MY0      0.111500
     17 H3A        -0.7820   -1.1160   -1.1330 hc        1 MY0      0.111500
     18 H5         -0.8860    0.7310    3.1470 h1        1 MY0      0.077000
     19 H5A         0.0420    1.6680    2.2200 h1        1 MY0      0.077000
     20 H20         1.2870   -0.4120   -2.1340 h4        1 MY0      0.108000
     21 H2         -1.1520   -1.7570    2.0680 hn        1 MY0      0.139500
     22 OXT         0.1420   -1.7400   -3.9230 o         1 MY0     -0.585000
@<TRIPOS>BOND
     1    1    2 1   
     2    1   14 1   
     3    1   21 1   
     4    2    9 1   
     5    2   11 1   
     6    3   10 1   
     7    4   11 1   
     8    5   12 1   
     9    6   12 1   
    10    7   13 1   
    11    7   15 1   
    12    8   11 1   
    13    8   13 1   
    14    8   16 1   
    15    8   17 1   
    16    9   12 1   
    17    9   18 1   
    18    9   19 1   
    19   10   22 1   
    20   13   20 1   
@<TRIPOS>SUBSTRUCTURE
     1 MY0         1 TEMP              0 ****  ****    0 ROOT
