@<TRIPOS>MOLECULE
MY1
   53    54     1     0     0
SMALL
bcc


@<TRIPOS>ATOM
      1 C1          0.4200    0.3150   -0.4790 c         1 MY1      0.640100
      2 N2          0.7440   -0.8380    0.3610 n         1 MY1     -0.355200
      3 O3          0.5530    1.4450   -0.0200 o         1 MY1     -0.432100
      4 N4         -0.1510   -1.9150    0.3500 n4        1 MY1     -0.611600
      5 C5          1.3520   -0.5270    1.6610 c3        1 MY1     -0.021000
      6 C6          0.4460   -0.1370    2.8050 c         1 MY1      0.601100
      7 O7          0.7070    0.6160    3.7320 o         1 MY1     -0.421000
      8 O8         -0.7810   -0.7430    2.7920 oh        1 MY1     -0.684100
      9 C9          0.0800    0.0630   -1.9320 c3        1 MY1     -0.169400
     10 C10        -1.4200    0.2640   -2.1680 c3        1 MY1      0.107100
     11 O11        -2.0760   -0.6910   -1.3550 oh        1 MY1     -0.631800
     12 C12        -1.7280   -0.0550   -3.6390 c         1 MY1      0.493100
     13 N13        -2.1630    1.0320   -4.5690 n4        1 MY1     -0.596200
     14 O14        -1.6380   -1.1820   -4.1090 o         1 MY1     -0.398100
     15 C15        -1.4600    2.3450   -4.3170 c3        1 MY1      0.179600
     16 C16        -3.6680    1.1810   -4.5920 c3        1 MY1      0.179600
     17 C17        -4.3200    1.3040   -3.2600 ca        1 MY1     -0.198300
     18 C18        -4.4860    2.5610   -2.6640 ca        1 MY1     -0.113250
     19 C19        -5.2170    2.6840   -1.4820 ca        1 MY1     -0.115000
     20 C20        -5.7940    1.5560   -0.8950 ca        1 MY1     -0.069500
     21 C21        -5.6360    0.3020   -1.4900 ca        1 MY1     -0.115000
     22 C22        -4.9060    0.1740   -2.6700 ca        1 MY1     -0.113250
     23 C23        -1.4110    3.1720   -5.5530 ca        1 MY1     -0.198300
     24 C24        -2.2890    4.2510   -5.7160 ca        1 MY1     -0.113250
     25 C25        -2.2020    5.0510   -6.8530 ca        1 MY1     -0.115000
     26 C26        -1.2460    4.7750   -7.8330 ca        1 MY1     -0.069500
     27 C27        -0.3710    3.6970   -7.6740 ca        1 MY1     -0.115000
     28 C28        -0.4510    2.8960   -6.5370 ca        1 MY1     -0.113250
     29 H4N1        0.3740   -2.7550    0.6510 hn        1 MY1      0.484133
     30 H4N2       -0.5100   -2.0560   -0.6100 hn        1 MY1      0.484133
     31 H5C1        2.0700    0.3330    1.4800 h1        1 MY1      0.149700
     32 H5C2        1.9610   -1.4210    1.9960 h1        1 MY1      0.149700
     33 H9C1        0.3970   -0.9560   -2.2830 hc        1 MY1      0.119700
     34 H9C2        0.6600    0.8200   -2.5330 hc        1 MY1      0.119700
     35 H10        -1.7450    1.3080   -1.8950 h1        1 MY1      0.113700
     36 H11        -3.0350   -0.5210   -1.3900 ho        1 MY1      0.471000
     37 H151       -0.4130    2.1050   -3.9720 hx        1 MY1      0.109450
     38 H152       -2.0100    2.8820   -3.4910 hx        1 MY1      0.109450
     39 H161       -4.0720    0.2750   -5.1370 hx        1 MY1      0.109450
     40 H162       -3.8780    2.1040   -5.2150 hx        1 MY1      0.109450
     41 H18        -4.0790    3.4650   -3.1440 ha        1 MY1      0.140000
     42 H19        -5.3600    3.6780   -1.0260 ha        1 MY1      0.169750
     43 H20        -6.3950    1.6590    0.0250 ha        1 MY1      0.174000
     44 H21        -6.1240   -0.5820   -1.0470 ha        1 MY1      0.169750
     45 H22        -4.8380   -0.8090   -3.1650 ha        1 MY1      0.140000
     46 H24        -3.0370    4.4820   -4.9420 ha        1 MY1      0.140000
     47 H25        -2.8870    5.9070   -6.9770 ha        1 MY1      0.169750
     48 H26        -1.1770    5.4120   -8.7320 ha        1 MY1      0.174000
     49 H27         0.3870    3.4840   -8.4450 ha        1 MY1      0.169750
     50 H28         0.2550    2.0610   -6.4090 ha        1 MY1      0.140000
     51 H211       -1.2890   -0.4980    3.5890 ho        1 MY1      0.496000
     52 H43        -0.9570   -1.7660    0.9950 hn        1 MY1      0.484133
     53 H131       -1.9010    0.7350   -5.5290 hn        1 MY1      0.473800
@<TRIPOS>BOND
     1    1    2 1   
     2    1    3 2   
     3    1    9 1   
     4    2    4 1   
     5    2    5 1   
     6    4   29 1   
     7    4   30 1   
     8    4   52 1   
     9    5    6 1   
    10    5   31 1   
    11    5   32 1   
    12    6    7 2   
    13    6    8 1   
    14    8   51 1   
    15    9   10 1   
    16    9   33 1   
    17    9   34 1   
    18   10   11 1   
    19   10   12 1   
    20   10   35 1   
    21   11   36 1   
    22   12   13 1   
    23   12   14 2   
    24   13   15 1   
    25   13   16 1   
    26   13   53 1   
    27   15   23 1   
    28   15   37 1   
    29   15   38 1   
    30   16   17 1   
    31   16   39 1   
    32   16   40 1   
    33   17   18 ar  
    34   17   22 ar  
    35   18   19 ar  
    36   18   41 1   
    37   19   20 ar  
    38   19   42 1   
    39   20   21 ar  
    40   20   43 1   
    41   21   22 ar  
    42   21   44 1   
    43   22   45 1   
    44   23   24 ar  
    45   23   28 ar  
    46   24   25 ar  
    47   24   46 1   
    48   25   26 ar  
    49   25   47 1   
    50   26   27 ar  
    51   26   48 1   
    52   27   28 ar  
    53   27   49 1   
    54   28   50 1   
@<TRIPOS>SUBSTRUCTURE
     1 MY1         1 TEMP              0 ****  ****    0 ROOT
