@<TRIPOS>MOLECULE
MY1
   53    54     1     0     0
SMALL
bcc


@<TRIPOS>ATOM
      1 C1          0.4350    0.3450   -0.4800 c         1 MY1      0.640100
      2 N2          0.7940   -0.8170    0.3340 n         1 MY1     -0.356200
      3 O3          0.5230    1.4670    0.0090 o         1 MY1     -0.432100
      4 N4         -0.0610   -1.9240    0.2880 n4        1 MY1     -0.611600
      5 C5          1.3800   -0.5180    1.6460 c3        1 MY1     -0.021000
      6 C6          0.4510   -0.1900    2.7920 c         1 MY1      0.601100
      7 O7          0.6780    0.5480    3.7400 o         1 MY1     -0.421000
      8 O8         -0.7520   -0.8400    2.7530 oh        1 MY1     -0.684100
      9 C9          0.1170    0.1180   -1.9410 c3        1 MY1     -0.169400
     10 C10        -1.3880    0.2710   -2.1860 c3        1 MY1      0.107100
     11 O11        -2.0150   -0.7270   -1.4030 oh        1 MY1     -0.631800
     12 C12        -1.6730   -0.0210   -3.6660 c         1 MY1      0.493100
     13 N13        -2.1400    1.0730   -4.5730 n4        1 MY1     -0.596200
     14 O14        -1.5380   -1.1320   -4.1640 o         1 MY1     -0.398100
     15 C15        -1.4860    2.4040   -4.2820 c3        1 MY1      0.179600
     16 C16        -3.6490    1.1670   -4.6060 c3        1 MY1      0.179600
     17 C17        -4.3150    1.2340   -3.2770 ca        1 MY1     -0.198300
     18 C18        -4.5320    2.4680   -2.6510 ca        1 MY1     -0.113500
     19 C19        -5.2760    2.5340   -1.4730 ca        1 MY1     -0.115000
     20 C20        -5.8160    1.3730   -0.9190 ca        1 MY1     -0.069500
     21 C21        -5.6080    0.1400   -1.5440 ca        1 MY1     -0.115000
     22 C22        -4.8650    0.0690   -2.7210 ca        1 MY1     -0.113500
     23 C23        -1.4570    3.2630   -5.4970 ca        1 MY1     -0.198300
     24 C24        -2.3730    4.3120   -5.6400 ca        1 MY1     -0.113500
     25 C25        -2.3060    5.1440   -6.7570 ca        1 MY1     -0.115000
     26 C26        -1.3320    4.9280   -7.7340 ca        1 MY1     -0.069500
     27 C27        -0.4200    3.8780   -7.5940 ca        1 MY1     -0.115000
     28 C28        -0.4800    3.0460   -6.4780 ca        1 MY1     -0.113500
     29 H4N1       -0.4070   -2.0540   -0.6790 hn        1 MY1      0.484133
     30 H4N2        0.4920   -2.7520    0.5710 hn        1 MY1      0.484133
     31 H5C1        2.0190   -1.3970    1.9640 h1        1 MY1      0.149700
     32 H5C2        2.0680    0.3720    1.4940 h1        1 MY1      0.149700
     33 H9C1        0.6730    0.9120   -2.5170 hc        1 MY1      0.119700
     34 H9C2        0.4720   -0.8790   -2.3150 hc        1 MY1      0.119700
     35 H10        -1.7530    1.2960   -1.8890 h1        1 MY1      0.113700
     36 H11        -2.9790   -0.5920   -1.4420 ho        1 MY1      0.471000
     37 H151       -0.4340    2.1920   -3.9340 hx        1 MY1      0.109450
     38 H152       -2.0620    2.8990   -3.4480 hx        1 MY1      0.109450
     39 H161       -3.8870    2.0980   -5.2080 hx        1 MY1      0.109450
     40 H162       -4.0150    0.2620   -5.1760 hx        1 MY1      0.109450
     41 H18        -4.1540    3.3980   -3.1050 ha        1 MY1      0.140000
     42 H19        -5.4590    3.5110   -0.9940 ha        1 MY1      0.169750
     43 H20        -6.4270    1.4310   -0.0020 ha        1 MY1      0.174000
     44 H21        -6.0660   -0.7720   -1.1280 ha        1 MY1      0.169750
     45 H22        -4.7560   -0.8980   -3.2390 ha        1 MY1      0.140000
     46 H24        -3.1350    4.4970   -4.8670 ha        1 MY1      0.140000
     47 H25        -3.0200    5.9780   -6.8650 ha        1 MY1      0.169750
     48 H26        -1.2790    5.5900   -8.6160 ha        1 MY1      0.174000
     49 H27         0.3520    3.7120   -8.3640 ha        1 MY1      0.169750
     50 H28         0.2550    2.2350   -6.3650 ha        1 MY1      0.140000
     51 H211       -1.2750   -0.6340    3.5520 ho        1 MY1      0.496000
     52 H43        -0.8760   -1.8210    0.9290 hn        1 MY1      0.484133
     53 H131       -1.8590    0.8090   -5.5380 hn        1 MY1      0.473800
@<TRIPOS>BOND
     1    1    2 1   
     2    1    3 2   
     3    1    9 1   
     4    2    4 1   
     5    2    5 1   
     6    4   29 1   
     7    4   30 1   
     8    4   52 1   
     9    5    6 1   
    10    5   31 1   
    11    5   32 1   
    12    6    7 2   
    13    6    8 1   
    14    8   51 1   
    15    9   10 1   
    16    9   33 1   
    17    9   34 1   
    18   10   11 1   
    19   10   12 1   
    20   10   35 1   
    21   11   36 1   
    22   12   13 1   
    23   12   14 2   
    24   13   15 1   
    25   13   16 1   
    26   13   53 1   
    27   15   23 1   
    28   15   37 1   
    29   15   38 1   
    30   16   17 1   
    31   16   39 1   
    32   16   40 1   
    33   17   18 ar  
    34   17   22 ar  
    35   18   19 ar  
    36   18   41 1   
    37   19   20 ar  
    38   19   42 1   
    39   20   21 ar  
    40   20   43 1   
    41   21   22 ar  
    42   21   44 1   
    43   22   45 1   
    44   23   24 ar  
    45   23   28 ar  
    46   24   25 ar  
    47   24   46 1   
    48   25   26 ar  
    49   25   47 1   
    50   26   27 ar  
    51   26   48 1   
    52   27   28 ar  
    53   27   49 1   
    54   28   50 1   
@<TRIPOS>SUBSTRUCTURE
     1 MY1         1 TEMP              0 ****  ****    0 ROOT
