@<TRIPOS>MOLECULE
MY1
   53    54     1     0     0
SMALL
bcc


@<TRIPOS>ATOM
      1 C1          0.4280    0.3200   -0.4850 c         1 MY1      0.640100
      2 N2          0.7530   -0.8300    0.3590 n         1 MY1     -0.355200
      3 O3          0.5640    1.4520   -0.0300 o         1 MY1     -0.432100
      4 N4         -0.1440   -1.9050    0.3560 nz        1 MY1     -0.611600
      5 C5          1.3660   -0.5150    1.6550 c3        1 MY1     -0.021000
      6 C6          0.4650   -0.1180    2.8010 c         1 MY1      0.601100
      7 O7          0.7310    0.6380    3.7240 o         1 MY1     -0.421000
      8 O8         -0.7620   -0.7240    2.7960 oh        1 MY1     -0.684100
      9 C9          0.0820    0.0630   -1.9350 c3        1 MY1     -0.169400
     10 C10        -1.4190    0.2650   -2.1660 c3        1 MY1      0.107100
     11 O11        -2.0730   -0.6850   -1.3470 oh        1 MY1     -0.631800
     12 C12        -1.7340   -0.0590   -3.6340 c         1 MY1      0.493100
     13 N13        -2.1710    1.0240   -4.5670 nx        1 MY1     -0.596200
     14 O14        -1.6470   -1.1880   -4.1000 o         1 MY1     -0.398100
     15 C15        -1.4650    2.3380   -4.3220 c3        1 MY1      0.179600
     16 C16        -3.6760    1.1750   -4.5850 c3        1 MY1      0.179600
     17 C17        -4.3230    1.3050   -3.2510 ca        1 MY1     -0.198300
     18 C18        -4.4860    2.5640   -2.6600 ca        1 MY1     -0.113500
     19 C19        -5.2120    2.6930   -1.4760 ca        1 MY1     -0.115000
     20 C20        -5.7870    1.5690   -0.8810 ca        1 MY1     -0.069500
     21 C21        -5.6330    0.3120   -1.4720 ca        1 MY1     -0.115000
     22 C22        -4.9080    0.1780   -2.6540 ca        1 MY1     -0.113500
     23 C23        -1.4200    3.1590   -5.5630 ca        1 MY1     -0.198300
     24 C24        -2.2980    4.2380   -5.7260 ca        1 MY1     -0.113500
     25 C25        -2.2140    5.0340   -6.8680 ca        1 MY1     -0.115000
     26 C26        -1.2620    4.7530   -7.8490 ca        1 MY1     -0.069500
     27 C27        -0.3880    3.6750   -7.6890 ca        1 MY1     -0.115000
     28 C28        -0.4640    2.8780   -6.5490 ca        1 MY1     -0.113500
     29 H4N1       -0.9460   -1.7520    1.0040 hn        1 MY1      0.484133
     30 H4N2        0.3820   -2.7450    0.6580 hn        1 MY1      0.484133
     31 H5C1        1.9760   -1.4080    1.9910 h1        1 MY1      0.149700
     32 H5C2        2.0850    0.3440    1.4680 h1        1 MY1      0.149700
     33 H9C1        0.6600    0.8170   -2.5410 hc        1 MY1      0.119700
     34 H9C2        0.3950   -0.9580   -2.2830 hc        1 MY1      0.119700
     35 H10        -1.7420    1.3110   -1.8950 h1        1 MY1      0.113700
     36 H11        -3.0320   -0.5150   -1.3780 ho        1 MY1      0.471000
     37 H151       -0.4180    2.0980   -3.9810 hx        1 MY1      0.109450
     38 H152       -2.0130    2.8790   -3.4980 hx        1 MY1      0.109450
     39 H161       -3.8870    2.0950   -5.2110 hx        1 MY1      0.109450
     40 H162       -4.0830    0.2670   -5.1240 hx        1 MY1      0.109450
     41 H18        -4.0800    3.4660   -3.1460 ha        1 MY1      0.140000
     42 H19        -5.3530    3.6900   -1.0240 ha        1 MY1      0.169750
     43 H20        -6.3850    1.6770    0.0410 ha        1 MY1      0.174000
     44 H21        -6.1200   -0.5700   -1.0220 ha        1 MY1      0.169750
     45 H22        -4.8420   -0.8070   -3.1440 ha        1 MY1      0.140000
     46 H24        -3.0430    4.4740   -4.9510 ha        1 MY1      0.140000
     47 H25        -2.8980    5.8900   -6.9920 ha        1 MY1      0.169750
     48 H26        -1.1960    5.3860   -8.7510 ha        1 MY1      0.174000
     49 H27         0.3680    3.4580   -8.4630 ha        1 MY1      0.169750
     50 H28         0.2410    2.0430   -6.4200 ha        1 MY1      0.140000
     51 H211       -1.2660   -0.4750    3.5940 ho        1 MY1      0.496000
     52 H43        -0.5070   -2.0500   -0.6020 hn        1 MY1      0.484133
     53 H131       -1.9130    0.7230   -5.5270 hn        1 MY1      0.473800
@<TRIPOS>BOND
     1    1    2 1   
     2    1    3 2   
     3    1    9 1   
     4    2    4 1   
     5    2    5 1   
     6    4   29 1   
     7    4   30 1   
     8    4   52 1   
     9    5    6 1   
    10    5   31 1   
    11    5   32 1   
    12    6    7 2   
    13    6    8 1   
    14    8   51 1   
    15    9   10 1   
    16    9   33 1   
    17    9   34 1   
    18   10   11 1   
    19   10   12 1   
    20   10   35 1   
    21   11   36 1   
    22   12   13 1   
    23   12   14 2   
    24   13   15 1   
    25   13   16 1   
    26   13   53 1   
    27   15   23 1   
    28   15   37 1   
    29   15   38 1   
    30   16   17 1   
    31   16   39 1   
    32   16   40 1   
    33   17   18 ar  
    34   17   22 ar  
    35   18   19 ar  
    36   18   41 1   
    37   19   20 ar  
    38   19   42 1   
    39   20   21 ar  
    40   20   43 1   
    41   21   22 ar  
    42   21   44 1   
    43   22   45 1   
    44   23   24 ar  
    45   23   28 ar  
    46   24   25 ar  
    47   24   46 1   
    48   25   26 ar  
    49   25   47 1   
    50   26   27 ar  
    51   26   48 1   
    52   27   28 ar  
    53   27   49 1   
    54   28   50 1   
@<TRIPOS>SUBSTRUCTURE
     1 MY1         1 TEMP              0 ****  ****    0 ROOT
