@<TRIPOS>MOLECULE
MY1
   50    51     1     0     0
SMALL
bcc


@<TRIPOS>ATOM
      1 C1          2.4900    0.3060    0.0570 c         1 MY1      0.624100
      2 N2          3.4860    1.1380   -0.5780 n         1 MY1     -0.246200
      3 O3          2.0010    0.6650    1.1460 o         1 MY1     -0.618100
      4 N4          3.8330    0.8810   -1.8820 n3        1 MY1     -0.676800
      5 C5          4.6710    1.2690    0.3060 c3        1 MY1     -0.081000
      6 C6          5.5640   -0.0010    0.3850 c         1 MY1      0.898600
      7 O7          6.6440    0.1030    1.0190 o         1 MY1     -0.841300
      8 O8          5.1570   -1.0580   -0.1870 o         1 MY1     -0.841300
      9 C9          2.0100   -0.9610   -0.6190 c3        1 MY1     -0.231400
     10 C10         0.8110   -1.5950    0.0780 c3        1 MY1      0.104100
     11 O11         0.8910   -3.0080    0.0380 oh        1 MY1     -0.586800
     12 C12        -0.4860   -1.2030   -0.6550 c         1 MY1      0.629100
     13 N13        -1.3620   -0.2380   -0.1930 n         1 MY1     -0.449800
     14 O14        -0.7380   -1.8130   -1.7230 o         1 MY1     -0.651100
     15 C15        -1.2050    0.4410    1.0740 c3        1 MY1      0.124300
     16 C16        -2.6020   -0.0230   -0.9120 c3        1 MY1      0.124300
     17 C17        -3.7660   -0.8590   -0.4540 ca        1 MY1     -0.101800
     18 C18        -4.9210   -0.2470    0.0440 ca        1 MY1     -0.115250
     19 C19        -6.0150   -1.0220    0.4270 ca        1 MY1     -0.138750
     20 C20        -5.9620   -2.4110    0.3190 ca        1 MY1     -0.133500
     21 C21        -4.8120   -3.0250   -0.1780 ca        1 MY1     -0.138750
     22 C22        -3.7180   -2.2530   -0.5660 ca        1 MY1     -0.115250
     23 C23        -1.4360    1.9280    1.0240 ca        1 MY1     -0.101800
     24 C24        -2.6930    2.4610    1.3280 ca        1 MY1     -0.115250
     25 C25        -2.8900    3.8410    1.3270 ca        1 MY1     -0.138750
     26 C26        -1.8320    4.6970    1.0210 ca        1 MY1     -0.133500
     27 C27        -0.5760    4.1700    0.7230 ca        1 MY1     -0.138750
     28 C28        -0.3740    2.7890    0.7270 ca        1 MY1     -0.115250
     29 H4N1        4.4180    0.0480   -1.9540 hn        1 MY1      0.347800
     30 H4N2        2.9940    0.7170   -2.4200 hn        1 MY1      0.347800
     31 H5C1        5.2900    2.1260   -0.0700 h1        1 MY1      0.064700
     32 H5C2        4.2970    1.5160    1.3340 h1        1 MY1      0.064700
     33 H9C1        1.7610   -0.8020   -1.6990 hc        1 MY1      0.107200
     34 H9C2        2.8930   -1.6710   -0.5590 hc        1 MY1      0.107200
     35 H10         0.8000   -1.3550    1.1780 h1        1 MY1      0.116700
     36 H11         0.9180   -3.2730   -0.8920 ho        1 MY1      0.416000
     37 H151       -1.9350   -0.0090    1.8120 h1        1 MY1      0.072700
     38 H152       -0.1580    0.2790    1.4670 h1        1 MY1      0.072700
     39 H161       -2.8710    1.0700   -0.8220 h1        1 MY1      0.072700
     40 H162       -2.4220   -0.2520   -2.0050 h1        1 MY1      0.072700
     41 H18        -4.9680    0.8490    0.1320 ha        1 MY1      0.148250
     42 H19        -6.9200   -0.5350    0.8170 ha        1 MY1      0.126750
     43 H20        -6.8230   -3.0210    0.6250 ha        1 MY1      0.122000
     44 H21        -4.7660   -4.1200   -0.2650 ha        1 MY1      0.126750
     45 H22        -2.8080   -2.7300   -0.9690 ha        1 MY1      0.148250
     46 H24        -3.5280    1.7860    1.5740 ha        1 MY1      0.148250
     47 H25        -3.8790    4.2530    1.5700 ha        1 MY1      0.126750
     48 H26        -1.9880    5.7850    1.0190 ha        1 MY1      0.122000
     49 H27         0.2640    4.8400    0.4890 ha        1 MY1      0.126750
     50 H28         0.6280    2.3730    0.5160 ha        1 MY1      0.148250
@<TRIPOS>BOND
     1    1    2 1   
     2    1    3 2   
     3    1    9 1   
     4    2    4 1   
     5    2    5 1   
     6    4   29 1   
     7    4   30 1   
     8    5    6 1   
     9    5   31 1   
    10    5   32 1   
    11    6    7 1   
    12    6    8 1   
    13    9   10 1   
    14    9   33 1   
    15    9   34 1   
    16   10   11 1   
    17   10   12 1   
    18   10   35 1   
    19   11   36 1   
    20   12   13 1   
    21   12   14 2   
    22   13   15 1   
    23   13   16 1   
    24   15   23 1   
    25   15   37 1   
    26   15   38 1   
    27   16   17 1   
    28   16   39 1   
    29   16   40 1   
    30   17   18 ar  
    31   17   22 ar  
    32   18   19 ar  
    33   18   41 1   
    34   19   20 ar  
    35   19   42 1   
    36   20   21 ar  
    37   20   43 1   
    38   21   22 ar  
    39   21   44 1   
    40   22   45 1   
    41   23   24 ar  
    42   23   28 ar  
    43   24   25 ar  
    44   24   46 1   
    45   25   26 ar  
    46   25   47 1   
    47   26   27 ar  
    48   26   48 1   
    49   27   28 ar  
    50   27   49 1   
    51   28   50 1   
@<TRIPOS>SUBSTRUCTURE
     1 MY1         1 TEMP              0 ****  ****    0 ROOT
