@<TRIPOS>MOLECULE
MY2
   38    38     1     0     0
SMALL
bcc


@<TRIPOS>ATOM
      1 C2          0.0090    1.2080   -0.3230 c3        1 MY2     -0.165400
      2 C3          1.2730    0.3440   -0.4110 c3        1 MY2      0.106100
      3 C4          1.7810    0.0010    0.9760 c         1 MY2      0.600100
      4 O5          2.2300   -1.0980    1.2990 o         1 MY2     -0.503000
      5 O6          1.7190    1.0320    1.8470 os        1 MY2     -0.431900
      6 C7         -0.4590    1.5300   -1.7020 c         1 MY2      0.541100
      7 O8          0.0930    2.1880   -2.5660 o         1 MY2     -0.394100
      8 N9         -1.8470    0.9870   -2.1670 n4        1 MY2     -0.378000
      9 C10        -1.8280   -0.5200   -2.2520 c3        1 MY2      0.010800
     10 C12         0.7800    1.8620    4.9080 ca        1 MY2     -0.103500
     11 C13         0.4430    2.9500    5.7120 ca        1 MY2     -0.131000
     12 C14         1.1660    4.1410    5.6170 ca        1 MY2     -0.103000
     13 C15         2.2280    4.2430    4.7180 ca        1 MY2     -0.131000
     14 C16         2.5700    3.1560    3.9150 ca        1 MY2     -0.103500
     15 C17         1.8480    1.9610    4.0090 ca        1 MY2     -0.126300
     16 C18        -2.1710   -1.2670   -0.9770 c         1 MY2      0.645100
     17 C9          2.2390    0.7850    3.1860 c3        1 MY2      0.193700
     18 O19        -2.2270   -2.6150   -1.0200 oh        1 MY2     -0.509100
     19 N16        -2.9730    1.5160   -1.5240 n3        1 MY2     -0.667600
     20 O20        -2.4060   -0.7620    0.1210 o         1 MY2     -0.488000
     21 O57         0.9300   -0.8290   -1.1300 oh        1 MY2     -0.646800
     22 H2C1        0.2790    2.1740    0.1970 hc        1 MY2      0.142200
     23 H2C2       -0.7690    0.6840    0.2970 hc        1 MY2      0.142200
     24 H3          2.0890    0.8900   -0.9690 h1        1 MY2      0.105700
     25 H101       -0.7810   -0.8180   -2.5690 hx        1 MY2      0.143700
     26 H102       -2.5710   -0.8280   -3.0470 hx        1 MY2      0.143700
     27 H15         2.8020    5.1790    4.6470 ha        1 MY2      0.144500
     28 H16         3.4120    3.2320    3.2110 ha        1 MY2      0.136000
     29 H9C1        1.7970   -0.1730    3.5680 h1        1 MY2      0.074700
     30 H9C2        3.3530    0.6820    3.0960 h1        1 MY2      0.074700
     31 H161       -3.1050    1.0970   -0.6060 hn        1 MY2      0.424300
     32 H162       -2.0130   -2.9540   -1.9050 ho        1 MY2      0.452000
     33 H57         1.5140   -1.5500   -0.8360 ho        1 MY2      0.471000
     34 H12         0.2130    0.9220    4.9910 ha        1 MY2      0.136000
     35 H13        -0.3890    2.8670    6.4270 ha        1 MY2      0.144500
     36 H91        -1.9450    1.3070   -3.1600 hn        1 MY2      0.479800
     37 H163       -2.8630    2.5190   -1.4230 hn        1 MY2      0.424300
     38 H14         0.9020    4.9970    6.2570 ha        1 MY2      0.145000
@<TRIPOS>BOND
     1    1    2 1   
     2    1    6 1   
     3    1   22 1   
     4    1   23 1   
     5    2    3 1   
     6    2   21 1   
     7    2   24 1   
     8    3    4 2   
     9    3    5 1   
    10    5   17 1   
    11    6    7 2   
    12    6    8 1   
    13    8    9 1   
    14    8   19 1   
    15    8   36 1   
    16    9   16 1   
    17    9   25 1   
    18    9   26 1   
    19   10   11 ar  
    20   10   15 ar  
    21   10   34 1   
    22   11   12 ar  
    23   11   35 1   
    24   12   13 ar  
    25   12   38 1   
    26   13   14 ar  
    27   13   27 1   
    28   14   15 ar  
    29   14   28 1   
    30   15   17 1   
    31   16   18 1   
    32   16   20 2   
    33   17   29 1   
    34   17   30 1   
    35   18   32 1   
    36   19   31 1   
    37   19   37 1   
    38   21   33 1   
@<TRIPOS>SUBSTRUCTURE
     1 MY2         1 TEMP              0 ****  ****    0 ROOT
