@<TRIPOS>MOLECULE
MY2
   36    36     1     0     0
SMALL
bcc


@<TRIPOS>ATOM
      1 C2         -1.1210    0.9460    1.1290 c3        1 MY2     -0.226400
      2 C3         -0.6520    2.3160    0.6360 c3        1 MY2      0.146100
      3 C4          0.7990    2.4620    1.0780 c         1 MY2      0.602100
      4 O5          1.2380    2.7200    2.2010 o         1 MY2     -0.569000
      5 O6          1.6690    2.2720    0.0440 os        1 MY2     -0.416900
      6 C7         -2.5160    0.6470    0.6110 c         1 MY2      0.614100
      7 O8         -3.3920    1.5240    0.6140 o         1 MY2     -0.559100
      8 N9         -2.8620   -0.7030    0.1790 n         1 MY2     -0.247200
      9 C10        -2.9740   -0.7280   -1.2980 c3        1 MY2     -0.081000
     10 C12         4.6540    0.2030    0.6890 ca        1 MY2     -0.115000
     11 C13         5.0530   -1.1220    0.5250 ca        1 MY2     -0.136000
     12 C14         4.2300   -2.0190   -0.1570 ca        1 MY2     -0.141000
     13 C15         3.0090   -1.5890   -0.6730 ca        1 MY2     -0.136000
     14 C16         2.6050   -0.2620   -0.5150 ca        1 MY2     -0.115000
     15 C17         3.4300    0.6390    0.1670 ca        1 MY2     -0.121300
     16 C18        -1.6340   -0.6720   -2.0720 c         1 MY2      0.897600
     17 C9          3.0570    2.0760    0.3290 c3        1 MY2      0.177700
     18 O19        -0.5740   -0.3680   -1.4320 o         1 MY2     -0.850300
     19 N16        -2.1120   -1.7440    0.6760 n3        1 MY2     -0.671800
     20 O20        -1.6590   -0.9300   -3.3000 o         1 MY2     -0.850300
     21 O57        -0.7710    2.4830   -0.7500 oh        1 MY2     -0.593800
     22 H2C1       -1.1260    0.9290    2.2480 hc        1 MY2      0.086700
     23 H2C2       -0.3830    0.1870    0.7450 hc        1 MY2      0.086700
     24 H3         -1.2590    3.1480    1.0940 h1        1 MY2      0.098700
     25 H101       -3.5160   -1.6700   -1.5830 h1        1 MY2      0.067700
     26 H102       -3.6020    0.1520   -1.5990 h1        1 MY2      0.067700
     27 H14         4.5450   -3.0640   -0.2850 ha        1 MY2      0.118000
     28 H15         2.3510   -2.2880   -1.2120 ha        1 MY2      0.132500
     29 H16         1.6270    0.0640   -0.9280 ha        1 MY2      0.160500
     30 H9C1        3.5830    2.7000   -0.4460 h1        1 MY2      0.064700
     31 H9C2        3.3130    2.4480    1.3560 h1        1 MY2      0.064700
     32 H161       -1.2240   -1.8390    0.1850 hn        1 MY2      0.340800
     33 H162       -1.8990   -1.5560    1.6470 hn        1 MY2      0.340800
     34 H57        -0.4650    1.6650   -1.1900 ho        1 MY2      0.468000
     35 H12         5.3000    0.9080    1.2300 ha        1 MY2      0.160500
     36 H13         6.0140   -1.4600    0.9360 ha        1 MY2      0.132500
@<TRIPOS>BOND
     1    1    2 1   
     2    1    6 1   
     3    1   22 1   
     4    1   23 1   
     5    2    3 1   
     6    2   21 1   
     7    2   24 1   
     8    3    4 2   
     9    3    5 1   
    10    5   17 1   
    11    6    7 2   
    12    6    8 1   
    13    8    9 1   
    14    8   19 1   
    15    9   16 1   
    16    9   25 1   
    17    9   26 1   
    18   10   11 ar  
    19   10   15 ar  
    20   10   35 1   
    21   11   12 ar  
    22   11   36 1   
    23   12   13 ar  
    24   12   27 1   
    25   13   14 ar  
    26   13   28 1   
    27   14   15 ar  
    28   14   29 1   
    29   15   17 1   
    30   16   18 1   
    31   16   20 1   
    32   17   30 1   
    33   17   31 1   
    34   19   32 1   
    35   19   33 1   
    36   21   34 1   
@<TRIPOS>SUBSTRUCTURE
     1 MY2         1 TEMP              0 ****  ****    0 ROOT
