@<TRIPOS>MOLECULE
MY2
   38    38     1     0     0
SMALL
bcc


@<TRIPOS>ATOM
      1 C2         -0.2870    1.1700   -0.1290 c3        1 MY2     -0.170400
      2 C3          1.0440    0.4210   -0.2790 c3        1 MY2      0.103100
      3 C4          1.5950    0.0590    1.0880 c         1 MY2      0.602100
      4 O5          1.9730   -1.0690    1.4050 o         1 MY2     -0.503000
      5 O6          1.6490    1.1020    1.9410 os        1 MY2     -0.426900
      6 C7         -0.7000    1.7200   -1.4530 c         1 MY2      0.597100
      7 O8         -0.2190    2.6250   -2.1040 o         1 MY2     -0.387100
      8 N9         -1.9240    1.0540   -2.1790 nx        1 MY2     -0.386000
      9 C10        -1.5490   -0.3340   -2.6290 c3        1 MY2     -0.036200
     10 C12         0.8620    1.8300    5.1140 ca        1 MY2     -0.102500
     11 C13         0.5310    2.8980    5.9460 ca        1 MY2     -0.130500
     12 C14         1.1550    4.1350    5.7800 ca        1 MY2     -0.102000
     13 C15         2.1140    4.3040    4.7810 ca        1 MY2     -0.130500
     14 C16         2.4520    3.2370    3.9500 ca        1 MY2     -0.102500
     15 C17         1.8280    1.9960    4.1150 ca        1 MY2     -0.128300
     16 C18        -1.6460   -1.3930   -1.5450 c         1 MY2      0.647100
     17 C9          2.2180    0.8440    3.2580 c3        1 MY2      0.193700
     18 O19        -0.8930   -2.5060   -1.6450 oh        1 MY2     -0.511100
     19 N16        -3.1070    1.2330   -1.4550 n8        1 MY2     -0.647600
     20 O20        -2.3870   -1.3300   -0.5630 o         1 MY2     -0.495000
     21 O57         0.8110   -0.7330   -1.0690 oh        1 MY2     -0.659800
     22 H2C1       -0.1330    2.0450    0.5720 hc        1 MY2      0.140700
     23 H2C2       -1.0540    0.4850    0.3250 hc        1 MY2      0.140700
     24 H3          1.8030    1.0590   -0.8190 h1        1 MY2      0.114700
     25 H101       -2.2350   -0.6420   -3.4730 hx        1 MY2      0.136200
     26 H102       -0.4870   -0.2840   -3.0160 hx        1 MY2      0.136200
     27 H15         2.6110    5.2780    4.6530 ha        1 MY2      0.145000
     28 H16         3.2130    3.3660    3.1660 ha        1 MY2      0.136000
     29 H9C1        3.3290    0.7740    3.1230 h1        1 MY2      0.076200
     30 H9C2        1.8160   -0.1320    3.6410 h1        1 MY2      0.076200
     31 H161       -0.2780   -2.4530   -2.3960 ho        1 MY2      0.456000
     32 H162       -3.0340    0.7920   -0.5400 hn        1 MY2      0.419300
     33 H57         1.1380   -1.5200   -0.5960 ho        1 MY2      0.476000
     34 H12         0.3720    0.8540    5.2530 ha        1 MY2      0.136000
     35 H13        -0.2210    2.7630    6.7390 ha        1 MY2      0.145000
     36 H91        -2.0540    1.6130   -3.0520 hn        1 MY2      0.479800
     37 H163       -3.8840    0.8030   -1.9480 hn        1 MY2      0.419300
     38 H14         0.8950    4.9760    6.4410 ha        1 MY2      0.146000
@<TRIPOS>BOND
     1    1    2 1   
     2    1    6 1   
     3    1   22 1   
     4    1   23 1   
     5    2    3 1   
     6    2   21 1   
     7    2   24 1   
     8    3    4 2   
     9    3    5 1   
    10    5   17 1   
    11    6    7 2   
    12    6    8 1   
    13    8    9 1   
    14    8   19 1   
    15    8   36 1   
    16    9   16 1   
    17    9   25 1   
    18    9   26 1   
    19   10   11 ar  
    20   10   15 ar  
    21   10   34 1   
    22   11   12 ar  
    23   11   35 1   
    24   12   13 ar  
    25   12   38 1   
    26   13   14 ar  
    27   13   27 1   
    28   14   15 ar  
    29   14   28 1   
    30   15   17 1   
    31   16   18 1   
    32   16   20 2   
    33   17   29 1   
    34   17   30 1   
    35   18   31 1   
    36   19   32 1   
    37   19   37 1   
    38   21   33 1   
@<TRIPOS>SUBSTRUCTURE
     1 MY2         1 TEMP              0 ****  ****    0 ROOT
