@<TRIPOS>MOLECULE
MY2
   38    36     1     0     0
SMALL
bcc


@<TRIPOS>ATOM
      1 C2          0.9260    1.4150   -0.3680 c3        1 MY2     -0.148400
      2 C3          1.5010    0.1050    0.1650 c3        1 MY2      0.100100
      3 C4          1.8870    0.2510    1.6270 c         1 MY2      0.601100
      4 O5          1.6010   -0.5660    2.5040 o         1 MY2     -0.523000
      5 O6          2.6230    1.3540    1.8890 os        1 MY2     -0.424900
      6 C7          0.6220    1.3180   -1.8380 c         1 MY2      0.647100
      7 O8          1.3120    1.7810   -2.7420 o         1 MY2     -0.452100
      8 N9         -0.6090    0.6150   -2.1980 n         1 MY2     -0.352500
      9 C10        -0.9570    0.3840   -3.4230 c2        1 MY2      0.354400
     10 C12         1.0290    1.6760    4.7380 ca        1 MY2     -0.105500
     11 C13         0.0920    2.3930    5.4790 ca        1 MY2     -0.134000
     12 C14         0.1300    3.7880    5.4920 ca        1 MY2     -0.106000
     13 C15         1.1060    4.4660    4.7620 ca        1 MY2     -0.134000
     14 C16         2.0460    3.7520    4.0200 ca        1 MY2     -0.105500
     15 C17         2.0120    2.3530    4.0070 ca        1 MY2     -0.149300
     16 C18        -4.6500   -1.9000   -3.2030 c1        1 MY2      0.903000
     17 C9          3.0440    1.5860    3.2550 c3        1 MY2      0.188700
     18 O19        -3.6940   -1.2730   -2.8450 o         1 MY2     -0.450500
     19 N16        -2.3320   -0.2590   -0.2470 n3        1 MY2     -1.025400
     20 O20        -5.5940   -2.5180   -3.5540 o         1 MY2     -0.450500
     21 O57         0.5070   -0.8960    0.0190 oh        1 MY2     -0.632800
     22 H2C1        1.6940    2.2280   -0.2210 hc        1 MY2      0.122200
     23 H2C2        0.0030    1.6920    0.2090 hc        1 MY2      0.122200
     24 H3          2.4210   -0.1950   -0.4160 h1        1 MY2      0.097700
     25 H101       -1.9010   -0.1670   -3.6390 h4        1 MY2      0.070300
     26 H102       -0.3330    0.7270   -4.2800 h4        1 MY2      0.070300
     27 H15         1.1410    5.5660    4.7770 ha        1 MY2      0.142500
     28 H16         2.8220    4.2880    3.4530 ha        1 MY2      0.142500
     29 H9C1        3.2690    0.6050    3.7510 h1        1 MY2      0.086200
     30 H9C2        3.9860    2.1840    3.1110 h1        1 MY2      0.086200
     31 H161       -1.8020   -0.8100    0.4020 hn        1 MY2      0.380133
     32 H162       -2.7820    0.4900    0.2390 hn        1 MY2      0.380133
     33 H57         0.7000   -1.6060    0.6530 ho        1 MY2      0.458000
     34 H12         1.0060    0.5740    4.7260 ha        1 MY2      0.142500
     35 H13        -0.6720    1.8580    6.0620 ha        1 MY2      0.142500
     36 H91        -1.2170    0.2630   -1.3680 hn        1 MY2      0.432500
     37 H163       -3.0220   -0.8320   -0.6920 hn        1 MY2      0.380133
     38 H14        -0.6060    4.3540    6.0850 ha        1 MY2      0.143000
@<TRIPOS>BOND
     1    1    2 1   
     2    1    6 1   
     3    1   22 1   
     4    1   23 1   
     5    2    3 1   
     6    2   21 1   
     7    2   24 1   
     8    3    4 2   
     9    3    5 1   
    10    5   17 1   
    11    6    7 2   
    12    6    8 1   
    13    8    9 2   
    14    8   36 1   
    15    9   25 1   
    16    9   26 1   
    17   10   11 ar  
    18   10   15 ar  
    19   10   34 1   
    20   11   12 ar  
    21   11   35 1   
    22   12   13 ar  
    23   12   38 1   
    24   13   14 ar  
    25   13   27 1   
    26   14   15 ar  
    27   14   28 1   
    28   15   17 1   
    29   16   18 2   
    30   16   20 2   
    31   17   29 1   
    32   17   30 1   
    33   19   31 1   
    34   19   32 1   
    35   19   37 1   
    36   21   33 1   
@<TRIPOS>SUBSTRUCTURE
     1 MY2         1 TEMP              0 ****  ****    0 ROOT
