@<TRIPOS>MOLECULE
MY3
   37    34     1     0     0
SMALL
bcc


@<TRIPOS>ATOM
      1 C1          0.5400   -3.6340    1.4680 c1        1 MY3     -0.082100
      2 C2          1.3350   -4.2280    0.5010 c1        1 MY3     -0.074000
      3 N20        -1.6500    4.3700   -2.5650 n3        1 MY3     -0.644800
      4 C3          2.1190   -5.3520    0.8250 c1        1 MY3     -0.074000
      5 C4          2.0940   -5.8640    2.1210 c1        1 MY3     -0.074000
      6 C5          1.2960   -5.2650    3.0890 c1        1 MY3     -0.074000
      7 C6          0.5180   -4.1500    2.7640 c1        1 MY3     -0.050500
      8 C7         -0.3870   -2.4550    1.0920 c3        1 MY3      0.093100
      9 C9          0.0350    0.4740   -1.2480 c3        1 MY3      0.094100
     10 C10        -0.9190    1.6590   -1.2780 c3        1 MY3     -0.170400
     11 C11        -0.1150    2.9830   -1.1620 c         1 MY3      0.664100
     12 C15        -0.0820   -0.2270    0.0750 c         1 MY3      0.655100
     13 C12        -0.4630    5.4780   -0.7610 c3        1 MY3     -0.058000
     14 C13        -1.6710    5.9180   -0.0010 c         1 MY3      0.907600
     15 N2         -0.7710    4.2970   -1.5150 n         1 MY3     -0.327200
     16 N3          0.2920   -1.6020    0.1870 n         1 MY3     -0.541900
     17 O4         -0.4990    0.3870    1.0700 o         1 MY3     -0.623100
     18 O6          1.0590    2.9550   -0.8590 o         1 MY3     -0.681100
     19 O7         -2.2850    5.1010    0.7230 o         1 MY3     -0.830800
     20 O8         -2.1270    7.1070   -0.1560 o         1 MY3     -0.830800
     21 O57        -0.2980   -0.4120   -2.2710 oh        1 MY3     -0.633800
     22 H2          1.6160   -4.0660   -0.3880 ha        1 MY3      0.068750
     23 H201       -1.2970    4.9510   -3.2320 hn        1 MY3      0.366300
     24 H202       -2.4540    4.7030   -2.2660 hn        1 MY3      0.366300
     25 H3          2.7430   -5.7040    0.1820 ha        1 MY3      0.068750
     26 H4          2.6200   -6.6640    2.3440 ha        1 MY3      0.068750
     27 H5          1.3020   -5.6100    4.0210 ha        1 MY3      0.068750
     28 H6         -0.0200   -3.6840    3.4840 ha        1 MY3      0.101500
     29 H7C1       -0.6250   -1.9560    1.9020 h1        1 MY3      0.064700
     30 H7C2       -1.2190   -2.8070    0.6590 h1        1 MY3      0.064700
     31 H9          0.9520    0.7870   -1.3730 h1        1 MY3      0.080700
     32 H101       -1.4130    1.6540   -2.1150 hc        1 MY3      0.084700
     33 H102       -1.5360    1.5920   -0.5410 hc        1 MY3      0.084700
     34 H121       -0.1810    6.2040   -1.3830 h1        1 MY3      0.047700
     35 H122        0.2310    5.2930   -0.1630 h1        1 MY3      0.047700
     36 HA          0.9860   -1.9170   -0.2890 hn        1 MY3      0.321500
     37 H57         0.2730   -0.3180   -2.9400 ho        1 MY3      0.452000
@<TRIPOS>BOND
     1    1    7 3   
     2    1    8 1   
     3    2    4 3   
     4    2   22 1   
     5    3   15 1   
     6    3   23 1   
     7    3   24 1   
     8    4   25 1   
     9    5    6 3   
    10    5   26 1   
    11    6   27 1   
    12    7   28 1   
    13    8   16 1   
    14    8   29 1   
    15    8   30 1   
    16    9   10 1   
    17    9   12 1   
    18    9   21 1   
    19    9   31 1   
    20   10   11 1   
    21   10   32 1   
    22   10   33 1   
    23   11   15 1   
    24   11   18 2   
    25   12   16 1   
    26   12   17 2   
    27   13   14 1   
    28   13   15 1   
    29   13   34 1   
    30   13   35 1   
    31   14   19 1   
    32   14   20 1   
    33   16   36 1   
    34   21   37 1   
@<TRIPOS>SUBSTRUCTURE
     1 MY3         1 TEMP              0 ****  ****    0 ROOT
