@<TRIPOS>MOLECULE
MY3
   40    40     1     0     0
SMALL
bcc


@<TRIPOS>ATOM
      1 C1         -0.0030    0.3490    0.4450 ca        1 MY3     -0.213300
      2 C2          0.9720    0.6110    1.4180 ca        1 MY3     -0.094500
      3 N20         0.3360   -5.3380   -6.5440 n4        1 MY3     -0.613600
      4 C3          0.6050    1.1990    2.6260 ca        1 MY3     -0.116000
      5 C4         -0.7320    1.5270    2.8680 ca        1 MY3     -0.059000
      6 C5         -1.7040    1.2670    1.8990 ca        1 MY3     -0.116000
      7 C6         -1.3430    0.6790    0.6890 ca        1 MY3     -0.094500
      8 C7          0.3940   -0.2210   -0.8660 c3        1 MY3      0.191100
      9 C9          0.2250   -3.8080   -2.3530 c3        1 MY3      0.098100
     10 C10         0.2980   -4.0790   -3.8650 c3        1 MY3     -0.200400
     11 C11        -0.0480   -5.5270   -4.1240 c         1 MY3      0.645100
     12 C15         0.7670   -2.4030   -2.0650 c         1 MY3      0.530100
     13 C12        -0.1700   -7.5180   -5.6060 c3        1 MY3     -0.018000
     14 C13        -1.5790   -7.7170   -6.1160 c         1 MY3      0.598100
     15 N2          0.2940   -6.1380   -5.3960 n         1 MY3     -0.358200
     16 N3          0.2760   -1.7320   -0.8280 n4        1 MY3     -0.667800
     17 O4          1.5900   -1.8330   -2.7660 o         1 MY3     -0.403100
     18 O6         -0.5240   -6.2510   -3.2480 o         1 MY3     -0.472100
     19 O7         -2.0370   -6.7150   -6.9260 oh        1 MY3     -0.687100
     20 O8         -2.3090   -8.6740   -5.9060 o         1 MY3     -0.413000
     21 O57        -1.1060   -3.8490   -1.8900 oh        1 MY3     -0.607800
     22 H2          2.0300    0.3760    1.2240 ha        1 MY3      0.139000
     23 H201        0.7590   -4.4250   -6.3180 hn        1 MY3      0.486133
     24 H202       -0.6090   -5.2040   -6.9680 hn        1 MY3      0.486133
     25 H3          1.3720    1.4150    3.3880 ha        1 MY3      0.168500
     26 H4         -1.0190    2.0000    3.8230 ha        1 MY3      0.172000
     27 H5         -2.7560    1.5360    2.0880 ha        1 MY3      0.168500
     28 H6         -2.1100    0.4970   -0.0800 ha        1 MY3      0.139000
     29 H7C1        1.4660    0.0270   -1.1200 hx        1 MY3      0.115200
     30 H7C2       -0.2750    0.1420   -1.6970 hx        1 MY3      0.115200
     31 H9          0.8770   -4.5470   -1.7980 h1        1 MY3      0.119700
     32 H101       -0.4420   -3.4200   -4.3940 hc        1 MY3      0.114700
     33 H102        1.3370   -3.8370   -4.2210 hc        1 MY3      0.114700
     34 H121       -0.0840   -8.0460   -4.6040 h1        1 MY3      0.155700
     35 H122        0.5370   -8.0330   -6.3250 h1        1 MY3      0.155700
     36 HA          0.8140   -2.0800   -0.0220 hn        1 MY3      0.478300
     37 H57        -1.3580   -4.7820   -1.7660 ho        1 MY3      0.482000
     38 H203        0.9400   -5.8260   -7.2340 hn        1 MY3      0.486133
     39 H21        -2.9270   -6.9300   -7.2660 ho        1 MY3      0.502000
     40 H32        -0.7140   -1.9900   -0.6780 hn        1 MY3      0.478300
@<TRIPOS>BOND
     1    1    2 ar  
     2    1    7 ar  
     3    1    8 1   
     4    2    4 ar  
     5    2   22 1   
     6    3   15 1   
     7    3   23 1   
     8    3   24 1   
     9    3   38 1   
    10    4    5 ar  
    11    4   25 1   
    12    5    6 ar  
    13    5   26 1   
    14    6    7 ar  
    15    6   27 1   
    16    7   28 1   
    17    8   16 1   
    18    8   29 1   
    19    8   30 1   
    20    9   10 1   
    21    9   12 1   
    22    9   21 1   
    23    9   31 1   
    24   10   11 1   
    25   10   32 1   
    26   10   33 1   
    27   11   15 1   
    28   11   18 2   
    29   12   16 1   
    30   12   17 2   
    31   13   14 1   
    32   13   15 1   
    33   13   34 1   
    34   13   35 1   
    35   14   19 1   
    36   14   20 2   
    37   16   36 1   
    38   16   40 1   
    39   19   39 1   
    40   21   37 1   
@<TRIPOS>SUBSTRUCTURE
     1 MY3         1 TEMP              0 ****  ****    0 ROOT
