@<TRIPOS>MOLECULE
MY3
   37    37     1     0     0
SMALL
bcc


@<TRIPOS>ATOM
      1 C1         -3.0160   -0.1720   -0.6610 ca        1 MY3     -0.121300
      2 C2         -1.9250   -0.9980   -0.9430 ca        1 MY3     -0.136500
      3 N20         2.1900   -1.0460    1.6210 n3        1 MY3     -0.639800
      4 C3         -2.0460   -2.3870   -0.8520 ca        1 MY3     -0.127500
      5 C4         -3.2690   -2.9550   -0.4990 ca        1 MY3     -0.136000
      6 C5         -4.3670   -2.1360   -0.2300 ca        1 MY3     -0.127500
      7 C6         -4.2410   -0.7520   -0.3050 ca        1 MY3     -0.136500
      8 C7         -2.9490    1.3290   -0.7450 c3        1 MY3      0.128300
      9 C9          0.2920    2.7370    0.7380 c3        1 MY3      0.079100
     10 C10         1.0170    1.4780    1.2100 c3        1 MY3     -0.170400
     11 C11         1.3000    0.5250    0.0660 c         1 MY3      0.673100
     12 C15        -1.2120    2.4520    0.5900 c         1 MY3      0.624100
     13 C12         1.9640   -1.6960   -0.7490 c3        1 MY3     -0.066000
     14 C13         1.6920   -3.1650   -0.3130 c         1 MY3      0.903600
     15 N2          1.8800   -0.7070    0.3280 n         1 MY3     -0.330200
     16 N3         -1.6470    1.9230   -0.6050 n         1 MY3     -0.535900
     17 O4         -1.9830    2.7600    1.5250 o         1 MY3     -0.639100
     18 O6          1.0390    0.8540   -1.1200 o         1 MY3     -0.686100
     19 O7          2.3210   -3.6280    0.6800 o         1 MY3     -0.832300
     20 O8          0.8660   -3.8130   -1.0100 o         1 MY3     -0.832300
     21 O57         0.4850    3.7890    1.6640 oh        1 MY3     -0.598800
     22 H2         -0.9450   -0.5800   -1.2320 ha        1 MY3      0.134000
     23 H201        1.5610   -1.7940    1.9130 hn        1 MY3      0.364300
     24 H202        3.1110   -1.4780    1.5990 hn        1 MY3      0.364300
     25 H3         -1.1570   -3.0250   -1.0440 ha        1 MY3      0.160000
     26 H4         -3.3630   -4.0480   -0.4250 ha        1 MY3      0.129000
     27 H5         -5.3310   -2.5830    0.0500 ha        1 MY3      0.160000
     28 H6         -5.1040   -0.1090   -0.0770 ha        1 MY3      0.134000
     29 H7C1       -3.3430    1.6330   -1.7610 h1        1 MY3      0.060700
     30 H7C2       -3.6280    1.7710    0.0410 h1        1 MY3      0.060700
     31 H9          0.7390    3.1140   -0.2260 h1        1 MY3      0.107700
     32 H101        1.9910    1.7840    1.6790 hc        1 MY3      0.086200
     33 H102        0.4080    0.9630    1.9990 hc        1 MY3      0.086200
     34 H121        3.0020   -1.6500   -1.1800 h1        1 MY3      0.051200
     35 H122        1.2280   -1.4190   -1.5530 h1        1 MY3      0.051200
     36 HA         -0.9400    1.5860   -1.2300 hn        1 MY3      0.338500
     37 H57        -0.1020    3.6270    2.4170 ho        1 MY3      0.419000
@<TRIPOS>BOND
     1    1    2 ar  
     2    1    7 ar  
     3    1    8 1   
     4    2    4 ar  
     5    2   22 1   
     6    3   15 1   
     7    3   23 1   
     8    3   24 1   
     9    4    5 ar  
    10    4   25 1   
    11    5    6 ar  
    12    5   26 1   
    13    6    7 ar  
    14    6   27 1   
    15    7   28 1   
    16    8   16 1   
    17    8   29 1   
    18    8   30 1   
    19    9   10 1   
    20    9   12 1   
    21    9   21 1   
    22    9   31 1   
    23   10   11 1   
    24   10   32 1   
    25   10   33 1   
    26   11   15 1   
    27   11   18 2   
    28   12   16 1   
    29   12   17 2   
    30   13   14 1   
    31   13   15 1   
    32   13   34 1   
    33   13   35 1   
    34   14   19 1   
    35   14   20 1   
    36   16   36 1   
    37   21   37 1   
@<TRIPOS>SUBSTRUCTURE
     1 MY3         1 TEMP              0 ****  ****    0 ROOT
