@<TRIPOS>MOLECULE
MY3
   40    40     1     0     0
SMALL
bcc


@<TRIPOS>ATOM
      1 C1          0.3910   -0.0970    0.6950 ca        1 MY3     -0.211300
      2 C2          0.6260   -0.3730    2.0490 ca        1 MY3     -0.095000
      3 N20        -1.6390   -6.1460   -6.7690 n4        1 MY3     -0.621600
      4 C3          0.2340    0.5450    3.0220 ca        1 MY3     -0.116500
      5 C4         -0.3920    1.7360    2.6480 ca        1 MY3     -0.061000
      6 C5         -0.6260    2.0120    1.2990 ca        1 MY3     -0.116500
      7 C6         -0.2370    1.1000    0.3220 ca        1 MY3     -0.095000
      8 C7          0.8620   -1.0440   -0.3460 c3        1 MY3      0.189100
      9 C9         -0.8760   -3.6860   -2.5690 c3        1 MY3      0.095100
     10 C10        -0.1990   -4.1240   -3.8770 c3        1 MY3     -0.182400
     11 C11        -1.1910   -4.8640   -4.7410 c         1 MY3      0.665100
     12 C15         0.1870   -3.0900   -1.6400 c         1 MY3      0.527100
     13 C12         0.6720   -5.7360   -6.1670 c3        1 MY3     -0.016000
     14 C13         1.0630   -7.0410   -5.5010 c         1 MY3      0.590100
     15 N2         -0.7370   -5.3660   -6.0220 n         1 MY3     -0.359200
     16 N3         -0.2460   -2.0150   -0.7020 n4        1 MY3     -0.667800
     17 O4          1.3470   -3.4740   -1.6020 o         1 MY3     -0.393100
     18 O6         -2.3880   -4.9730   -4.4430 o         1 MY3     -0.533100
     19 O7          0.3220   -8.0960   -5.9360 oh        1 MY3     -0.653100
     20 O8          1.9270   -7.2120   -4.6520 o         1 MY3     -0.438000
     21 O57        -1.8530   -2.6950   -2.8030 oh        1 MY3     -0.607800
     22 H2          1.1400   -1.3000    2.3480 ha        1 MY3      0.139000
     23 H201       -2.6070   -5.9750   -6.4280 hn        1 MY3      0.494467
     24 H202       -1.5640   -5.8370   -7.7550 hn        1 MY3      0.494467
     25 H3          0.4290    0.3340    4.0860 ha        1 MY3      0.168000
     26 H4         -0.6940    2.4650    3.4200 ha        1 MY3      0.171000
     27 H5         -1.1110    2.9580    1.0060 ha        1 MY3      0.168000
     28 H6         -0.4030    1.3330   -0.7410 ha        1 MY3      0.139000
     29 H7C1        1.1490   -0.5080   -1.2950 hx        1 MY3      0.115200
     30 H7C2        1.7420   -1.6530    0.0160 hx        1 MY3      0.115200
     31 H9         -1.3210   -4.5830   -2.0430 h1        1 MY3      0.115700
     32 H101        0.1690   -3.2180   -4.4350 hc        1 MY3      0.133200
     33 H102        0.6820   -4.7830   -3.6310 hc        1 MY3      0.133200
     34 H121        0.9390   -5.8080   -7.2660 h1        1 MY3      0.142200
     35 H122        1.2890   -4.8950   -5.7310 h1        1 MY3      0.142200
     36 HA         -0.5890   -2.4470    0.1680 hn        1 MY3      0.476800
     37 H57        -2.6630   -3.1370   -3.1110 ho        1 MY3      0.477000
     38 H203       -1.4210   -7.1630   -6.7020 hn        1 MY3      0.494467
     39 H21         0.6620   -8.9370   -5.5730 ho        1 MY3      0.504000
     40 H32        -1.0310   -1.4920   -1.1230 hn        1 MY3      0.476800
@<TRIPOS>BOND
     1    1    2 ar  
     2    1    7 ar  
     3    1    8 1   
     4    2    4 ar  
     5    2   22 1   
     6    3   15 1   
     7    3   23 1   
     8    3   24 1   
     9    3   38 1   
    10    4    5 ar  
    11    4   25 1   
    12    5    6 ar  
    13    5   26 1   
    14    6    7 ar  
    15    6   27 1   
    16    7   28 1   
    17    8   16 1   
    18    8   29 1   
    19    8   30 1   
    20    9   10 1   
    21    9   12 1   
    22    9   21 1   
    23    9   31 1   
    24   10   11 1   
    25   10   32 1   
    26   10   33 1   
    27   11   15 1   
    28   11   18 2   
    29   12   16 1   
    30   12   17 2   
    31   13   14 1   
    32   13   15 1   
    33   13   34 1   
    34   13   35 1   
    35   14   19 1   
    36   14   20 2   
    37   16   36 1   
    38   16   40 1   
    39   19   39 1   
    40   21   37 1   
@<TRIPOS>SUBSTRUCTURE
     1 MY3         1 TEMP              0 ****  ****    0 ROOT
