@<TRIPOS>MOLECULE
MY3
   40    40     1     0     0
SMALL
bcc


@<TRIPOS>ATOM
      1 C1         -0.0230    0.3580    0.4310 ca        1 MY3     -0.213300
      2 C2          0.9550    0.6340    1.3960 ca        1 MY3     -0.094500
      3 N20         0.3430   -5.3530   -6.5370 nz        1 MY3     -0.613600
      4 C3          0.5890    1.2250    2.6040 ca        1 MY3     -0.116000
      5 C4         -0.7500    1.5390    2.8530 ca        1 MY3     -0.059000
      6 C5         -1.7250    1.2640    1.8910 ca        1 MY3     -0.116000
      7 C6         -1.3660    0.6740    0.6810 ca        1 MY3     -0.094500
      8 C7          0.3720   -0.2140   -0.8800 c3        1 MY3      0.191100
      9 C9          0.2320   -3.8080   -2.3510 c3        1 MY3      0.098100
     10 C10         0.3030   -4.0850   -3.8620 c3        1 MY3     -0.200400
     11 C11        -0.0320   -5.5370   -4.1150 c         1 MY3      0.645100
     12 C15         0.7620   -2.3970   -2.0710 c         1 MY3      0.530100
     13 C12        -0.1430   -7.5340   -5.5880 c3        1 MY3     -0.018000
     14 C13        -1.5520   -7.7460   -6.0940 c         1 MY3      0.598100
     15 N2          0.3100   -6.1490   -5.3850 n         1 MY3     -0.358200
     16 N3          0.2700   -1.7260   -0.8340 ny        1 MY3     -0.667800
     17 O4          1.5790   -1.8230   -2.7770 o         1 MY3     -0.403100
     18 O6         -0.5000   -6.2610   -3.2340 o         1 MY3     -0.472100
     19 O7         -2.0200   -6.7500   -6.9070 oh        1 MY3     -0.687100
     20 O8         -2.2740   -8.7080   -5.8780 o         1 MY3     -0.413000
     21 O57        -1.0980   -3.8590   -1.8840 oh        1 MY3     -0.607800
     22 H2          2.0140    0.4100    1.1970 ha        1 MY3      0.139000
     23 H201        0.7600   -4.4360   -6.3150 hn        1 MY3      0.486133
     24 H202       -0.6050   -5.2280   -6.9570 hn        1 MY3      0.486133
     25 H3          1.3580    1.4520    3.3600 ha        1 MY3      0.168500
     26 H4         -1.0360    2.0130    3.8080 ha        1 MY3      0.172000
     27 H5         -2.7790    1.5220    2.0860 ha        1 MY3      0.168500
     28 H6         -2.1350    0.4810   -0.0820 ha        1 MY3      0.139000
     29 H7C1        1.4390    0.0450   -1.1410 hx        1 MY3      0.115200
     30 H7C2       -0.3060    0.1380   -1.7090 hx        1 MY3      0.115200
     31 H9          0.8920   -4.5400   -1.7960 h1        1 MY3      0.119700
     32 H101        1.3390   -3.8350   -4.2220 hc        1 MY3      0.114700
     33 H102       -0.4450   -3.4330   -4.3910 hc        1 MY3      0.114700
     34 H121        0.5660   -8.0460   -6.3080 h1        1 MY3      0.155700
     35 H122       -0.0500   -8.0580   -4.5840 h1        1 MY3      0.155700
     36 HA          0.8160   -2.0640   -0.0290 hn        1 MY3      0.478300
     37 H57        -1.3410   -4.7940   -1.7550 ho        1 MY3      0.482000
     38 H203        0.9490   -5.8400   -7.2260 hn        1 MY3      0.486133
     39 H21        -2.9090   -6.9740   -7.2440 ho        1 MY3      0.502000
     40 H32        -0.7160   -1.9940   -0.6780 hn        1 MY3      0.478300
@<TRIPOS>BOND
     1    1    2 ar  
     2    1    7 ar  
     3    1    8 1   
     4    2    4 ar  
     5    2   22 1   
     6    3   15 1   
     7    3   23 1   
     8    3   24 1   
     9    3   38 1   
    10    4    5 ar  
    11    4   25 1   
    12    5    6 ar  
    13    5   26 1   
    14    6    7 ar  
    15    6   27 1   
    16    7   28 1   
    17    8   16 1   
    18    8   29 1   
    19    8   30 1   
    20    9   10 1   
    21    9   12 1   
    22    9   21 1   
    23    9   31 1   
    24   10   11 1   
    25   10   32 1   
    26   10   33 1   
    27   11   15 1   
    28   11   18 2   
    29   12   16 1   
    30   12   17 2   
    31   13   14 1   
    32   13   15 1   
    33   13   34 1   
    34   13   35 1   
    35   14   19 1   
    36   14   20 2   
    37   16   36 1   
    38   16   40 1   
    39   19   39 1   
    40   21   37 1   
@<TRIPOS>SUBSTRUCTURE
     1 MY3         1 TEMP              0 ****  ****    0 ROOT
