@<TRIPOS>MOLECULE
MY4
   43    43     1     0     0
SMALL
bcc


@<TRIPOS>ATOM
      1 C1         -0.5000    1.1810    0.1980 ca        1 MY4     -0.088000
      2 C2          0.3480    2.2250    0.5680 ca        1 MY4     -0.114000
      3 N20         2.3210    1.3410   11.6100 n8        1 MY4     -0.667600
      4 C3          1.4180    1.9860    1.4300 ca        1 MY4     -0.114000
      5 C4          1.6430    0.6960    1.9230 ca        1 MY4     -0.144300
      6 C5          0.7920   -0.3510    1.5480 ca        1 MY4     -0.114000
      7 C6         -0.2770   -0.1070    0.6880 ca        1 MY4     -0.114000
      8 C9          4.0030    0.3260    7.7470 c3        1 MY4      0.088100
      9 C10         3.2850    0.9040    8.9790 c3        1 MY4     -0.181400
     10 C11         4.2450    1.0130   10.1200 c         1 MY4      0.593100
     11 C15         2.9630    0.0630    6.6520 c         1 MY4      0.528100
     12 C12         4.3550    2.7490   11.9150 c3        1 MY4      0.008800
     13 C13         3.8690    3.9910   11.2130 c         1 MY4      0.610100
     14 C14         2.3130    0.4310    4.2600 c3        1 MY4      0.104800
     15 N2          3.7130    1.4380   11.5140 nx        1 MY4     -0.367000
     16 N3          3.4270    0.1690    5.2350 ny        1 MY4     -0.661800
     17 O4          1.8060   -0.2610    6.8740 o         1 MY4     -0.381100
     18 O6          5.4480    0.8030   10.0940 o         1 MY4     -0.426100
     19 O7          4.2250    5.1320   11.4690 o         1 MY4     -0.401000
     20 O8          2.9660    3.7900   10.2090 oh        1 MY4     -0.666100
     21 O14         4.9510    1.2380    7.2380 oh        1 MY4     -0.604800
     22 C16         2.8060    0.4270    2.8120 c3        1 MY4     -0.042100
     23 H1         -1.3420    1.3710   -0.4880 ha        1 MY4      0.161000
     24 H2          0.1790    3.2400    0.1730 ha        1 MY4      0.157000
     25 H201        2.6870    4.6510    9.8360 ho        1 MY4      0.502000
     26 H202        2.0300    1.4380   12.5800 hn        1 MY4      0.429800
     27 H3          2.0930    2.8100    1.7030 ha        1 MY4      0.130000
     28 H5          0.9740   -1.3720    1.9160 ha        1 MY4      0.130000
     29 H6         -0.9400   -0.9330    0.3880 ha        1 MY4      0.157000
     30 H9          4.4780   -0.6680    8.0050 h1        1 MY4      0.119700
     31 H101        2.4140    0.2360    9.2430 hc        1 MY4      0.151700
     32 H102        2.8840    1.9350    8.7520 hc        1 MY4      0.151700
     33 H121        4.1920    2.9030   13.0280 hx        1 MY4      0.163200
     34 H122        5.4730    2.6590   11.7370 hx        1 MY4      0.163200
     35 H141        1.5280   -0.3680    4.4030 hx        1 MY4      0.119700
     36 H142        1.8620    1.4320    4.5170 hx        1 MY4      0.119700
     37 HA          4.1250    0.9280    5.1710 hn        1 MY4      0.477300
     38 H14         5.7890    1.1070    7.7150 ho        1 MY4      0.475000
     39 H161        3.5940    1.2130    2.6640 hc        1 MY4      0.072700
     40 H162        3.2560   -0.5700    2.5560 hc        1 MY4      0.072700
     41 H203        1.8760    2.0660   11.0530 hn        1 MY4      0.429800
     42 H21         4.1010    0.7250   12.1740 hn        1 MY4      0.494800
     43 H32         3.8940   -0.7110    4.9750 hn        1 MY4      0.477300
@<TRIPOS>BOND
     1    1    2 ar  
     2    1    7 ar  
     3    1   23 1   
     4    2    4 ar  
     5    2   24 1   
     6    3   15 1   
     7    3   26 1   
     8    3   41 1   
     9    4    5 ar  
    10    4   27 1   
    11    5    6 ar  
    12    5   22 1   
    13    6    7 ar  
    14    6   28 1   
    15    7   29 1   
    16    8    9 1   
    17    8   11 1   
    18    8   21 1   
    19    8   30 1   
    20    9   10 1   
    21    9   31 1   
    22    9   32 1   
    23   10   15 1   
    24   10   18 2   
    25   11   16 1   
    26   11   17 2   
    27   12   13 1   
    28   12   15 1   
    29   12   33 1   
    30   12   34 1   
    31   13   19 2   
    32   13   20 1   
    33   14   16 1   
    34   14   22 1   
    35   14   35 1   
    36   14   36 1   
    37   15   42 1   
    38   16   37 1   
    39   16   43 1   
    40   20   25 1   
    41   21   38 1   
    42   22   39 1   
    43   22   40 1   
@<TRIPOS>SUBSTRUCTURE
     1 MY4         1 TEMP              0 ****  ****    0 ROOT
