@<TRIPOS>MOLECULE
MY4
   40    40     1     0     0
SMALL
bcc


@<TRIPOS>ATOM
      1 C1          6.6720    1.4690   -0.9890 ca        1 MY4     -0.140000
      2 C2          5.7970    1.3650   -2.0700 ca        1 MY4     -0.132500
      3 N20        -3.3420    1.4890    0.6240 n3        1 MY4     -0.643800
      4 C3          4.4650    1.0100   -1.8620 ca        1 MY4     -0.126000
      5 C4          3.9960    0.7560   -0.5680 ca        1 MY4     -0.068300
      6 C5          4.8790    0.8650    0.5140 ca        1 MY4     -0.126000
      7 C6          6.2100    1.2190    0.3030 ca        1 MY4     -0.132500
      8 C9         -0.9320   -1.9410    1.6790 c3        1 MY4      0.083100
      9 C10        -1.7870   -0.6920    1.4790 c3        1 MY4     -0.170400
     10 C11        -2.0340   -0.4030    0.0100 c         1 MY4      0.666100
     11 C15         0.5600   -1.5880    1.5740 c         1 MY4      0.626100
     12 C12        -3.0290    0.9320   -1.7760 c3        1 MY4     -0.058000
     13 C13        -3.9610    2.1210   -2.1440 c         1 MY4      0.907600
     14 C14         2.4610   -1.0790    0.0980 c3        1 MY4      0.091000
     15 N2         -2.8360    0.6660   -0.3490 n         1 MY4     -0.328200
     16 N3          1.1190   -1.5360    0.3200 n         1 MY4     -0.546900
     17 O4          1.2220   -1.4070    2.6220 o         1 MY4     -0.648100
     18 O6         -1.5290   -1.1330   -0.8810 o         1 MY4     -0.688100
     19 O7         -4.6520    1.9680   -3.1850 o         1 MY4     -0.830300
     20 O8         -3.9540    3.1640   -1.4300 o         1 MY4     -0.830300
     21 O14        -1.1880   -2.5170    2.9450 oh        1 MY4     -0.595800
     22 C16         2.5730    0.3900   -0.3370 c3        1 MY4     -0.072100
     23 H1          7.7210    1.7500   -1.1550 ha        1 MY4      0.123000
     24 H2          6.1560    1.5650   -3.0900 ha        1 MY4      0.125500
     25 H201       -3.0190    2.4370    0.4240 hn        1 MY4      0.366800
     26 H202       -4.3500    1.5250    0.4930 hn        1 MY4      0.366800
     27 H3          3.7770    0.9330   -2.7170 ha        1 MY4      0.137500
     28 H5          4.5130    0.6700    1.5340 ha        1 MY4      0.137500
     29 H6          6.8960    1.3020    1.1580 ha        1 MY4      0.125500
     30 H9         -1.2170   -2.7390    0.9350 h1        1 MY4      0.111700
     31 H101       -1.3000    0.1940    1.9620 hc        1 MY4      0.084700
     32 H102       -2.7730   -0.8580    1.9920 hc        1 MY4      0.084700
     33 H121       -2.0220    1.1380   -2.2340 h1        1 MY4      0.046700
     34 H122       -3.4370   -0.0060   -2.2440 h1        1 MY4      0.046700
     35 H141        3.0570   -1.2220    1.0450 h1        1 MY4      0.057700
     36 H142        2.9120   -1.7260   -0.7080 h1        1 MY4      0.057700
     37 HA          0.4980   -1.5320   -0.4660 hn        1 MY4      0.348500
     38 H14        -0.7340   -1.9790    3.6090 ho        1 MY4      0.418000
     39 H161        1.9710    0.5580   -1.2690 hc        1 MY4      0.063700
     40 H162        2.1440    1.0520    0.4620 hc        1 MY4      0.063700
@<TRIPOS>BOND
     1    1    2 ar  
     2    1    7 ar  
     3    1   23 1   
     4    2    4 ar  
     5    2   24 1   
     6    3   15 1   
     7    3   25 1   
     8    3   26 1   
     9    4    5 ar  
    10    4   27 1   
    11    5    6 ar  
    12    5   22 1   
    13    6    7 ar  
    14    6   28 1   
    15    7   29 1   
    16    8    9 1   
    17    8   11 1   
    18    8   21 1   
    19    8   30 1   
    20    9   10 1   
    21    9   31 1   
    22    9   32 1   
    23   10   15 1   
    24   10   18 2   
    25   11   16 1   
    26   11   17 2   
    27   12   13 1   
    28   12   15 1   
    29   12   33 1   
    30   12   34 1   
    31   13   19 1   
    32   13   20 1   
    33   14   16 1   
    34   14   22 1   
    35   14   35 1   
    36   14   36 1   
    37   16   37 1   
    38   21   38 1   
    39   22   39 1   
    40   22   40 1   
@<TRIPOS>SUBSTRUCTURE
     1 MY4         1 TEMP              0 ****  ****    0 ROOT
