@<TRIPOS>MOLECULE
MY4
   43    43     1     0     0
SMALL
bcc


@<TRIPOS>ATOM
      1 C1         -0.4990    1.1550    0.1930 ca        1 MY4     -0.088000
      2 C2          0.3050    2.2270    0.5820 ca        1 MY4     -0.114000
      3 N20         2.3190    1.2500   11.6120 n3        1 MY4     -0.667600
      4 C3          1.3830    2.0180    1.4410 ca        1 MY4     -0.114000
      5 C4          1.6610    0.7300    1.9140 ca        1 MY4     -0.144300
      6 C5          0.8540   -0.3450    1.5200 ca        1 MY4     -0.114000
      7 C6         -0.2230   -0.1310    0.6620 ca        1 MY4     -0.114000
      8 C9          4.0340    0.3580    7.7340 c3        1 MY4      0.088100
      9 C10         3.2960    0.8900    8.9740 c3        1 MY4     -0.181400
     10 C11         4.2530    1.0120   10.1180 c         1 MY4      0.592100
     11 C15         3.0020    0.0780    6.6340 c         1 MY4      0.528100
     12 C12         4.3050    2.7200   11.9420 c3        1 MY4      0.008800
     13 C13         3.7770    3.9580   11.2600 c         1 MY4      0.610100
     14 C14         2.3400    0.4560    4.2470 c3        1 MY4      0.104800
     15 N2          3.7070    1.3960   11.5180 n4        1 MY4     -0.367000
     16 N3          3.4630    0.2240    5.2190 n4        1 MY4     -0.660800
     17 O4          1.8580   -0.2890    6.8500 o         1 MY4     -0.381100
     18 O6          5.4620    0.8440   10.0880 o         1 MY4     -0.426100
     19 O7          4.0950    5.1050   11.5360 o         1 MY4     -0.401000
     20 O8          2.8810    3.7440   10.2530 oh        1 MY4     -0.666100
     21 O14         4.9500    1.3100    7.2390 oh        1 MY4     -0.604800
     22 C16         2.8330    0.4950    2.8000 c3        1 MY4     -0.042100
     23 H1         -1.3470    1.3210   -0.4910 ha        1 MY4      0.161000
     24 H2          0.0940    3.2400    0.2030 ha        1 MY4      0.157000
     25 H201        1.8500    1.9700   11.0670 hn        1 MY4      0.429800
     26 H202        2.0250    1.3220   12.5830 hn        1 MY4      0.429800
     27 H3          2.0230    2.8650    1.7290 ha        1 MY4      0.130000
     28 H5          1.0780   -1.3630    1.8710 ha        1 MY4      0.130000
     29 H6         -0.8510   -0.9790    0.3470 ha        1 MY4      0.157000
     30 H9          4.5430   -0.6230    7.9740 h1        1 MY4      0.119700
     31 H101        2.8610    1.9110    8.7640 hc        1 MY4      0.151700
     32 H102        2.4490    0.1890    9.2270 hc        1 MY4      0.151700
     33 H121        5.4250    2.6710   11.7620 hx        1 MY4      0.163200
     34 H122        4.1360    2.8510   13.0570 hx        1 MY4      0.163200
     35 H141        1.8490    1.4330    4.5190 hx        1 MY4      0.119700
     36 H142        1.5870   -0.3760    4.3760 hx        1 MY4      0.119700
     37 HA          3.9640   -0.6330    4.9460 hn        1 MY4      0.477300
     38 H14         5.7920    1.2010    7.7140 ho        1 MY4      0.475000
     39 H161        3.5890    1.3150    2.6650 hc        1 MY4      0.072700
     40 H162        3.3250   -0.4780    2.5280 hc        1 MY4      0.072700
     41 H203        2.5730    4.6000    9.8950 ho        1 MY4      0.502000
     42 H21         4.1180    0.6850   12.1660 hn        1 MY4      0.494800
     43 H32         4.1300    1.0110    5.1670 hn        1 MY4      0.477300
@<TRIPOS>BOND
     1    1    2 ar  
     2    1    7 ar  
     3    1   23 1   
     4    2    4 ar  
     5    2   24 1   
     6    3   15 1   
     7    3   25 1   
     8    3   26 1   
     9    4    5 ar  
    10    4   27 1   
    11    5    6 ar  
    12    5   22 1   
    13    6    7 ar  
    14    6   28 1   
    15    7   29 1   
    16    8    9 1   
    17    8   11 1   
    18    8   21 1   
    19    8   30 1   
    20    9   10 1   
    21    9   31 1   
    22    9   32 1   
    23   10   15 1   
    24   10   18 2   
    25   11   16 1   
    26   11   17 2   
    27   12   13 1   
    28   12   15 1   
    29   12   33 1   
    30   12   34 1   
    31   13   19 2   
    32   13   20 1   
    33   14   16 1   
    34   14   22 1   
    35   14   35 1   
    36   14   36 1   
    37   15   42 1   
    38   16   37 1   
    39   16   43 1   
    40   20   41 1   
    41   21   38 1   
    42   22   39 1   
    43   22   40 1   
@<TRIPOS>SUBSTRUCTURE
     1 MY4         1 TEMP              0 ****  ****    0 ROOT
