@<TRIPOS>MOLECULE
MY5
   51    51     1     0     0
SMALL
bcc


@<TRIPOS>ATOM
      1 N1         -0.0870   -0.4810    0.6230 n         1 MY5     -0.346200
      2 N2          0.6230   -1.6880    0.6780 n4        1 MY5     -0.617600
      3 C3         -1.0860   -0.2940    1.6920 c3        1 MY5     -0.022000
      4 C4         -0.4280    0.0800   -0.6660 c         1 MY5      0.640100
      5 O5         -1.4570    0.7540   -0.7610 o         1 MY5     -0.474100
      6 C6         -2.2430   -1.2660    1.7520 c         1 MY5      0.597100
      7 O7         -1.9400   -2.5290    1.3210 oh        1 MY5     -0.691100
      8 O8         -3.3700   -1.0400    2.1610 o         1 MY5     -0.399000
      9 C9          0.5350   -0.0300   -1.8330 c3        1 MY5     -0.198400
     10 C10         0.1630    1.0490   -2.8670 c3        1 MY5      0.117100
     11 C11         1.2410    1.1380   -3.9540 c         1 MY5      0.549100
     12 O12         2.4180    0.8490   -3.8420 o         1 MY5     -0.385100
     13 N13         0.7640    1.7030   -5.2840 n4        1 MY5     -0.682800
     14 C14         1.7510    1.6310   -6.4240 c3        1 MY5      0.063500
     15 C15         1.3610    0.5540   -7.4310 c3        1 MY5     -0.157100
     16 C16         1.8750    3.0040   -7.1130 c         1 MY5      0.507100
     17 O17         1.3120    4.0120   -6.6970 o         1 MY5     -0.399100
     18 N18         2.7340    3.1180   -8.3070 n4        1 MY5     -0.676800
     19 C19         4.1480    3.6310   -7.9720 c3        1 MY5      0.213100
     20 C20         6.3760    4.4030  -11.5280 ca        1 MY5     -0.033000
     21 C21         5.5570    5.3980  -10.9870 ca        1 MY5     -0.114000
     22 C22         4.8100    5.1410   -9.8410 ca        1 MY5     -0.084500
     23 C23         4.8810    3.8780   -9.2270 ca        1 MY5     -0.237300
     24 C24         5.7030    2.8790   -9.7760 ca        1 MY5     -0.084500
     25 C25         6.4470    3.1440  -10.9210 ca        1 MY5     -0.114000
     26 O28        -1.0470    0.7450   -3.5240 oh        1 MY5     -0.621800
     27 H2N1       -0.0070   -2.5210    0.6040 hn        1 MY5      0.489467
     28 H2N2        1.0980   -1.7170    1.6030 hn        1 MY5      0.489467
     29 H3C1       -1.5120    0.7500    1.5610 h1        1 MY5      0.158200
     30 H3C2       -0.5530   -0.3220    2.6920 h1        1 MY5      0.158200
     31 H9C1        0.4350   -1.0480   -2.3000 hc        1 MY5      0.117700
     32 H9C2        1.5970    0.1290   -1.5030 hc        1 MY5      0.117700
     33 H10         0.1130    2.0630   -2.3620 h1        1 MY5      0.131700
     34 H13         0.4840    2.6870   -5.1170 hn        1 MY5      0.497800
     35 H14         2.7720    1.3850   -5.9800 hx        1 MY5      0.165700
     36 H151        1.0850   -0.4040   -6.9180 hc        1 MY5      0.107700
     37 H152        2.2380    0.3120   -8.0870 hc        1 MY5      0.107700
     38 H153        0.4980    0.8710   -8.0690 hc        1 MY5      0.107700
     39 H18         2.3160    3.8080   -8.9610 hn        1 MY5      0.482300
     40 H191        4.0080    4.5770   -7.3740 hx        1 MY5      0.108200
     41 H192        4.6390    2.8370   -7.3430 hx        1 MY5      0.108200
     42 H24         5.7830    1.8950   -9.2900 ha        1 MY5      0.139000
     43 H25         7.1040    2.3650  -11.3460 ha        1 MY5      0.180000
     44 H28        -1.7900    0.9360   -2.9190 ho        1 MY5      0.502000
     45 H20         6.9750    4.6130  -12.4340 ha        1 MY5      0.185000
     46 H21         5.5110    6.3930  -11.4630 ha        1 MY5      0.180000
     47 H11        -2.7010   -3.1290    1.4570 ho        1 MY5      0.508000
     48 H23         1.3360   -1.7130   -0.0640 hn        1 MY5      0.489467
     49 H132       -0.0960    1.1810   -5.5400 hn        1 MY5      0.497800
     50 H182        2.8120    2.2210   -8.8030 hn        1 MY5      0.482300
     51 H22         4.1860    5.9380   -9.4070 ha        1 MY5      0.139000
@<TRIPOS>BOND
     1    1    2 1   
     2    1    3 1   
     3    1    4 1   
     4    2   27 1   
     5    2   28 1   
     6    2   48 1   
     7    3    6 1   
     8    3   29 1   
     9    3   30 1   
    10    4    5 2   
    11    4    9 1   
    12    6    7 1   
    13    6    8 2   
    14    7   47 1   
    15    9   10 1   
    16    9   31 1   
    17    9   32 1   
    18   10   11 1   
    19   10   26 1   
    20   10   33 1   
    21   11   12 2   
    22   11   13 1   
    23   13   14 1   
    24   13   34 1   
    25   13   49 1   
    26   14   15 1   
    27   14   16 1   
    28   14   35 1   
    29   15   36 1   
    30   15   37 1   
    31   15   38 1   
    32   16   17 2   
    33   16   18 1   
    34   18   19 1   
    35   18   39 1   
    36   18   50 1   
    37   19   23 1   
    38   19   40 1   
    39   19   41 1   
    40   20   21 ar  
    41   20   25 ar  
    42   20   45 1   
    43   21   22 ar  
    44   21   46 1   
    45   22   23 ar  
    46   22   51 1   
    47   23   24 ar  
    48   24   25 ar  
    49   24   42 1   
    50   25   43 1   
    51   26   44 1   
@<TRIPOS>SUBSTRUCTURE
     1 MY5         1 TEMP              0 ****  ****    0 ROOT
