@<TRIPOS>MOLECULE
MY5
   51    51     1     0     0
SMALL
bcc


@<TRIPOS>ATOM
      1 N1         -0.0810   -0.5210    0.6090 n         1 MY5     -0.346200
      2 N2          0.6600   -1.7100    0.6710 n4        1 MY5     -0.617600
      3 C3         -1.0910   -0.3590    1.6710 c3        1 MY5     -0.022000
      4 C4         -0.4280    0.0280   -0.6840 c         1 MY5      0.640100
      5 O5         -1.4740    0.6740   -0.7880 o         1 MY5     -0.474100
      6 C6         -2.2230   -1.3610    1.7240 c         1 MY5      0.597100
      7 O7         -1.8840   -2.6160    1.3000 oh        1 MY5     -0.691100
      8 O8         -3.3590   -1.1630    2.1250 o         1 MY5     -0.399000
      9 C9          0.5460   -0.0600   -1.8440 c3        1 MY5     -0.198400
     10 C10         0.1530    1.0070   -2.8820 c3        1 MY5      0.117100
     11 C11         1.2370    1.1230   -3.9620 c         1 MY5      0.549100
     12 O12         2.4200    0.8660   -3.8410 o         1 MY5     -0.385100
     13 N13         0.7540    1.6720   -5.2960 n4        1 MY5     -0.682800
     14 C14         1.7520    1.6280   -6.4290 c3        1 MY5      0.063500
     15 C15         1.3960    0.5460   -7.4440 c3        1 MY5     -0.157100
     16 C16         1.8490    3.0060   -7.1120 c         1 MY5      0.507100
     17 O17         1.2590    3.9980   -6.6970 o         1 MY5     -0.400100
     18 N18         2.7170    3.1440   -8.2980 n4        1 MY5     -0.676800
     19 C19         4.1170    3.6830   -7.9470 c3        1 MY5      0.213100
     20 C20         6.3610    4.5220  -11.4780 ca        1 MY5     -0.033000
     21 C21         5.5180    5.4970  -10.9380 ca        1 MY5     -0.114000
     22 C22         4.7660    5.2180   -9.8000 ca        1 MY5     -0.084500
     23 C23         4.8560    3.9530   -9.1940 ca        1 MY5     -0.237300
     24 C24         5.7020    2.9740   -9.7420 ca        1 MY5     -0.084500
     25 C25         6.4510    3.2610  -10.8780 ca        1 MY5     -0.114000
     26 O28        -1.0430    0.6690   -3.5480 oh        1 MY5     -0.621800
     27 H2N1        1.3790   -1.7170   -0.0650 hn        1 MY5      0.489467
     28 H2N2        1.1290   -1.7240    1.6000 hn        1 MY5      0.489467
     29 H3C1       -0.5650   -0.3700    2.6740 h1        1 MY5      0.158200
     30 H3C2       -1.5450    0.6730    1.5340 h1        1 MY5      0.158200
     31 H9C1        1.6010    0.1280   -1.5070 hc        1 MY5      0.117700
     32 H9C2        0.4770   -1.0800   -2.3090 hc        1 MY5      0.117700
     33 H10         0.0730    2.0210   -2.3800 h1        1 MY5      0.131700
     34 H13         0.4430    2.6470   -5.1340 hn        1 MY5      0.498300
     35 H14         2.7750    1.4030   -5.9780 hx        1 MY5      0.165700
     36 H151        2.2830    0.3280   -8.0930 hc        1 MY5      0.108033
     37 H152        1.1380   -0.4210   -6.9370 hc        1 MY5      0.108033
     38 H153        0.5310    0.8450   -8.0870 hc        1 MY5      0.108033
     39 H18         2.2910    3.8300   -8.9500 hn        1 MY5      0.482300
     40 H191        3.9530    4.6230   -7.3440 hx        1 MY5      0.108200
     41 H192        4.6180    2.8950   -7.3180 hx        1 MY5      0.108200
     42 H24         5.7970    1.9880   -9.2610 ha        1 MY5      0.139000
     43 H25         7.1260    2.4980  -11.3020 ha        1 MY5      0.180000
     44 H28        -1.7960    0.8420   -2.9490 ho        1 MY5      0.502000
     45 H20         6.9630    4.7490  -12.3770 ha        1 MY5      0.185000
     46 H21         5.4560    6.4950  -11.4080 ha        1 MY5      0.180000
     47 H11        -2.6290   -3.2360    1.4320 ho        1 MY5      0.508000
     48 H23         0.0530   -2.5590    0.5950 hn        1 MY5      0.489467
     49 H132       -0.0870    1.1230   -5.5590 hn        1 MY5      0.498300
     50 H182        2.8170    2.2530   -8.7980 hn        1 MY5      0.482300
     51 H22         4.1220    6.0000   -9.3660 ha        1 MY5      0.139000
@<TRIPOS>BOND
     1    1    2 1   
     2    1    3 1   
     3    1    4 1   
     4    2   27 1   
     5    2   28 1   
     6    2   48 1   
     7    3    6 1   
     8    3   29 1   
     9    3   30 1   
    10    4    5 2   
    11    4    9 1   
    12    6    7 1   
    13    6    8 2   
    14    7   47 1   
    15    9   10 1   
    16    9   31 1   
    17    9   32 1   
    18   10   11 1   
    19   10   26 1   
    20   10   33 1   
    21   11   12 2   
    22   11   13 1   
    23   13   14 1   
    24   13   34 1   
    25   13   49 1   
    26   14   15 1   
    27   14   16 1   
    28   14   35 1   
    29   15   36 1   
    30   15   37 1   
    31   15   38 1   
    32   16   17 2   
    33   16   18 1   
    34   18   19 1   
    35   18   39 1   
    36   18   50 1   
    37   19   23 1   
    38   19   40 1   
    39   19   41 1   
    40   20   21 ar  
    41   20   25 ar  
    42   20   45 1   
    43   21   22 ar  
    44   21   46 1   
    45   22   23 ar  
    46   22   51 1   
    47   23   24 ar  
    48   24   25 ar  
    49   24   42 1   
    50   25   43 1   
    51   26   44 1   
@<TRIPOS>SUBSTRUCTURE
     1 MY5         1 TEMP              0 ****  ****    0 ROOT
