@<TRIPOS>MOLECULE
MY5
   47    44     1     0     0
SMALL
bcc


@<TRIPOS>ATOM
      1 N1          0.5690   -2.3500    5.4560 n         1 MY5     -0.319200
      2 N2          1.6180   -1.5310    5.8020 n3        1 MY5     -0.645800
      3 C3          0.5300   -3.7200    5.9320 c3        1 MY5     -0.061000
      4 C4         -0.4590   -1.8620    4.6150 c         1 MY5      0.666100
      5 O5         -1.5940   -2.1060    4.8620 o         1 MY5     -0.703100
      6 C6         -0.1200   -3.7600    7.3280 c         1 MY5      0.907600
      7 O7          0.5570   -4.1840    8.3430 o         1 MY5     -0.827800
      8 O8         -1.3580   -3.4620    7.4650 o         1 MY5     -0.827800
      9 C9         -0.1090   -0.9410    3.4300 c3        1 MY5     -0.174400
     10 C10        -1.2680   -0.9140    2.4520 c3        1 MY5      0.103100
     11 C11        -0.7330   -0.7720    1.0370 c         1 MY5      0.634100
     12 O12         0.1680   -1.4410    0.6780 o         1 MY5     -0.661100
     13 N13        -1.3530    0.1190    0.1360 n         1 MY5     -0.547900
     14 C14        -1.1780   -0.0530   -1.2600 c3        1 MY5      0.043700
     15 C15        -2.3520   -0.8470   -1.8280 c3        1 MY5     -0.099100
     16 C16        -1.1100    1.2950   -1.9300 c         1 MY5      0.644100
     17 O17        -1.8830    2.1570   -1.6190 o         1 MY5     -0.628100
     18 N18        -0.1910    1.5090   -3.0470 n         1 MY5     -0.560900
     19 C19        -0.5040    2.4750   -4.0550 c3        1 MY5      0.097100
     20 C20         2.9790    3.3380   -6.4510 c1        1 MY5     -0.072500
     21 C21         2.5300    4.2570   -5.5110 c1        1 MY5     -0.072500
     22 C22         1.4170    3.9700   -4.7300 c1        1 MY5     -0.072500
     23 C23         0.7560    2.7710   -4.8880 c1        1 MY5     -0.071100
     24 C24         1.2050    1.8460   -5.8330 c1        1 MY5     -0.058500
     25 C25         2.3150    2.1330   -6.6110 c1        1 MY5     -0.072500
     26 O28        -1.9990   -2.1110    2.5600 oh        1 MY5     -0.604800
     27 H2N1        2.3900   -1.9050    5.5340 hn        1 MY5      0.369800
     28 H2N2        1.6330   -1.4200    6.7110 hn        1 MY5      0.369800
     29 H3C1        0.0010   -4.2760    5.3030 h1        1 MY5      0.048700
     30 H3C2        1.4440   -4.0720    5.9900 h1        1 MY5      0.048700
     31 H9C1        0.0560   -0.0710    3.7470 hc        1 MY5      0.089200
     32 H9C2        0.6990   -1.2840    2.9740 hc        1 MY5      0.089200
     33 H10        -1.8550   -0.1520    2.6590 h1        1 MY5      0.092700
     34 H13        -1.9100    0.7550    0.4450 hn        1 MY5      0.354500
     35 H14        -0.3300   -0.5490   -1.4280 h1        1 MY5      0.078700
     36 H151       -3.1560   -0.5910   -1.3820 hc        1 MY5      0.056033
     37 H152       -2.4350   -0.6680   -2.7610 hc        1 MY5      0.056033
     38 H153       -2.1970   -1.7870   -1.6950 hc        1 MY5      0.056033
     39 H18         0.5940    1.0180   -3.1020 hn        1 MY5      0.338500
     40 H191       -0.8160    3.3000   -3.6320 h1        1 MY5      0.063700
     41 H192       -1.2210    2.1140   -4.6500 h1        1 MY5      0.063700
     42 H20         3.8470    3.5140   -6.9630 ha        1 MY5      0.072250
     43 H21         3.0040    5.1040   -5.3910 ha        1 MY5      0.072250
     44 H22         1.1740    4.5710   -3.9770 ha        1 MY5      0.072250
     45 H24         0.7860    0.9760   -5.8920 ha        1 MY5      0.078500
     46 H25         2.7420    1.5410   -7.3200 ha        1 MY5      0.072250
     47 H28        -2.8840   -1.9320    2.4970 ho        1 MY5      0.440000
@<TRIPOS>BOND
     1    1    2 1   
     2    1    3 1   
     3    1    4 1   
     4    2   27 1   
     5    2   28 1   
     6    3    6 1   
     7    3   29 1   
     8    3   30 1   
     9    4    5 2   
    10    4    9 1   
    11    6    7 1   
    12    6    8 1   
    13    9   10 1   
    14    9   31 1   
    15    9   32 1   
    16   10   11 1   
    17   10   26 1   
    18   10   33 1   
    19   11   12 2   
    20   11   13 1   
    21   13   14 1   
    22   13   34 1   
    23   14   15 1   
    24   14   16 1   
    25   14   35 1   
    26   15   36 1   
    27   15   37 1   
    28   15   38 1   
    29   16   17 2   
    30   16   18 1   
    31   18   19 1   
    32   18   39 1   
    33   19   23 1   
    34   19   40 1   
    35   19   41 1   
    36   20   25 3   
    37   20   42 1   
    38   21   22 3   
    39   21   43 1   
    40   22   44 1   
    41   23   24 3   
    42   24   45 1   
    43   25   46 1   
    44   26   47 1   
@<TRIPOS>SUBSTRUCTURE
     1 MY5         1 TEMP              0 ****  ****    0 ROOT
