@<TRIPOS>MOLECULE
MY5
   51    51     1     0     0
SMALL
bcc


@<TRIPOS>ATOM
      1 N1         -0.0720   -0.4880    0.6240 n         1 MY5     -0.346200
      2 N2          0.6860   -1.6650    0.7010 nz        1 MY5     -0.617600
      3 C3         -1.0900   -0.3310    1.6790 c3        1 MY5     -0.022000
      4 C4         -0.4210    0.0430   -0.6760 c         1 MY5      0.640100
      5 O5         -1.4760    0.6720   -0.7900 o         1 MY5     -0.474100
      6 C6         -2.2070   -1.3480    1.7380 c         1 MY5      0.597100
      7 O7         -1.8470   -2.6030    1.3270 oh        1 MY5     -0.691100
      8 O8         -3.3470   -1.1640    2.1320 o         1 MY5     -0.399000
      9 C9          0.5590   -0.0420   -1.8310 c3        1 MY5     -0.198400
     10 C10         0.1550    1.0090   -2.8820 c3        1 MY5      0.117100
     11 C11         1.2410    1.1290   -3.9580 c         1 MY5      0.549100
     12 O12         2.4270    0.8900   -3.8300 o         1 MY5     -0.385100
     13 N13         0.7570    1.6580   -5.3000 ny        1 MY5     -0.682800
     14 C14         1.7590    1.6140   -6.4280 c3        1 MY5      0.063500
     15 C15         1.4230    0.5130   -7.4290 c3        1 MY5     -0.157100
     16 C16         1.8370    2.9840   -7.1300 c         1 MY5      0.507100
     17 O17         1.2300    3.9730   -6.7310 o         1 MY5     -0.399100
     18 N18         2.7050    3.1190   -8.3160 ny        1 MY5     -0.676800
     19 C19         4.0960    3.6840   -7.9690 c3        1 MY5      0.213100
     20 C20         6.3360    4.5080  -11.5060 ca        1 MY5     -0.033000
     21 C21         5.4760    5.4780  -10.9810 ca        1 MY5     -0.114000
     22 C22         4.7250    5.2030   -9.8420 ca        1 MY5     -0.084500
     23 C23         4.8340    3.9480   -9.2180 ca        1 MY5     -0.237300
     24 C24         5.6970    2.9750   -9.7490 ca        1 MY5     -0.084500
     25 C25         6.4440    3.2580  -10.8880 ca        1 MY5     -0.114000
     26 O28        -1.0340    0.6470   -3.5490 oh        1 MY5     -0.621800
     27 H2N1        1.1510   -1.6630    1.6320 hn        1 MY5      0.489467
     28 H2N2        0.0920   -2.5240    0.6310 hn        1 MY5      0.489467
     29 H3C1       -1.5580    0.6940    1.5300 h1        1 MY5      0.158200
     30 H3C2       -0.5680   -0.3240    2.6850 h1        1 MY5      0.158200
     31 H9C1        0.5070   -1.0680   -2.2860 hc        1 MY5      0.117700
     32 H9C2        1.6100    0.1650   -1.4910 hc        1 MY5      0.117700
     33 H10         0.0580    2.0260   -2.3900 h1        1 MY5      0.131700
     34 H13         0.4340    2.6310   -5.1480 hn        1 MY5      0.497800
     35 H14         2.7840    1.4120   -5.9710 hx        1 MY5      0.165700
     36 H151        1.1780   -0.4510   -6.9100 hc        1 MY5      0.107700
     37 H152        0.5560    0.7890   -8.0790 hc        1 MY5      0.107700
     38 H153        2.3160    0.2990   -8.0720 hc        1 MY5      0.107700
     39 H18         2.8210    2.2220   -8.8030 hn        1 MY5      0.482300
     40 H191        4.6070    2.9130   -7.3280 hx        1 MY5      0.108200
     41 H192        3.9160    4.6300   -7.3800 hx        1 MY5      0.108200
     42 H24         5.8060    1.9980   -9.2550 ha        1 MY5      0.139000
     43 H25         7.1320    2.4990  -11.3000 ha        1 MY5      0.180000
     44 H28        -1.7910    0.8140   -2.9540 ho        1 MY5      0.502000
     45 H20         6.9370    4.7320  -12.4060 ha        1 MY5      0.185000
     46 H21         5.4000    6.4670  -11.4660 ha        1 MY5      0.180000
     47 H11        -2.5840   -3.2320    1.4620 ho        1 MY5      0.508000
     48 H23         1.4090   -1.6690   -0.0320 hn        1 MY5      0.489467
     49 H132       -0.0780    1.0970   -5.5590 hn        1 MY5      0.497800
     50 H182        2.2700    3.7890   -8.9790 hn        1 MY5      0.482300
     51 H22         4.0690    5.9810   -9.4210 ha        1 MY5      0.139000
@<TRIPOS>BOND
     1    1    2 1   
     2    1    3 1   
     3    1    4 1   
     4    2   27 1   
     5    2   28 1   
     6    2   48 1   
     7    3    6 1   
     8    3   29 1   
     9    3   30 1   
    10    4    5 2   
    11    4    9 1   
    12    6    7 1   
    13    6    8 2   
    14    7   47 1   
    15    9   10 1   
    16    9   31 1   
    17    9   32 1   
    18   10   11 1   
    19   10   26 1   
    20   10   33 1   
    21   11   12 2   
    22   11   13 1   
    23   13   14 1   
    24   13   34 1   
    25   13   49 1   
    26   14   15 1   
    27   14   16 1   
    28   14   35 1   
    29   15   36 1   
    30   15   37 1   
    31   15   38 1   
    32   16   17 2   
    33   16   18 1   
    34   18   19 1   
    35   18   39 1   
    36   18   50 1   
    37   19   23 1   
    38   19   40 1   
    39   19   41 1   
    40   20   21 ar  
    41   20   25 ar  
    42   20   45 1   
    43   21   22 ar  
    44   21   46 1   
    45   22   23 ar  
    46   22   51 1   
    47   23   24 ar  
    48   24   25 ar  
    49   24   42 1   
    50   25   43 1   
    51   26   44 1   
@<TRIPOS>SUBSTRUCTURE
     1 MY5         1 TEMP              0 ****  ****    0 ROOT
