@<TRIPOS>MOLECULE
MY5
   47    47     1     0     0
SMALL
bcc


@<TRIPOS>ATOM
      1 N1          3.3070   -0.9950   -0.0650 n         1 MY5     -0.323200
      2 N2          3.3910   -1.9060    0.9580 n3        1 MY5     -0.647800
      3 C3          4.0430   -1.1610   -1.3200 c3        1 MY5     -0.060000
      4 C4          2.6500    0.2040    0.1480 c         1 MY5      0.666100
      5 O5          2.6140    1.0730   -0.7610 o         1 MY5     -0.688100
      6 C6          4.8330   -2.4890   -1.4960 c         1 MY5      0.907600
      7 O7          5.4030   -3.0140   -0.4960 o         1 MY5     -0.829300
      8 O8          4.8800   -2.9420   -2.6680 o         1 MY5     -0.829300
      9 C9          1.9500    0.4480    1.4720 c3        1 MY5     -0.171400
     10 C10         1.3610    1.8540    1.5460 c3        1 MY5      0.088100
     11 C11        -0.0510    1.8880    0.9440 c         1 MY5      0.632100
     12 O12        -1.0480    1.8960    1.7060 o         1 MY5     -0.667100
     13 N13        -0.1720    1.9270   -0.4190 n         1 MY5     -0.548900
     14 C14        -1.4450    2.0630   -1.0790 c3        1 MY5      0.044700
     15 C15        -1.3160    2.7350   -2.4450 c3        1 MY5     -0.096100
     16 C16        -2.2000    0.7200   -1.2680 c         1 MY5      0.637100
     17 O17        -2.6590    0.3950   -2.3810 o         1 MY5     -0.626100
     18 N18        -2.3480   -0.0810   -0.1570 n         1 MY5     -0.555900
     19 C19        -3.0640   -1.3250   -0.2020 c3        1 MY5      0.132300
     20 C20        -7.2650   -1.0820    0.6760 ca        1 MY5     -0.133000
     21 C21        -6.7660   -0.5570   -0.5160 ca        1 MY5     -0.137500
     22 C22        -5.4020   -0.6280   -0.7940 ca        1 MY5     -0.115500
     23 C23        -4.5300   -1.2260    0.1230 ca        1 MY5     -0.111300
     24 C24        -5.0320   -1.7480    1.3180 ca        1 MY5     -0.115500
     25 C25        -6.3980   -1.6770    1.5920 ca        1 MY5     -0.137500
     26 O28         1.3040    2.3020    2.8860 oh        1 MY5     -0.591800
     27 H2N1        3.0860   -2.8010    0.5840 hn        1 MY5      0.367800
     28 H2N2        4.3800   -2.0390    1.1770 hn        1 MY5      0.367800
     29 H3C1        3.3000   -1.0680   -2.1590 h1        1 MY5      0.048700
     30 H3C2        4.7800   -0.3160   -1.4130 h1        1 MY5      0.048700
     31 H9C1        1.1510   -0.3230    1.6220 hc        1 MY5      0.085200
     32 H9C2        2.6900    0.3380    2.3100 hc        1 MY5      0.085200
     33 H10         2.0360    2.5930    1.0250 h1        1 MY5      0.115700
     34 H13         0.6420    1.7910   -0.9860 hn        1 MY5      0.364500
     35 H14        -2.1130    2.6990   -0.4180 h1        1 MY5      0.079700
     36 H151       -2.3350    2.8390   -2.8900 hc        1 MY5      0.054033
     37 H152       -0.8540    3.7450   -2.3410 hc        1 MY5      0.054033
     38 H153       -0.6960    2.1150   -3.1370 hc        1 MY5      0.054033
     39 H18        -2.1520    0.3020    0.7420 hn        1 MY5      0.335500
     40 H191       -2.9610   -1.7600   -1.2400 h1        1 MY5      0.067700
     41 H192       -2.5680   -2.0300    0.5280 h1        1 MY5      0.067700
     42 H22        -4.9950   -0.2170   -1.7340 ha        1 MY5      0.144500
     43 H24        -4.3500   -2.2160    2.0430 ha        1 MY5      0.144500
     44 H25        -6.7890   -2.0900    2.5320 ha        1 MY5      0.126000
     45 H28         0.5630    1.8520    3.3170 ho        1 MY5      0.417000
     46 H20        -8.3410   -1.0260    0.8940 ha        1 MY5      0.123000
     47 H21        -7.4480   -0.0870   -1.2390 ha        1 MY5      0.126000
@<TRIPOS>BOND
     1    1    2 1   
     2    1    3 1   
     3    1    4 1   
     4    2   27 1   
     5    2   28 1   
     6    3    6 1   
     7    3   29 1   
     8    3   30 1   
     9    4    5 2   
    10    4    9 1   
    11    6    7 1   
    12    6    8 1   
    13    9   10 1   
    14    9   31 1   
    15    9   32 1   
    16   10   11 1   
    17   10   26 1   
    18   10   33 1   
    19   11   12 2   
    20   11   13 1   
    21   13   14 1   
    22   13   34 1   
    23   14   15 1   
    24   14   16 1   
    25   14   35 1   
    26   15   36 1   
    27   15   37 1   
    28   15   38 1   
    29   16   17 2   
    30   16   18 1   
    31   18   19 1   
    32   18   39 1   
    33   19   23 1   
    34   19   40 1   
    35   19   41 1   
    36   20   21 ar  
    37   20   25 ar  
    38   20   46 1   
    39   21   22 ar  
    40   21   47 1   
    41   22   23 ar  
    42   22   42 1   
    43   23   24 ar  
    44   24   25 ar  
    45   24   43 1   
    46   25   44 1   
    47   26   45 1   
@<TRIPOS>SUBSTRUCTURE
     1 MY5         1 TEMP              0 ****  ****    0 ROOT
