@<TRIPOS>MOLECULE
MY6
   20    21     1     0     0
SMALL
bcc


@<TRIPOS>ATOM
      1 C1         -0.0010   -0.0080   -0.0310 c3        1 MY6     -0.005400
      2 N2          3.5720   -0.2490    0.8420 nc        1 MY6     -0.582000
      3 C3          2.5290   -0.2160   -0.0220 cd        1 MY6      0.458400
      4 N4          1.2790   -0.0740    0.6090 na        1 MY6     -0.128900
      5 C5          1.5450   -0.0130    1.9650 cd        1 MY6     -0.266200
      6 C6          0.6720    0.1290    3.1180 c         1 MY6      0.753100
      7 O7         -0.5580    0.2310    3.1330 o         1 MY6     -0.552500
      8 N8          1.3690    0.1470    4.3590 n         1 MY6     -0.492400
      9 C9          2.7680    0.0330    4.3860 cd        1 MY6      0.476800
     10 N10         3.4280    0.0610    5.7320 n4        1 MY6     -0.792600
     11 N11         3.5960   -0.0980    3.3540 nc        1 MY6     -0.549700
     12 C12         2.9830   -0.1230    2.1100 cc        1 MY6      0.510300
     13 H1         -0.0250    0.8730   -0.7280 h1        1 MY6      0.089700
     14 H1A        -0.8070    0.1060    0.7460 h1        1 MY6      0.089700
     15 H1B        -0.1760   -0.9510   -0.6170 h1        1 MY6      0.089700
     16 HN8         0.8280    0.2420    5.1910 hn        1 MY6      0.353500
     17 HN10        4.4500   -0.0310    5.6150 hn        1 MY6      0.483467
     18 HN1A        3.2220    0.9520    6.1980 hn        1 MY6      0.483467
     19 H103        3.0840   -0.7220    6.3000 hn        1 MY6      0.483467
     20 H3          2.6250   -0.2910   -1.1170 h5        1 MY6      0.101100
@<TRIPOS>BOND
     1    1    4 1   
     2    1   13 1   
     3    1   14 1   
     4    1   15 1   
     5    2    3 2   
     6    2   12 1   
     7    3    4 1   
     8    3   20 1   
     9    4    5 1   
    10    5    6 1   
    11    5   12 2   
    12    6    7 2   
    13    6    8 1   
    14    8    9 1   
    15    8   16 1   
    16    9   10 1   
    17    9   11 2   
    18   10   17 1   
    19   10   18 1   
    20   10   19 1   
    21   11   12 1   
@<TRIPOS>SUBSTRUCTURE
     1 MY6         1 TEMP              0 ****  ****    0 ROOT
