@<TRIPOS>MOLECULE
MY6
   19    20     1     0     0
SMALL
bcc


@<TRIPOS>ATOM
      1 C1          2.9940    0.9690   -0.0060 c3        1 MY6      0.012600
      2 N2          1.0110   -2.1280   -0.1200 nc        1 MY6     -0.645000
      3 C3          2.1700   -1.4240   -0.1070 cd        1 MY6      0.437400
      4 N4          1.9860   -0.0390   -0.0380 na        1 MY6     -0.162900
      5 C5          0.6050    0.1550   -0.0060 cd        1 MY6     -0.346200
      6 C6         -0.1980    1.3540    0.0750 c         1 MY6      0.750100
      7 O7          0.2120    2.5300    0.1260 o         1 MY6     -0.645500
      8 N8         -1.5830    1.1040    0.0800 n         1 MY6     -0.490400
      9 C9         -2.1120   -0.2110    0.0540 cd        1 MY6      0.641800
     10 N10        -3.5220   -0.3230    0.2040 nh        1 MY6     -0.878800
     11 N11        -1.3760   -1.3340   -0.0450 nc        1 MY6     -0.690700
     12 C12        -0.0020   -1.1540   -0.0550 cc        1 MY6      0.585300
     13 H1          3.6170    0.9160   -0.9390 h1        1 MY6      0.068033
     14 H1A         2.5070    1.9820    0.0610 h1        1 MY6      0.068033
     15 H1B         3.6590    0.8150    0.8870 h1        1 MY6      0.068033
     16 HN8        -2.1900    1.8850    0.2040 hn        1 MY6      0.338500
     17 HN10       -4.0410    0.3000   -0.3780 hn        1 MY6      0.411300
     18 HN1A       -3.8520   -1.2650    0.1520 hn        1 MY6      0.411300
     19 H3          3.1690   -1.8770   -0.1460 h5        1 MY6      0.067100
@<TRIPOS>BOND
     1    1    4 1   
     2    1   13 1   
     3    1   14 1   
     4    1   15 1   
     5    2    3 2   
     6    2   12 1   
     7    3    4 1   
     8    3   19 1   
     9    4    5 1   
    10    5    6 1   
    11    5   12 2   
    12    6    7 2   
    13    6    8 1   
    14    8    9 1   
    15    8   16 1   
    16    9   10 1   
    17    9   11 2   
    18   10   17 1   
    19   10   18 1   
    20   11   12 1   
@<TRIPOS>SUBSTRUCTURE
     1 MY6         1 TEMP              0 ****  ****    0 ROOT
