@<TRIPOS>MOLECULE
MY6
   20    21     1     0     0
SMALL
bcc


@<TRIPOS>ATOM
      1 C1         -0.0020   -0.0000   -0.0230 c3        1 MY6      0.002600
      2 N2          3.5870    0.0010    0.8330 nc        1 MY6     -0.584000
      3 C3          2.5430    0.0010   -0.0320 cd        1 MY6      0.460400
      4 N4          1.2870    0.0000    0.6020 na        1 MY6     -0.129900
      5 C5          1.5490   -0.0000    1.9610 cd        1 MY6     -0.269200
      6 C6          0.6680   -0.0010    3.1150 c         1 MY6      0.752100
      7 O7         -0.5670   -0.0010    3.1310 o         1 MY6     -0.548500
      8 N8          1.3630   -0.0010    4.3590 n         1 MY6     -0.493400
      9 C9          2.7660    0.0000    4.3840 cd        1 MY6      0.478800
     10 N10         3.4220    0.0000    5.7320 n4        1 MY6     -0.793600
     11 N11         3.6010    0.0010    3.3500 nc        1 MY6     -0.550700
     12 C12         2.9910    0.0010    2.1040 cc        1 MY6      0.512300
     13 H1          0.1280   -0.0010   -1.1380 h1        1 MY6      0.087033
     14 H1A        -0.5760    0.9140    0.2920 h1        1 MY6      0.087033
     15 H1B        -0.5760   -0.9140    0.2930 h1        1 MY6      0.087033
     16 HN8         0.8160   -0.0010    5.1930 hn        1 MY6      0.352500
     17 HN10        3.1450   -0.8410    6.2510 hn        1 MY6      0.483467
     18 HN1A        4.4490    0.0010    5.6140 hn        1 MY6      0.483467
     19 H103        3.1440    0.8420    6.2500 hn        1 MY6      0.483467
     20 H3          2.6450    0.0010   -1.1280 h5        1 MY6      0.100100
@<TRIPOS>BOND
     1    1    4 1   
     2    1   13 1   
     3    1   14 1   
     4    1   15 1   
     5    2    3 2   
     6    2   12 1   
     7    3    4 1   
     8    3   20 1   
     9    4    5 1   
    10    5    6 1   
    11    5   12 2   
    12    6    7 2   
    13    6    8 1   
    14    8    9 1   
    15    8   16 1   
    16    9   10 1   
    17    9   11 2   
    18   10   17 1   
    19   10   18 1   
    20   10   19 1   
    21   11   12 1   
@<TRIPOS>SUBSTRUCTURE
     1 MY6         1 TEMP              0 ****  ****    0 ROOT
