@<TRIPOS>MOLECULE
MYB
   64    63     1     0     0
SMALL
bcc


@<TRIPOS>ATOM
      1 N2         -9.2030    2.0300    0.0580 n3        1 MYB     -0.896800
      2 C7         -6.8920    2.1130    0.9340 c3        1 MYB      0.139400
      3 C6         -7.8570    1.5180   -0.1120 c3        1 MYB      0.089500
      4 C13        -1.8230   -2.0690    0.2120 c3        1 MYB     -0.050200
      5 C8         -7.7450   -0.0270   -0.0640 c3        1 MYB      0.067100
      6 C14        -0.7350   -1.0810    0.5850 c3        1 MYB     -0.076400
      7 C12        -3.1510   -1.6240    0.6980 c2        1 MYB     -0.161200
      8 C11        -4.2580   -1.6550   -0.0480 c2        1 MYB     -0.179200
      9 O5         -6.6320   -1.3490   -1.7520 oh        1 MYB     -0.597800
     10 O4         -6.6210    3.4730    0.6830 oh        1 MYB     -0.596800
     11 OAJ        -8.8110   -0.6250   -0.7830 oh        1 MYB     -0.605800
     12 CBN        -6.3950   -0.5230   -0.6250 c3        1 MYB      0.110100
     13 C15         0.6200   -1.5570    0.1060 c3        1 MYB     -0.079400
     14 C16         1.7070   -0.5680    0.4690 c3        1 MYB     -0.078400
     15 C17         3.0610   -1.0490   -0.0060 c3        1 MYB     -0.075400
     16 C18         4.1480   -0.0600    0.3540 c3        1 MYB     -0.182400
     17 C19         5.5030   -0.4800   -0.1460 c         1 MYB      0.564100
     18 C20         6.6460    0.2850    0.4590 c3        1 MYB     -0.182400
     19 C21         7.9350    0.1160   -0.3150 c3        1 MYB     -0.075400
     20 C22         9.0770    0.8430    0.3600 c3        1 MYB     -0.078400
     21 C23        10.3640    0.6830   -0.4200 c3        1 MYB     -0.079400
     22 C24        11.5110    1.4060    0.2540 c3        1 MYB     -0.080400
     23 C25        12.7940    1.2490   -0.5200 c3        1 MYB     -0.093100
     24 O19         5.6610   -1.3770   -0.9790 o         1 MYB     -0.529100
     25 HN1        -9.8030    1.6410   -0.6450 hn        1 MYB      0.353300
     26 HN2        -9.5640    1.7740    0.9580 hn        1 MYB      0.353300
     27 H6         -7.5110    1.8630   -1.1330 h1        1 MYB      0.077700
     28 H71C       -7.3000    1.9820    1.9720 h1        1 MYB      0.045200
     29 H72C       -5.8920    1.6060    0.8610 h1        1 MYB      0.045200
     30 H4         -7.4650    3.9410    0.6490 ho        1 MYB      0.416000
     31 H8         -7.8970   -0.3870    0.9930 h1        1 MYB      0.076700
     32 H131       -1.8330   -2.2110   -0.9010 hc        1 MYB      0.049200
     33 H132       -1.5890   -3.0700    0.6700 hc        1 MYB      0.049200
     34 H141       -0.9650   -0.0810    0.1320 hc        1 MYB      0.041700
     35 H142       -0.7150   -0.9440    1.6980 hc        1 MYB      0.041700
     36 H12        -3.1740   -1.2680    1.7420 ha        1 MYB      0.119000
     37 HAJ        -8.6760   -0.4270   -1.7210 ho        1 MYB      0.417000
     38 HBN        -5.7950    0.3350   -1.0430 h1        1 MYB      0.090700
     39 H11        -4.2420   -1.9990   -1.0970 ha        1 MYB      0.137000
     40 H101       -6.1570   -2.1690    0.7730 hc        1 MYB      0.053700
     41 H102       -5.5000   -0.5820    1.3490 hc        1 MYB      0.053700
     42 H5         -7.0890   -2.1420   -1.4400 ho        1 MYB      0.411000
     43 H151        0.8520   -2.5550    0.5640 hc        1 MYB      0.043200
     44 H152        0.5980   -1.7000   -1.0060 hc        1 MYB      0.043200
     45 H161        1.4770    0.4280    0.0070 hc        1 MYB      0.038700
     46 H162        1.7270   -0.4210    1.5810 hc        1 MYB      0.038700
     47 H171        3.2960   -2.0450    0.4540 hc        1 MYB      0.054700
     48 H172        3.0490   -1.1990   -1.1180 hc        1 MYB      0.054700
     49 H181        3.9140    0.9440   -0.0910 hc        1 MYB      0.063700
     50 H182        4.1960    0.0700    1.4670 hc        1 MYB      0.063700
     51 H201        6.3710    1.3710    0.5130 hc        1 MYB      0.063200
     52 H202        6.7840   -0.0790    1.5120 hc        1 MYB      0.063200
     53 H211        8.1740   -0.9770   -0.4050 hc        1 MYB      0.054700
     54 H212        7.7980    0.5060   -1.3580 hc        1 MYB      0.054700
     55 H221        8.8280    1.9330    0.4550 hc        1 MYB      0.037200
     56 H222        9.2160    0.4440    1.4000 hc        1 MYB      0.037200
     57 H231       10.6120   -0.4070   -0.5160 hc        1 MYB      0.042200
     58 H232       10.2270    1.0830   -1.4590 hc        1 MYB      0.042200
     59 H241       11.2600    2.4950    0.3520 hc        1 MYB      0.037700
     60 H242       11.6460    1.0050    1.2930 hc        1 MYB      0.037700
     61 H251       13.0730    0.1710   -0.6060 hc        1 MYB      0.033367
     62 H252       12.6870    1.6660   -1.5500 hc        1 MYB      0.033367
     63 H253       13.6260    1.7890   -0.0060 hc        1 MYB      0.033367
     64 C10        -5.5920   -1.2500    0.4520 c3        1 MYB     -0.076200
@<TRIPOS>BOND
     1    1    3 1   
     2    1   25 1   
     3    1   26 1   
     4    2    3 1   
     5    2   10 1   
     6    2   28 1   
     7    2   29 1   
     8    3    5 1   
     9    3   27 1   
    10    4    6 1   
    11    4    7 1   
    12    4   32 1   
    13    4   33 1   
    14    5   11 1   
    15    5   12 1   
    16    5   31 1   
    17    6   13 1   
    18    6   34 1   
    19    6   35 1   
    20    7    8 2   
    21    7   36 1   
    22    8   39 1   
    23    8   64 1   
    24    9   12 1   
    25    9   42 1   
    26   10   30 1   
    27   11   37 1   
    28   12   38 1   
    29   12   64 1   
    30   13   14 1   
    31   13   43 1   
    32   13   44 1   
    33   14   15 1   
    34   14   45 1   
    35   14   46 1   
    36   15   16 1   
    37   15   47 1   
    38   15   48 1   
    39   16   17 1   
    40   16   49 1   
    41   16   50 1   
    42   17   18 1   
    43   17   24 2   
    44   18   19 1   
    45   18   51 1   
    46   18   52 1   
    47   19   20 1   
    48   19   53 1   
    49   19   54 1   
    50   20   21 1   
    51   20   55 1   
    52   20   56 1   
    53   21   22 1   
    54   21   57 1   
    55   21   58 1   
    56   22   23 1   
    57   22   59 1   
    58   22   60 1   
    59   23   61 1   
    60   23   62 1   
    61   23   63 1   
    62   40   64 1   
    63   41   64 1   
@<TRIPOS>SUBSTRUCTURE
     1 MYB         1 TEMP              0 ****  ****    0 ROOT
