@<TRIPOS>MOLECULE
MYB
   64    62     1     0     0
SMALL
bcc


@<TRIPOS>ATOM
      1 N2         -4.7160    6.5700   -5.4680 n3        1 MYB     -0.330000
      2 C7         -2.6850    5.6970   -6.3940 c3        1 MYB     -0.067000
      3 C6         -3.8630    5.4310   -5.4850 c3        1 MYB     -0.066000
      4 C13        -2.7440    1.4640   -0.3970 c3        1 MYB     -0.130000
      5 C8         -3.3670    5.1530   -4.0850 c3        1 MYB     -0.011000
      6 C14        -2.4160    0.7390    0.8900 c3        1 MYB     -0.156000
      7 C12        -3.9920    2.2970   -0.2020 c2        1 MYB     -0.178000
      8 C11        -4.3570    3.1930   -1.1400 c1        1 MYB     -0.157000
      9 C10        -3.5190    3.3670   -2.3880 c2        1 MYB     -0.135000
     10 O5         -5.3320    4.8710   -2.7630 oh        1 MYB     -0.316000
     11 O4         -3.1360    5.8210   -7.7240 oh        1 MYB     -0.328000
     12 OAJ        -3.3380    6.3540   -3.3500 oh        1 MYB     -0.315000
     13 CBN        -4.2940    4.1700   -3.4080 c3        1 MYB      0.055000
     14 C15        -1.3840   -0.3320    0.6150 c3        1 MYB     -0.158000
     15 C16        -0.8220   -0.8380    1.9260 c3        1 MYB     -0.157000
     16 C17         0.1750   -1.9430    1.6540 c3        1 MYB     -0.154000
     17 C18         0.8800   -2.3140    2.9400 c3        1 MYB     -0.211000
     18 C19         1.9480   -3.3450    2.6500 c2        1 MYB      0.226000
     19 C20         3.1920   -3.4090    3.5090 c3        1 MYB     -0.211000
     20 C21         3.9100   -4.7170    3.2620 c3        1 MYB     -0.154000
     21 C22         5.2550   -4.6920    3.9530 c3        1 MYB     -0.157000
     22 C23         5.9570   -6.0150    3.7390 c3        1 MYB     -0.158000
     23 C24         7.3430   -5.9550    4.3430 c3        1 MYB     -0.159000
     24 C25         8.0480   -7.2740    4.1190 c3        1 MYB     -0.211000
     25 O19         1.8040   -4.1280    1.7320 o         1 MYB     -0.291000
     26 HN1        -4.2920    7.2740   -5.8720 hn        1 MYB      0.155000
     27 HN2        -5.4890    6.3790   -5.9200 hn        1 MYB      0.155000
     28 H6         -4.3610    4.6570   -5.8140 h1        1 MYB      0.121000
     29 H71C       -2.2430    6.5270   -6.1200 h1        1 MYB      0.062500
     30 H72C       -2.0510    4.9530   -6.3320 h1        1 MYB      0.062500
     31 H4         -2.4380    5.8390   -8.2740 ho        1 MYB      0.206000
     32 H8         -2.4670    4.7750   -4.1280 h1        1 MYB      0.082000
     33 H131       -1.9980    2.0470   -0.6430 hc        1 MYB      0.084500
     34 H132       -2.8960    0.8110   -1.1090 hc        1 MYB      0.084500
     35 H141       -2.0590    1.3760    1.5410 hc        1 MYB      0.080500
     36 H142       -3.2270    0.3270    1.2480 hc        1 MYB      0.080500
     37 H12        -4.5330    2.1850    0.6030 ha        1 MYB      0.122000
     38 HAJ        -2.5020    6.6520   -3.3030 ho        1 MYB      0.198000
     39 HBN        -4.6750    3.5670   -4.0760 h1        1 MYB      0.092000
     40 H11        -5.1630    3.7310   -1.0140 ha        1 MYB      0.141000
     41 H101       -3.3030    2.4880   -2.7600 ha        1 MYB      0.095000
     42 H102       -2.6920    3.8380   -2.1620 ha        1 MYB      0.095000
     43 H5         -6.0960    4.7330   -3.1970 ho        1 MYB      0.219000
     44 H151       -0.6610    0.0420    0.0740 hc        1 MYB      0.081000
     45 H152       -1.8030   -1.0730    0.1330 hc        1 MYB      0.081000
     46 H161       -0.3760   -0.1050    2.3940 hc        1 MYB      0.077500
     47 H162       -1.5490   -1.1850    2.4800 hc        1 MYB      0.077500
     48 H171       -0.2930   -2.7260    1.3010 hc        1 MYB      0.094000
     49 H172        0.8330   -1.6340    0.9990 hc        1 MYB      0.094000
     50 H181        0.2320   -2.6850    3.5720 hc        1 MYB      0.103000
     51 H182        1.2930   -1.5170    3.3270 hc        1 MYB      0.103000
     52 H201        2.9400   -3.3490    4.4530 hc        1 MYB      0.103000
     53 H202        3.7830   -2.6640    3.2820 hc        1 MYB      0.103000
     54 H211        4.0400   -4.8400    2.3000 hc        1 MYB      0.094000
     55 H212        3.3750   -5.4550    3.6160 hc        1 MYB      0.094000
     56 H221        5.8000   -3.9700    3.5820 hc        1 MYB      0.077000
     57 H222        5.1270   -4.5430    4.9120 hc        1 MYB      0.077000
     58 H231        5.4450   -6.7290    4.1680 hc        1 MYB      0.081500
     59 H232        6.0270   -6.1950    2.7800 hc        1 MYB      0.081500
     60 H241        7.8530   -5.2360    3.9180 hc        1 MYB      0.077000
     61 H242        7.2730   -5.7820    5.3030 hc        1 MYB      0.077000
     62 H251        8.0930   -7.4620    3.1580 hc        1 MYB      0.072333
     63 H252        8.9560   -7.2250    4.4840 hc        1 MYB      0.072333
     64 H253        7.5530   -7.9900    4.5690 hc        1 MYB      0.072333
@<TRIPOS>BOND
     1    1    3 1   
     2    1   26 1   
     3    1   27 1   
     4    2    3 1   
     5    2   11 1   
     6    2   29 1   
     7    2   30 1   
     8    3    5 1   
     9    3   28 1   
    10    4    6 1   
    11    4    7 1   
    12    4   33 1   
    13    4   34 1   
    14    5   12 1   
    15    5   13 1   
    16    5   32 1   
    17    6   14 1   
    18    6   35 1   
    19    6   36 1   
    20    7    8 1   
    21    7   37 1   
    22    8   40 1   
    23    9   13 1   
    24    9   41 1   
    25    9   42 1   
    26   10   13 1   
    27   10   43 1   
    28   11   31 1   
    29   12   38 1   
    30   13   39 1   
    31   14   15 1   
    32   14   44 1   
    33   14   45 1   
    34   15   16 1   
    35   15   46 1   
    36   15   47 1   
    37   16   17 1   
    38   16   48 1   
    39   16   49 1   
    40   17   18 1   
    41   17   50 1   
    42   17   51 1   
    43   18   19 1   
    44   18   25 1   
    45   19   20 1   
    46   19   52 1   
    47   19   53 1   
    48   20   21 1   
    49   20   54 1   
    50   20   55 1   
    51   21   22 1   
    52   21   56 1   
    53   21   57 1   
    54   22   23 1   
    55   22   58 1   
    56   22   59 1   
    57   23   24 1   
    58   23   60 1   
    59   23   61 1   
    60   24   62 1   
    61   24   63 1   
    62   24   64 1   
@<TRIPOS>SUBSTRUCTURE
     1 MYB         1 TEMP              0 ****  ****    0 ROOT
