@<TRIPOS>MOLECULE
MYC
   33    35     1     0     0
SMALL
bcc


@<TRIPOS>ATOM
      1 C1          0.6690   -0.0110    4.7420 ca        1 MYC     -0.301000
      2 C2         -0.5310   -0.0330    4.0160 ca        1 MYC      0.272100
      3 C3         -0.5270    0.0020    2.5980 ca        1 MYC     -0.335600
      4 C4          0.7260    0.0590    1.9490 ca        1 MYC      0.221100
      5 C5          1.9380    0.0830    2.6480 ca        1 MYC     -0.236000
      6 C6          1.8860    0.0470    4.0490 ca        1 MYC      0.224100
      7 C9         -1.7360   -0.0190    1.7970 c         1 MYC      0.588900
      8 C10        -1.5210    0.0330    0.3420 cc        1 MYC     -0.065100
      9 C11        -0.2780    0.0780   -0.2130 cd        1 MYC      0.151900
     10 C14         0.0700    0.1090   -1.6330 ca        1 MYC     -0.022800
     11 C15        -0.8280    0.6520   -2.5610 ca        1 MYC     -0.145500
     12 C16        -0.4900    0.6650   -3.9170 ca        1 MYC      0.099600
     13 C17         0.7400    0.1470   -4.3590 ca        1 MYC      0.040100
     14 C18         1.6370   -0.3900   -3.4130 ca        1 MYC      0.099600
     15 C19         1.3030   -0.4070   -2.0540 ca        1 MYC     -0.145500
     16 O12         0.8670    0.0990    0.5770 os        1 MYC     -0.206200
     17 O13        -2.8950   -0.0810    2.2550 o         1 MYC     -0.602100
     18 O23         2.8560   -0.9120   -3.7680 oh        1 MYC     -0.502100
     19 O24         1.1340    0.1320   -5.6780 oh        1 MYC     -0.510100
     20 O25        -1.3150    1.1800   -4.8950 oh        1 MYC     -0.502100
     21 O27        -2.6320    0.0340   -0.4730 oh        1 MYC     -0.492100
     22 O29         3.0920    0.0720    4.6980 oh        1 MYC     -0.482100
     23 O30        -1.6590   -0.0890    4.7770 oh        1 MYC     -0.492100
     24 H1          0.6360   -0.0380    5.8390 ha        1 MYC      0.162000
     25 H5          2.8980    0.1290    2.1180 ha        1 MYC      0.178000
     26 H15        -1.7950    1.0620   -2.2310 ha        1 MYC      0.166500
     27 H19         2.0170   -0.8270   -1.3300 ha        1 MYC      0.166500
     28 HO3         2.9470   -0.8350   -4.7310 ho        1 MYC      0.438500
     29 HO4         0.4140    0.5110   -6.2070 ho        1 MYC      0.449000
     30 HO5        -2.1440    1.4480   -4.4720 ho        1 MYC      0.438500
     31 HO7        -3.4060   -0.1300    0.0960 ho        1 MYC      0.446000
     32 HO9         2.9250    0.0420    5.6530 ho        1 MYC      0.432000
     33 HO0        -2.4510   -0.1040    4.2100 ho        1 MYC      0.467000
@<TRIPOS>BOND
     1    1    2 ar  
     2    1    6 ar  
     3    1   24 1   
     4    2    3 ar  
     5    2   23 1   
     6    3    4 ar  
     7    3    7 1   
     8    4    5 ar  
     9    4   16 1   
    10    5    6 ar  
    11    5   25 1   
    12    6   22 1   
    13    7    8 1   
    14    7   17 2   
    15    8    9 2   
    16    8   21 1   
    17    9   10 1   
    18    9   16 1   
    19   10   11 ar  
    20   10   15 ar  
    21   11   12 ar  
    22   11   26 1   
    23   12   13 ar  
    24   12   20 1   
    25   13   14 ar  
    26   13   19 1   
    27   14   15 ar  
    28   14   18 1   
    29   15   27 1   
    30   18   28 1   
    31   19   29 1   
    32   20   30 1   
    33   21   31 1   
    34   22   32 1   
    35   23   33 1   
@<TRIPOS>SUBSTRUCTURE
     1 MYC         1 TEMP              0 ****  ****    0 ROOT
