@<TRIPOS>MOLECULE
MYC
   33    27     1     0     0
SMALL
bcc


@<TRIPOS>ATOM
      1 C1         -3.4390    0.0680   -3.2640 c1        1 MYC     -0.209000
      2 C2         -2.0520    0.0330   -3.3340 c1        1 MYC      0.204000
      3 C3         -1.2870    0.0050   -2.1520 c1        1 MYC     -0.261000
      4 C4         -1.9140    0.0130   -0.9280 c1        1 MYC      0.183000
      5 C5         -3.3200    0.0480   -0.8580 c1        1 MYC     -0.298000
      6 C6         -4.0730    0.0750   -2.0250 c1        1 MYC      0.132500
      7 C9          0.1030   -0.0720   -2.2210 c2        1 MYC      0.304000
      8 C10         0.8440   -0.1410   -1.0670 c1        1 MYC     -0.075000
      9 C11         0.2070   -0.1330    0.1710 c1        1 MYC      0.065000
     10 C14         1.1270   -0.0040    1.2010 c1        1 MYC     -0.001000
     11 C15         1.8750    1.1580    1.3200 c1        1 MYC     -0.209000
     12 C16         2.8430    1.2610    2.3060 c1        1 MYC      0.132500
     13 C17         3.0640    0.2030    3.1750 c1        1 MYC      0.009500
     14 C18         2.3160   -0.9580    3.0570 c1        1 MYC      0.009500
     15 C19         1.3480   -1.0620    2.0700 c1        1 MYC     -0.179000
     16 O12        -1.1610   -0.0570    0.2400 os        1 MYC     -0.126000
     17 O13         0.6590   -0.0780   -3.3030 o         1 MYC     -0.293000
     18 O23         2.5470   -2.0380    3.9330 oh        1 MYC     -0.266500
     19 O24         4.0740    0.2920    4.1480 oh        1 MYC     -0.266500
     20 O25         3.6250    2.4310    2.4070 oh        1 MYC     -0.240500
     21 O27         1.2330   -1.4810   -1.2430 oh        1 MYC     -0.240000
     22 O29        -5.4780    0.0420   -1.9550 oh        1 MYC     -0.240500
     23 O30        -1.4110    0.0610   -4.5860 oh        1 MYC     -0.205000
     24 H1         -3.9690    0.0870   -4.0850 ha        1 MYC      0.171000
     25 H5         -3.7660    0.0530    0.0120 ha        1 MYC      0.159000
     26 H15         1.7200    1.9050    0.7060 ha        1 MYC      0.171000
     27 H19         0.8220   -1.8790    1.9870 ha        1 MYC      0.149000
     28 HO3         1.9170   -2.0500    4.5610 ho        1 MYC      0.239500
     29 HO4         3.7090    0.4700    4.9390 ho        1 MYC      0.239500
     30 HO5         3.3030    2.9490    3.0560 ho        1 MYC      0.234500
     31 HO7         2.1110   -1.5200   -1.3830 ho        1 MYC      0.246000
     32 HO9        -5.7850    0.8520   -1.7560 ho        1 MYC      0.234500
     33 HO0        -1.7910   -0.5330   -5.1260 ho        1 MYC      0.227000
@<TRIPOS>BOND
     1    1    6 1   
     2    1   24 1   
     3    2    3 1   
     4    2   23 1   
     5    3    7 1   
     6    4    5 1   
     7    4   16 1   
     8    5   25 1   
     9    6   22 1   
    10    7    8 1   
    11    7   17 1   
    12    8   21 1   
    13    9   16 1   
    14   10   15 1   
    15   11   12 1   
    16   11   26 1   
    17   12   20 1   
    18   13   14 1   
    19   13   19 1   
    20   14   18 1   
    21   15   27 1   
    22   18   28 1   
    23   19   29 1   
    24   20   30 1   
    25   21   31 1   
    26   22   32 1   
    27   23   33 1   
@<TRIPOS>SUBSTRUCTURE
     1 MYC         1 TEMP              0 ****  ****    0 ROOT
