@<TRIPOS>MOLECULE
MYC
   33    35     1     0     0
SMALL
bcc


@<TRIPOS>ATOM
      1 C1         -0.0490   -0.1240    0.0690 ca        1 MYC     -0.353000
      2 C2          1.3390    0.0320    0.0020 ca        1 MYC      0.254100
      3 C3          2.1370    0.0470    1.1730 ca        1 MYC     -0.282600
      4 C4          1.4790   -0.1000    2.4100 ca        1 MYC      0.220100
      5 C5          0.0880   -0.2580    2.5110 ca        1 MYC     -0.234000
      6 C6         -0.6580   -0.2670    1.3270 ca        1 MYC      0.225100
      7 C9          3.5830    0.2050    1.1360 c         1 MYC      0.583900
      8 C10         4.2240    0.2020    2.4690 cc        1 MYC     -0.060100
      9 C11         3.5230    0.0480    3.6260 cd        1 MYC      0.130900
     10 C14         4.0410    0.0070    4.9920 ca        1 MYC     -0.015800
     11 C15         5.2330    0.6730    5.3070 ca        1 MYC     -0.148000
     12 C16         5.7260    0.6170    6.6140 ca        1 MYC      0.100600
     13 C17         5.0390   -0.0910    7.6150 ca        1 MYC      0.037100
     14 C18         3.8380   -0.7500    7.2850 ca        1 MYC      0.100600
     15 C19         3.3400   -0.7000    5.9780 ca        1 MYC     -0.148000
     16 O12         2.1360   -0.1010    3.6210 os        1 MYC     -0.208200
     17 O13         4.2750    0.3290    0.1160 o         1 MYC     -0.537100
     18 O23         3.1090   -1.4600    8.2090 oh        1 MYC     -0.503100
     19 O24         5.4690   -0.1820    8.9200 oh        1 MYC     -0.511100
     20 O25         6.8920    1.2430    7.0070 oh        1 MYC     -0.503100
     21 O27         5.5910    0.3620    2.5190 oh        1 MYC     -0.494100
     22 O29        -2.0120   -0.4230    1.4660 oh        1 MYC     -0.482100
     23 O30         1.9920    0.1760   -1.1890 oh        1 MYC     -0.451100
     24 H1         -0.6540   -0.1340   -0.8470 ha        1 MYC      0.145000
     25 H5         -0.3980   -0.3690    3.4890 ha        1 MYC      0.178000
     26 H15         5.7830    1.2320    4.5350 ha        1 MYC      0.166000
     27 H19         2.3990   -1.2180    5.7400 ha        1 MYC      0.166000
     28 HO3         3.5740   -1.4100    9.0590 ho        1 MYC      0.438000
     29 HO4         6.3110    0.2940    8.9880 ho        1 MYC      0.449000
     30 HO5         7.2950    1.6380    6.2210 ho        1 MYC      0.438000
     31 HO7         5.9140    0.3460    1.5990 ho        1 MYC      0.446000
     32 HO9        -2.4130   -0.4130    0.5840 ho        1 MYC      0.428000
     33 HO0         1.3340    0.1470   -1.9030 ho        1 MYC      0.425000
@<TRIPOS>BOND
     1    1    2 ar  
     2    1    6 ar  
     3    1   24 1   
     4    2    3 ar  
     5    2   23 1   
     6    3    4 ar  
     7    3    7 1   
     8    4    5 ar  
     9    4   16 1   
    10    5    6 ar  
    11    5   25 1   
    12    6   22 1   
    13    7    8 1   
    14    7   17 2   
    15    8    9 2   
    16    8   21 1   
    17    9   10 1   
    18    9   16 1   
    19   10   11 ar  
    20   10   15 ar  
    21   11   12 ar  
    22   11   26 1   
    23   12   13 ar  
    24   12   20 1   
    25   13   14 ar  
    26   13   19 1   
    27   14   15 ar  
    28   14   18 1   
    29   15   27 1   
    30   18   28 1   
    31   19   29 1   
    32   20   30 1   
    33   21   31 1   
    34   22   32 1   
    35   23   33 1   
@<TRIPOS>SUBSTRUCTURE
     1 MYC         1 TEMP              0 ****  ****    0 ROOT
