@<TRIPOS>MOLECULE
MYC
   33    35     1     0     0
SMALL
bcc


@<TRIPOS>ATOM
      1 C1         -0.0480   -0.1290    0.0690 ca        1 MYC     -0.353000
      2 C2          1.3390    0.0330    0.0020 ca        1 MYC      0.254100
      3 C3          2.1370    0.0490    1.1730 ca        1 MYC     -0.282600
      4 C4          1.4790   -0.1040    2.4090 ca        1 MYC      0.220100
      5 C5          0.0900   -0.2680    2.5100 ca        1 MYC     -0.234000
      6 C6         -0.6570   -0.2780    1.3260 ca        1 MYC      0.225100
      7 C9          3.5820    0.2140    1.1370 c         1 MYC      0.583900
      8 C10         4.2230    0.2110    2.4700 cc        1 MYC     -0.060100
      9 C11         3.5220    0.0510    3.6260 cd        1 MYC      0.130900
     10 C14         4.0410    0.0090    4.9920 ca        1 MYC     -0.015800
     11 C15         5.2300    0.6790    5.3090 ca        1 MYC     -0.148000
     12 C16         5.7230    0.6220    6.6150 ca        1 MYC      0.100600
     13 C17         5.0400   -0.0920    7.6150 ca        1 MYC      0.037100
     14 C18         3.8410   -0.7550    7.2840 ca        1 MYC      0.100600
     15 C19         3.3430   -0.7040    5.9760 ca        1 MYC     -0.148000
     16 O12         2.1370   -0.1040    3.6210 os        1 MYC     -0.208200
     17 O13         4.2740    0.3440    0.1160 o         1 MYC     -0.537100
     18 O23         3.1150   -1.4700    8.2050 oh        1 MYC     -0.503100
     19 O24         5.4700   -0.1840    8.9200 oh        1 MYC     -0.511100
     20 O25         6.8860    1.2520    7.0100 oh        1 MYC     -0.503100
     21 O27         5.5890    0.3770    2.5200 oh        1 MYC     -0.494100
     22 O29        -2.0100   -0.4400    1.4650 oh        1 MYC     -0.482100
     23 O30         1.9910    0.1830   -1.1890 oh        1 MYC     -0.451100
     24 H1         -0.6530   -0.1400   -0.8470 ha        1 MYC      0.145000
     25 H5         -0.3960   -0.3840    3.4880 ha        1 MYC      0.178000
     26 H15         5.7780    1.2420    4.5380 ha        1 MYC      0.166000
     27 H19         2.4040   -1.2260    5.7370 ha        1 MYC      0.166000
     28 HO3         3.5800   -1.4210    9.0560 ho        1 MYC      0.438000
     29 HO4         6.3100    0.2950    8.9890 ho        1 MYC      0.449000
     30 HO5         7.2880    1.6500    6.2250 ho        1 MYC      0.438000
     31 HO7         5.9130    0.3640    1.6010 ho        1 MYC      0.446000
     32 HO9        -2.4110   -0.4300    0.5830 ho        1 MYC      0.428000
     33 HO0         1.3340    0.1530   -1.9030 ho        1 MYC      0.425000
@<TRIPOS>BOND
     1    1    2 ar  
     2    1    6 ar  
     3    1   24 1   
     4    2    3 ar  
     5    2   23 1   
     6    3    4 ar  
     7    3    7 1   
     8    4    5 ar  
     9    4   16 1   
    10    5    6 ar  
    11    5   25 1   
    12    6   22 1   
    13    7    8 1   
    14    7   17 2   
    15    8    9 2   
    16    8   21 1   
    17    9   10 1   
    18    9   16 1   
    19   10   11 ar  
    20   10   15 ar  
    21   11   12 ar  
    22   11   26 1   
    23   12   13 ar  
    24   12   20 1   
    25   13   14 ar  
    26   13   19 1   
    27   14   15 ar  
    28   14   18 1   
    29   15   27 1   
    30   18   28 1   
    31   19   29 1   
    32   20   30 1   
    33   21   31 1   
    34   22   32 1   
    35   23   33 1   
@<TRIPOS>SUBSTRUCTURE
     1 MYC         1 TEMP              0 ****  ****    0 ROOT
