@<TRIPOS>MOLECULE
MYD
   70    74     1     0     0
SMALL
bcc


@<TRIPOS>ATOM
      1 C53         2.9770    1.7180   -1.1470 c3        1 MYD      0.114700
      2 O51         3.2830    0.6150   -0.2840 os        1 MYD     -0.347900
      3 C46         2.6160    0.5710    0.9210 ca        1 MYD      0.180100
      4 C47         1.7460   -0.5610    1.0590 ca        1 MYD     -0.108300
      5 C52         1.5530   -1.4780   -0.0860 c3        1 MYD     -0.035800
      6 C48         1.1330   -0.7540    2.2710 ca        1 MYD     -0.083300
      7 C49         0.1850   -1.8170    2.7420 c3        1 MYD      0.175700
      8 O50        -0.1320   -1.4840    4.1230 os        1 MYD     -0.432900
      9 C42         0.5570   -0.3260    4.4870 c         1 MYD      0.752200
     10 O43         0.3810    0.0680    5.6370 o         1 MYD     -0.618500
     11 C41         1.3480    0.1440    3.3520 ca        1 MYD     -0.315600
     12 C40         2.1930    1.2370    3.2090 ca        1 MYD      0.223100
     13 O31         2.4140    2.1200    4.2310 oh        1 MYD     -0.477100
     14 C39         2.8600    1.4710    1.9690 ca        1 MYD     -0.096300
     15 C38         3.7430    2.6620    1.8590 c3        1 MYD     -0.081100
     16 C37         5.1650    2.3560    1.3650 c3        1 MYD      0.221400
     17 O36         5.8630    3.5380    1.1840 os        1 MYD     -0.589200
     18 P35         6.2660    3.9050   -0.4170 p5        1 MYD      1.396600
     19 O45         4.9750    3.6550   -1.1100 o         1 MYD     -0.877000
     20 O30         7.4580    3.0860   -0.7050 o         1 MYD     -0.877000
     21 C34         6.5800    5.5930   -0.1690 c3        1 MYD     -0.584800
     22 P33         7.3130    6.9080   -0.9790 p5        1 MYD      1.414600
     23 O44         7.3430    6.8680   -2.4660 o         1 MYD     -0.888000
     24 O29         8.4660    7.4660   -0.2420 o         1 MYD     -0.888000
     25 O32         6.1010    8.0760   -0.7560 os        1 MYD     -0.579200
     26 C28         6.3770    9.3100   -1.3100 c3        1 MYD      0.208400
     27 C27         5.6330    9.4880   -2.6490 c3        1 MYD      0.057100
     28 O24         5.1490   10.8450   -2.7550 os        1 MYD     -0.424600
     29 C26         6.4970    9.1840   -3.8900 c3        1 MYD      0.122100
     30 O25         5.9860    8.0840   -4.6040 oh        1 MYD     -0.652800
     31 C22         6.3990   10.4380   -4.7850 c3        1 MYD      0.108100
     32 O21         5.6220   10.2810   -5.9500 oh        1 MYD     -0.602800
     33 C23         5.7120   11.5140   -3.8760 c3        1 MYD      0.212800
     34 N20         6.6200   12.5580   -3.4240 na        1 MYD     -0.260000
     35 C16         7.6120   12.4570   -2.4200 cc        1 MYD      0.443700
     36 N15         8.2460   13.6140   -2.1660 nd        1 MYD     -0.576100
     37 C14         7.6490   14.5500   -3.0210 ca        1 MYD     -0.212200
     38 C19         6.6040   13.9020   -3.8160 ca        1 MYD      0.445800
     39 N18         5.8330   14.5750   -4.7260 nb        1 MYD     -0.711000
     40 C17         6.1360   15.8870   -4.8010 ca        1 MYD      0.654900
     41 N12         7.0710   16.6180   -4.1280 nb        1 MYD     -0.803000
     42 C13         7.8640   15.9480   -3.2320 ca        1 MYD      0.714200
     43 N11         8.9050   16.5950   -2.5770 nv        1 MYD     -0.937500
     44 H531        3.8560    1.7620   -1.8440 h1        1 MYD      0.067700
     45 H532        2.9180    2.6890   -0.6030 h1        1 MYD      0.067700
     46 H533        2.0200    1.4860   -1.6780 h1        1 MYD      0.067700
     47 H521        1.3720   -0.8900   -1.0210 hc        1 MYD      0.042367
     48 H522        0.6910   -2.1660    0.0890 hc        1 MYD      0.042367
     49 H523        2.4780   -2.0870   -0.2430 hc        1 MYD      0.042367
     50 H491       -0.7830   -1.8170    2.1810 h1        1 MYD      0.064200
     51 H492        0.6430   -2.8360    2.7530 h1        1 MYD      0.064200
     52 H31         1.9190    1.8100    5.0090 ho        1 MYD      0.434000
     53 H381        3.2700    3.4070    1.1610 hc        1 MYD      0.071700
     54 H382        3.8320    3.1730    2.8550 hc        1 MYD      0.071700
     55 H371        5.6880    1.7420    2.1540 h1        1 MYD      0.018200
     56 H372        5.1220    1.7700    0.4050 h1        1 MYD      0.018200
     57 H341        7.1260    5.5780    0.8120 hc        1 MYD      0.107700
     58 H342        5.5460    5.9730    0.0490 hc        1 MYD      0.107700
     59 H281        7.4880    9.4280   -1.4600 h1        1 MYD      0.017200
     60 H282        6.0130   10.1110   -0.6050 h1        1 MYD      0.017200
     61 H27         4.7100    8.8440   -2.6480 h1        1 MYD      0.096700
     62 H26         7.5670    8.9920   -3.6030 h1        1 MYD      0.098700
     63 H25         6.2950    7.2830   -4.1300 ho        1 MYD      0.501000
     64 H22         7.4090   10.7680   -5.1440 h1        1 MYD      0.076700
     65 H21         5.0320    9.5260   -5.8190 ho        1 MYD      0.432000
     66 H23         4.8570   12.0140   -4.4200 h2        1 MYD      0.105700
     67 H16         7.7990   11.4950   -1.9140 h5        1 MYD      0.106800
     68 H17         5.5280   16.4730   -5.5220 h5        1 MYD      0.035100
     69 H111        8.8660   17.5850   -2.5260 hn        1 MYD      0.417800
     70 H112        9.2560   16.1270   -1.7740 hn        1 MYD      0.417800
@<TRIPOS>BOND
     1    1    2 1   
     2    1   44 1   
     3    1   45 1   
     4    1   46 1   
     5    2    3 1   
     6    3    4 ar  
     7    3   14 ar  
     8    4    5 1   
     9    4    6 ar  
    10    5   47 1   
    11    5   48 1   
    12    5   49 1   
    13    6    7 1   
    14    6   11 ar  
    15    7    8 1   
    16    7   50 1   
    17    7   51 1   
    18    8    9 1   
    19    9   10 2   
    20    9   11 1   
    21   11   12 ar  
    22   12   13 1   
    23   12   14 ar  
    24   13   52 1   
    25   14   15 1   
    26   15   16 1   
    27   15   53 1   
    28   15   54 1   
    29   16   17 1   
    30   16   55 1   
    31   16   56 1   
    32   17   18 1   
    33   18   19 1   
    34   18   20 1   
    35   18   21 1   
    36   21   22 1   
    37   21   57 1   
    38   21   58 1   
    39   22   23 1   
    40   22   24 1   
    41   22   25 1   
    42   25   26 1   
    43   26   27 1   
    44   26   59 1   
    45   26   60 1   
    46   27   28 1   
    47   27   29 1   
    48   27   61 1   
    49   28   33 1   
    50   29   30 1   
    51   29   31 1   
    52   29   62 1   
    53   30   63 1   
    54   31   32 1   
    55   31   33 1   
    56   31   64 1   
    57   32   65 1   
    58   33   34 1   
    59   33   66 1   
    60   34   35 1   
    61   34   38 1   
    62   35   36 2   
    63   35   67 1   
    64   36   37 1   
    65   37   38 ar  
    66   37   42 ar  
    67   38   39 ar  
    68   39   40 ar  
    69   40   41 ar  
    70   40   68 1   
    71   41   42 ar  
    72   42   43 1   
    73   43   69 1   
    74   43   70 1   
@<TRIPOS>SUBSTRUCTURE
     1 MYD         1 TEMP              0 ****  ****    0 ROOT
