@<TRIPOS>MOLECULE
MYD
   70    74     1     0     0
SMALL
bcc


@<TRIPOS>ATOM
      1 C53         2.4590    2.1150   -6.7330 c3        1 MYD      0.119700
      2 O51         2.0580    0.7540   -6.8820 os        1 MYD     -0.343900
      3 C46         0.6940    0.5580   -6.6640 ca        1 MYD      0.136100
      4 C47        -0.1650    0.6570   -7.7960 ca        1 MYD     -0.142300
      5 C52         0.3590    1.0400   -9.1240 c3        1 MYD     -0.032800
      6 C48        -1.4940    0.3760   -7.5820 ca        1 MYD     -0.070300
      7 C49        -2.6400    0.3810   -8.5500 c3        1 MYD      0.172700
      8 O50        -3.8080    0.0210   -7.7810 os        1 MYD     -0.454900
      9 C42        -3.4390   -0.2010   -6.4380 c         1 MYD      0.756200
     10 O43        -4.3750   -0.5050   -5.7130 o         1 MYD     -0.563500
     11 C41        -1.9960    0.0140   -6.3030 ca        1 MYD     -0.262600
     12 C40        -1.1430   -0.0860   -5.1970 ca        1 MYD      0.279100
     13 O31        -1.6970   -0.4210   -4.0190 oh        1 MYD     -0.487100
     14 C39         0.2490    0.2040   -5.3930 ca        1 MYD     -0.145300
     15 C38         1.1880    0.1450   -4.2440 c3        1 MYD     -0.090100
     16 C37         1.5380   -1.3000   -3.8490 c3        1 MYD      0.227400
     17 O36         2.1420   -1.3400   -2.6050 os        1 MYD     -0.590200
     18 P35         1.1350   -1.8190   -1.3290 p5        1 MYD      1.417600
     19 O45         1.1820   -3.2900   -1.3260 o         1 MYD     -0.877000
     20 O30        -0.0910   -1.0660   -1.7200 o         1 MYD     -0.877000
     21 C34         2.0340   -1.0570   -0.0660 c3        1 MYD     -0.588800
     22 P33         2.0580   -0.9300    1.6420 p5        1 MYD      1.412600
     23 O44         3.4080   -1.1920    2.1970 o         1 MYD     -0.881500
     24 O29         0.8910   -1.4410    2.4050 o         1 MYD     -0.881500
     25 O32         1.9460    0.7450    1.8190 os        1 MYD     -0.591200
     26 C28         1.0420    1.2540    2.7280 c3        1 MYD      0.188400
     27 C27         1.7220    1.7410    4.0230 c3        1 MYD      0.072100
     28 O24         0.7270    1.8720    5.0610 os        1 MYD     -0.437600
     29 C26         2.7960    0.7900    4.5700 c3        1 MYD      0.056100
     30 O25         3.8550    1.4780    5.2050 oh        1 MYD     -0.594800
     31 C22         2.0390   -0.0820    5.5980 c3        1 MYD      0.076100
     32 O21         2.7610   -0.2200    6.8100 oh        1 MYD     -0.617800
     33 C23         0.7540    0.7380    5.9400 c3        1 MYD      0.243800
     34 N20        -0.4760   -0.0180    5.8760 na        1 MYD     -0.272000
     35 C16        -0.9100   -0.9650    4.9060 cc        1 MYD      0.459700
     36 N15        -2.1550   -1.4140    5.1280 nd        1 MYD     -0.582100
     37 C14        -2.6030   -0.7360    6.2710 ca        1 MYD     -0.199200
     38 C19        -1.5580    0.1660    6.7520 ca        1 MYD      0.438800
     39 N18        -1.7140    0.9690    7.8490 nb        1 MYD     -0.718000
     40 C17        -2.9330    0.8490    8.4180 ca        1 MYD      0.642900
     41 N12        -3.9950    0.0670    8.0740 nb        1 MYD     -0.801000
     42 C13        -3.8350   -0.7630    6.9920 ca        1 MYD      0.699200
     43 N11        -4.8300   -1.6700    6.6330 nh        1 MYD     -0.930500
     44 H531        3.5730    2.0780   -6.8240 h1        1 MYD      0.035367
     45 H532        2.0130    2.7340   -7.5500 h1        1 MYD      0.035367
     46 H533        2.1570    2.5140   -5.7350 h1        1 MYD      0.035367
     47 H521        1.4240    0.7140   -9.2330 hc        1 MYD      0.035033
     48 H522       -0.2470    0.5710   -9.9380 hc        1 MYD      0.035033
     49 H523        0.3180    2.1510   -9.2520 hc        1 MYD      0.035033
     50 H491       -2.8310    1.3910   -8.9900 h1        1 MYD      0.055200
     51 H492       -2.5240   -0.3860   -9.3570 h1        1 MYD      0.055200
     52 H31        -1.0200   -0.5370   -3.2960 ho        1 MYD      0.538000
     53 H381        2.1410    0.6810   -4.4900 hc        1 MYD      0.067200
     54 H382        0.7260    0.6700   -3.3620 hc        1 MYD      0.067200
     55 H371        0.6030   -1.9290   -3.8550 h1        1 MYD      0.012700
     56 H372        2.2610   -1.7110   -4.6090 h1        1 MYD      0.012700
     57 H341        3.0750   -1.4210   -0.2860 hc        1 MYD      0.110700
     58 H342        2.0040    0.0170   -0.3930 hc        1 MYD      0.110700
     59 H281        0.5410    2.1500    2.2610 h1        1 MYD      0.037700
     60 H282        0.2530    0.4940    2.9900 h1        1 MYD      0.037700
     61 H27         2.1330    2.7760    3.8890 h1        1 MYD      0.065700
     62 H26         3.2780    0.1720    3.7410 h1        1 MYD      0.199700
     63 H25         3.4570    2.0450    5.8790 ho        1 MYD      0.384000
     64 H22         1.8120   -1.0960    5.1740 h1        1 MYD      0.108700
     65 H21         3.6900   -0.3240    6.5610 ho        1 MYD      0.422000
     66 H23         0.8320    1.1710    6.9840 h2        1 MYD      0.099700
     67 H16        -0.2610   -1.2890    4.0490 h5        1 MYD      0.183800
     68 H17        -3.1060    1.4920    9.3050 h5        1 MYD      0.028100
     69 H111       -5.7550   -1.4540    6.9240 hn        1 MYD      0.412800
     70 H112       -4.7450   -2.0280    5.7080 hn        1 MYD      0.412800
@<TRIPOS>BOND
     1    1    2 1   
     2    1   44 1   
     3    1   45 1   
     4    1   46 1   
     5    2    3 1   
     6    3    4 ar  
     7    3   14 ar  
     8    4    5 1   
     9    4    6 ar  
    10    5   47 1   
    11    5   48 1   
    12    5   49 1   
    13    6    7 1   
    14    6   11 ar  
    15    7    8 1   
    16    7   50 1   
    17    7   51 1   
    18    8    9 1   
    19    9   10 2   
    20    9   11 1   
    21   11   12 ar  
    22   12   13 1   
    23   12   14 ar  
    24   13   52 1   
    25   14   15 1   
    26   15   16 1   
    27   15   53 1   
    28   15   54 1   
    29   16   17 1   
    30   16   55 1   
    31   16   56 1   
    32   17   18 1   
    33   18   19 1   
    34   18   20 1   
    35   18   21 1   
    36   21   22 1   
    37   21   57 1   
    38   21   58 1   
    39   22   23 1   
    40   22   24 1   
    41   22   25 1   
    42   25   26 1   
    43   26   27 1   
    44   26   59 1   
    45   26   60 1   
    46   27   28 1   
    47   27   29 1   
    48   27   61 1   
    49   28   33 1   
    50   29   30 1   
    51   29   31 1   
    52   29   62 1   
    53   30   63 1   
    54   31   32 1   
    55   31   33 1   
    56   31   64 1   
    57   32   65 1   
    58   33   34 1   
    59   33   66 1   
    60   34   35 1   
    61   34   38 1   
    62   35   36 2   
    63   35   67 1   
    64   36   37 1   
    65   37   38 ar  
    66   37   42 ar  
    67   38   39 ar  
    68   39   40 ar  
    69   40   41 ar  
    70   40   68 1   
    71   41   42 ar  
    72   42   43 1   
    73   43   69 1   
    74   43   70 1   
@<TRIPOS>SUBSTRUCTURE
     1 MYD         1 TEMP              0 ****  ****    0 ROOT
