@<TRIPOS>MOLECULE
MYD
   70    69     1     0     0
SMALL
bcc


@<TRIPOS>ATOM
      1 C53        -4.8780   -5.4600    2.7310 c3        1 MYD     -0.073000
      2 O51        -3.4440   -5.3960    2.7040 os        1 MYD     -0.231000
      3 C46        -2.8420   -5.4810    3.9860 c2        1 MYD      0.090000
      4 C47        -2.7610   -6.7320    4.6470 c1        1 MYD     -0.119000
      5 C52        -3.1080   -8.0380    3.8850 c2        1 MYD     -0.154000
      6 C48        -2.2760   -6.7970    6.0010 c2        1 MYD     -0.070000
      7 C49        -1.9890   -7.9810    6.9350 c3        1 MYD      0.016000
      8 O50        -1.4400   -7.4570    8.1710 os        1 MYD     -0.289000
      9 C42        -1.3770   -6.0360    8.0580 c2        1 MYD      0.369000
     10 O43        -0.9400   -5.2750    8.8920 o         1 MYD     -0.286000
     11 C41        -1.8910   -5.6440    6.6500 c2        1 MYD     -0.230000
     12 C40        -1.9720   -4.3880    5.9870 c2        1 MYD      0.220000
     13 O31        -1.5760   -3.1730    6.6830 oh        1 MYD     -0.237000
     14 C39        -2.4490   -4.3140    4.6540 c2        1 MYD     -0.132000
     15 C38        -2.4300   -2.9140    3.8830 c3        1 MYD     -0.190000
     16 C37        -1.0400   -2.6470    3.3780 c3        1 MYD      0.041000
     17 O36        -1.0170   -1.3970    2.6750 os        1 MYD     -0.766000
     18 P35         0.3900   -0.8420    2.1360 p5        1 MYD      2.033000
     19 O45         1.0070   -1.8630    1.1670 o         1 MYD     -0.865000
     20 O30         1.3330   -0.6220    3.3120 o         1 MYD     -0.865000
     21 C34         0.1240    0.7440    1.2590 c3        1 MYD     -1.483000
     22 P33         1.6310    1.2280    0.4490 p5        1 MYD      2.054000
     23 O44         2.1810    0.0520   -0.3280 o         1 MYD     -0.885500
     24 O29         2.6490    1.6660    1.4890 o         1 MYD     -0.885500
     25 O32         1.3340    2.4440   -0.5610 os        1 MYD     -0.741000
     26 C28         2.0770    2.5010   -1.8290 c3        1 MYD      0.057000
     27 C27         1.2540    3.2920   -2.8710 c3        1 MYD     -0.054000
     28 O24         1.8130    4.4310   -3.1140 os        1 MYD     -0.280000
     29 C26         1.2410    2.5500   -4.2250 c3        1 MYD      0.011000
     30 O25         0.0320    2.0540   -4.4660 oh        1 MYD     -0.379000
     31 C22         1.6070    3.6130   -5.2790 c3        1 MYD     -0.002000
     32 O21         0.6240    3.5810   -6.4050 oh        1 MYD     -0.329000
     33 C23         1.5300    4.7450   -4.6540 c3        1 MYD      0.121000
     34 N20         2.5250    5.6580   -5.1600 n3        1 MYD     -0.177000
     35 C16         3.8530    5.6930   -4.8850 c1        1 MYD     -0.012000
     36 N15         4.3880    6.7540   -5.5370 n2        1 MYD     -0.149000
     37 C14         3.3840    7.3790   -6.2190 c1        1 MYD     -0.221000
     38 C19         2.2370    6.7010   -5.9850 c1        1 MYD      0.055000
     39 N18         1.0730    7.1180   -6.5510 n1        1 MYD     -0.185000
     40 C17         1.0610    8.2260   -7.3600 c1        1 MYD     -0.008000
     41 N12         2.2130    8.9090   -7.5970 n1        1 MYD     -0.277000
     42 C13         3.3690    8.5000   -7.0380 c1        1 MYD      0.193000
     43 N11         4.4400    9.5130   -7.1980 n3        1 MYD     -0.335000
     44 H531       -5.1820   -5.5580    3.6570 h1        1 MYD      0.079000
     45 H532       -5.1870   -6.2430    2.1930 h1        1 MYD      0.079000
     46 H533       -5.2490   -4.6400    2.3510 h1        1 MYD      0.079000
     47 H521       -2.5230   -8.7630    4.1960 ha        1 MYD      0.075333
     48 H522       -4.0440   -8.2770    4.0560 ha        1 MYD      0.075333
     49 H523       -2.9720   -7.8970    2.8990 ha        1 MYD      0.075333
     50 H491       -1.3420   -8.5840    6.5150 h1        1 MYD      0.096500
     51 H492       -2.8320   -8.4720    7.1240 h1        1 MYD      0.096500
     52 H31        -0.6790   -3.1530    6.7670 ho        1 MYD      0.304000
     53 H381       -2.6960   -2.1940    4.5050 hc        1 MYD      0.114500
     54 H382       -3.0670   -2.9430    3.1160 hc        1 MYD      0.114500
     55 H371       -0.4110   -2.6050    4.1490 h1        1 MYD      0.074500
     56 H372       -0.7710   -3.3610    2.7810 h1        1 MYD      0.074500
     57 H341       -0.1350    1.4220    1.8930 hc        1 MYD      0.149000
     58 H342       -0.5710    0.6350    0.6020 hc        1 MYD      0.149000
     59 H281        2.9390    2.9470   -1.6810 h1        1 MYD      0.057500
     60 H282        2.2360    1.5740   -2.1650 h1        1 MYD      0.057500
     61 H27         0.3480    3.4230   -2.5540 h1        1 MYD      0.136000
     62 H26         1.9060    1.8340   -4.2220 h1        1 MYD      0.137000
     63 H25         0.0870    1.1790   -4.5520 ho        1 MYD      0.300000
     64 H22         2.5290    3.4640   -5.6180 h1        1 MYD      0.117000
     65 H21         0.8940    2.9640   -7.0310 ho        1 MYD      0.231000
     66 H23         0.6660    5.1150   -4.7570 h2        1 MYD      0.145000
     67 H16         4.3280    5.0590   -4.3840 DU        1 MYD      0.235000
     68 H17         0.2590    8.4860   -7.7960 ha        1 MYD      0.172000
     69 H111        4.7400    9.9950   -6.4590 hn        1 MYD      0.213000
     70 H112        4.7890    9.6970   -8.0540 hn        1 MYD      0.213000
@<TRIPOS>BOND
     1    1    2 1   
     2    1   44 1   
     3    1   45 1   
     4    1   46 1   
     5    2    3 1   
     6    3    4 1   
     7    3   14 1   
     8    4    6 1   
     9    5   47 1   
    10    5   48 1   
    11    5   49 1   
    12    6    7 1   
    13    6   11 1   
    14    7    8 1   
    15    7   50 1   
    16    7   51 1   
    17    8    9 1   
    18    9   10 1   
    19    9   11 1   
    20   11   12 1   
    21   12   13 1   
    22   12   14 1   
    23   13   52 1   
    24   14   15 1   
    25   15   16 1   
    26   15   53 1   
    27   15   54 1   
    28   16   17 1   
    29   16   55 1   
    30   16   56 1   
    31   17   18 1   
    32   18   19 1   
    33   18   20 1   
    34   18   21 1   
    35   21   22 1   
    36   21   57 1   
    37   21   58 1   
    38   22   23 1   
    39   22   24 1   
    40   22   25 1   
    41   25   26 1   
    42   26   27 1   
    43   26   59 1   
    44   26   60 1   
    45   27   28 1   
    46   27   29 1   
    47   27   61 1   
    48   28   33 1   
    49   29   30 1   
    50   29   31 1   
    51   29   62 1   
    52   30   63 1   
    53   31   32 1   
    54   31   33 1   
    55   31   64 1   
    56   32   65 1   
    57   33   34 1   
    58   33   66 1   
    59   34   35 1   
    60   34   38 1   
    61   35   36 1   
    62   36   37 1   
    63   37   42 1   
    64   38   39 1   
    65   40   41 1   
    66   40   68 1   
    67   42   43 1   
    68   43   69 1   
    69   43   70 1   
@<TRIPOS>SUBSTRUCTURE
     1 MYD         1 TEMP              0 ****  ****    0 ROOT
