@<TRIPOS>MOLECULE
MYD
   71    75     1     0     0
SMALL
bcc


@<TRIPOS>ATOM
      1 C53         3.8710    0.2050   -0.8320 c3        1 MYD      0.091700
      2 O51         3.9910    0.0980    0.5950 os        1 MYD     -0.347900
      3 C46         2.8930    0.4940    1.3300 ca        1 MYD      0.177100
      4 C47         2.3460   -0.5280    2.1700 ca        1 MYD     -0.105300
      5 C52         2.9150   -1.8930    2.1400 c3        1 MYD     -0.037800
      6 C48         1.3050   -0.1780    2.9960 ca        1 MYD     -0.067300
      7 C49         0.5120   -0.9860    3.9810 c3        1 MYD      0.171700
      8 O50        -0.4750   -0.0740    4.5410 os        1 MYD     -0.420900
      9 C42        -0.3140    1.1860    3.9700 c         1 MYD      0.749200
     10 O43        -1.0820    2.0650    4.3500 o         1 MYD     -0.601500
     11 C41         0.7870    1.1450    3.0060 ca        1 MYD     -0.307600
     12 C40         1.3320    2.1320    2.1960 ca        1 MYD      0.232100
     13 O31         0.8590    3.4140    2.1810 oh        1 MYD     -0.478100
     14 C39         2.4240    1.8140    1.3370 ca        1 MYD     -0.124300
     15 C38         3.0170    2.8870    0.4950 c3        1 MYD     -0.070100
     16 C37         4.4590    3.2070    0.9040 c3        1 MYD      0.205400
     17 O36         4.9270    4.3120    0.1950 os        1 MYD     -0.592200
     18 P35         6.1070    4.0320   -0.9270 p5        1 MYD      1.368600
     19 O45         5.7050    2.7860   -1.6020 o         1 MYD     -0.841500
     20 O30         7.4220    4.3090   -0.3240 o         1 MYD     -0.841500
     21 C34         5.7260    5.4550   -2.0590 c3        1 MYD     -0.661800
     22 P33         6.5090    6.7480   -2.6790 p5        1 MYD      1.641300
     23 O44         6.5930    6.9310   -4.1300 o         1 MYD     -0.894300
     24 O29         7.9380    6.9530   -1.9900 oh        1 MYD     -0.805400
     25 O32         5.7310    8.0500   -2.0870 os        1 MYD     -0.599200
     26 C28         6.2320    9.3180   -2.4190 c3        1 MYD      0.179400
     27 C27         5.4660    9.9260   -3.6040 c3        1 MYD      0.074100
     28 O24         5.1840   11.3050   -3.3300 os        1 MYD     -0.422600
     29 C26         6.2370    9.8470   -4.9410 c3        1 MYD      0.107100
     30 O25         5.5310    9.0600   -5.8760 oh        1 MYD     -0.630800
     31 C22         6.3090   11.2960   -5.4680 c3        1 MYD      0.129100
     32 O21         5.4510   11.5680   -6.5500 oh        1 MYD     -0.595800
     33 C23         5.8780   12.1690   -4.2430 c3        1 MYD      0.222800
     34 N20         6.9900   12.8220   -3.5930 nh        1 MYD     -0.274200
     35 C16         8.3610   12.4990   -3.7370 c1        1 MYD      0.217400
     36 N15         9.1380   13.1990   -2.8360 ne        1 MYD     -0.697800
     37 C14         8.2870   13.9600   -2.0920 ca        1 MYD     -0.021200
     38 C19         6.8520   13.7600   -2.5490 ca        1 MYD      0.429800
     39 N18         5.8230   14.4090   -2.0070 nb        1 MYD     -0.659000
     40 C17         6.1680   15.2680   -0.9790 ca        1 MYD      0.595900
     41 N12         7.3720   15.5290   -0.4570 nb        1 MYD     -0.705000
     42 C13         8.4330   14.8600   -1.0280 ca        1 MYD      0.305200
     43 N11         9.7830   15.0560   -0.4900 n4        1 MYD     -0.778300
     44 H531        4.1520   -0.8080   -1.2140 h1        1 MYD      0.066367
     45 H532        4.6070    0.9840   -1.1730 h1        1 MYD      0.066367
     46 H533        2.8340    0.4610   -1.1500 h1        1 MYD      0.066367
     47 H521        3.8790   -1.9160    2.7090 hc        1 MYD      0.046033
     48 H522        2.2100   -2.6310    2.5970 hc        1 MYD      0.046033
     49 H523        3.1350   -2.1980    1.0860 hc        1 MYD      0.046033
     50 H491        1.1310   -1.3560    4.8370 h1        1 MYD      0.072700
     51 H492       -0.0550   -1.8220    3.5030 h1        1 MYD      0.072700
     52 H31         0.1400    3.4800    2.8340 ho        1 MYD      0.444000
     53 H381        3.0030    2.5720   -0.5830 hc        1 MYD      0.072700
     54 H382        2.4110    3.8290    0.5730 hc        1 MYD      0.072700
     55 H371        4.4820    3.4660    2.0000 h1        1 MYD      0.033200
     56 H372        5.1120    2.3090    0.7140 h1        1 MYD      0.033200
     57 H341        5.3340    4.8490   -2.9160 hc        1 MYD      0.137700
     58 H342        4.8340    5.8400   -1.4960 hc        1 MYD      0.137700
     59 H281        6.0770    9.9740   -1.5170 h1        1 MYD      0.053700
     60 H282        7.3310    9.2370   -2.6430 h1        1 MYD      0.053700
     61 H27         4.4590    9.4320   -3.6990 h1        1 MYD      0.085700
     62 H26         7.2740    9.4410   -4.7900 h1        1 MYD      0.088700
     63 H25         5.7710    8.1350   -5.6940 ho        1 MYD      0.468000
     64 H22         7.3420   11.5520   -5.8290 h1        1 MYD      0.117700
     65 H21         4.6830   10.9860   -6.4780 ho        1 MYD      0.421000
     66 H23         5.1170   12.9510   -4.5380 h2        1 MYD      0.091700
     67 H16         8.1960    6.3650   -1.2780 ho        1 MYD      0.502000
     68 H17         5.3130   15.8070   -0.5220 h5        1 MYD      0.049100
     69 H111        9.9810   14.3060    0.1780 hn        1 MYD      0.446800
     70 H112        9.8670   15.9610   -0.0240 hn        1 MYD      0.446800
     71 H113       10.4450   14.9920   -1.2710 hn        1 MYD      0.446800
@<TRIPOS>BOND
     1    1    2 1   
     2    1   44 1   
     3    1   45 1   
     4    1   46 1   
     5    2    3 1   
     6    3    4 ar  
     7    3   14 ar  
     8    4    5 1   
     9    4    6 ar  
    10    5   47 1   
    11    5   48 1   
    12    5   49 1   
    13    6    7 1   
    14    6   11 ar  
    15    7    8 1   
    16    7   50 1   
    17    7   51 1   
    18    8    9 1   
    19    9   10 2   
    20    9   11 1   
    21   11   12 ar  
    22   12   13 1   
    23   12   14 ar  
    24   13   52 1   
    25   14   15 1   
    26   15   16 1   
    27   15   53 1   
    28   15   54 1   
    29   16   17 1   
    30   16   55 1   
    31   16   56 1   
    32   17   18 1   
    33   18   19 1   
    34   18   20 1   
    35   18   21 1   
    36   21   22 1   
    37   21   57 1   
    38   21   58 1   
    39   22   23 2   
    40   22   24 1   
    41   22   25 1   
    42   24   67 1   
    43   25   26 1   
    44   26   27 1   
    45   26   59 1   
    46   26   60 1   
    47   27   28 1   
    48   27   29 1   
    49   27   61 1   
    50   28   33 1   
    51   29   30 1   
    52   29   31 1   
    53   29   62 1   
    54   30   63 1   
    55   31   32 1   
    56   31   33 1   
    57   31   64 1   
    58   32   65 1   
    59   33   34 1   
    60   33   66 1   
    61   34   35 2   
    62   34   38 1   
    63   35   36 2   
    64   36   37 1   
    65   37   38 ar  
    66   37   42 ar  
    67   38   39 ar  
    68   39   40 ar  
    69   40   41 ar  
    70   40   68 1   
    71   41   42 ar  
    72   42   43 1   
    73   43   69 1   
    74   43   70 1   
    75   43   71 1   
@<TRIPOS>SUBSTRUCTURE
     1 MYD         1 TEMP              0 ****  ****    0 ROOT
