@<TRIPOS>MOLECULE
MYD
   70    74     1     0     0
SMALL
bcc


@<TRIPOS>ATOM
      1 C53         1.8980    3.7050    0.7550 c3        1 MYD      0.097700
      2 O51         1.9370    2.4260    0.1160 os        1 MYD     -0.337900
      3 C46         2.1330    1.3050    0.8880 ca        1 MYD      0.191100
      4 C47         1.3650    0.1920    0.3970 ca        1 MYD     -0.114300
      5 C52         0.4960    0.3700   -0.7870 c3        1 MYD     -0.032800
      6 C48         1.4890   -1.0070    1.0490 ca        1 MYD     -0.071300
      7 C49         0.8410   -2.3370    0.8000 c3        1 MYD      0.174700
      8 O50         1.3400   -3.2240    1.8400 os        1 MYD     -0.432900
      9 C42         2.2290   -2.5210    2.6560 c         1 MYD      0.753200
     10 O43         2.7290   -3.1560    3.5820 o         1 MYD     -0.615500
     11 C41         2.3380   -1.1450    2.1810 ca        1 MYD     -0.325600
     12 C40         3.0920   -0.0700    2.6350 ca        1 MYD      0.240100
     13 O31         3.9170   -0.1710    3.7200 oh        1 MYD     -0.470100
     14 C39         3.0160    1.1920    1.9720 ca        1 MYD     -0.123300
     15 C38         3.8930    2.2910    2.4570 c3        1 MYD     -0.087100
     16 C37         4.9240    2.7520    1.4070 c3        1 MYD      0.202400
     17 O36         5.0020    4.1340    1.3990 os        1 MYD     -0.595200
     18 P35         6.4340    4.8190    1.9800 p5        1 MYD      1.382600
     19 O45         7.4910    3.9090    1.4950 o         1 MYD     -0.866000
     20 O30         6.1710    4.9900    3.4270 o         1 MYD     -0.866000
     21 C34         6.3020    6.3670    1.1850 c3        1 MYD     -0.578800
     22 P33         7.0970    7.3000   -0.0010 p5        1 MYD      1.417600
     23 O44         6.8800    6.8690   -1.4110 o         1 MYD     -0.887500
     24 O29         8.3900    7.8900    0.4000 o         1 MYD     -0.887500
     25 O32         6.0380    8.6340    0.0250 os        1 MYD     -0.581200
     26 C28         6.3630    9.6460   -0.8540 c3        1 MYD      0.209400
     27 C27         5.4700    9.5840   -2.1100 c3        1 MYD      0.058100
     28 O24         5.1190   10.9240   -2.5220 os        1 MYD     -0.424600
     29 C26         6.1230    8.8650   -3.3070 c3        1 MYD      0.122100
     30 O25         5.4070    7.7000   -3.6470 oh        1 MYD     -0.655800
     31 C22         6.0380    9.8560   -4.4880 c3        1 MYD      0.108100
     32 O21         5.1020    9.5190   -5.4850 oh        1 MYD     -0.601800
     33 C23         5.5940   11.2080   -3.8310 c3        1 MYD      0.213800
     34 N20         6.6570   12.2000   -3.7670 na        1 MYD     -0.261000
     35 C16         7.7610   12.2190   -2.8810 cc        1 MYD      0.444700
     36 N15         8.5380   13.3090   -3.0070 nd        1 MYD     -0.575100
     37 C14         7.9280   14.0750   -4.0100 ca        1 MYD     -0.212200
     38 C19         6.7240   13.3950   -4.4920 ca        1 MYD      0.445800
     39 N18         5.9090   13.9190   -5.4600 nb        1 MYD     -0.712000
     40 C17         6.3310   15.1200   -5.9070 ca        1 MYD      0.654900
     41 N12         7.4180   15.8630   -5.5520 nb        1 MYD     -0.803000
     42 C13         8.2530   15.3360   -4.6010 ca        1 MYD      0.715200
     43 N11         9.4330   15.9800   -4.2510 nh        1 MYD     -0.938500
     44 H531        1.2770    4.3140    0.0480 h1        1 MYD      0.066033
     45 H532        2.9350    4.1260    0.8300 h1        1 MYD      0.066033
     46 H533        1.4050    3.6430    1.7530 h1        1 MYD      0.066033
     47 H521        1.1190    0.6210   -1.6820 hc        1 MYD      0.041700
     48 H522       -0.0900   -0.5570   -0.9990 hc        1 MYD      0.041700
     49 H523       -0.2130    1.2200   -0.6190 hc        1 MYD      0.041700
     50 H491       -0.2720   -2.3080    0.9080 h1        1 MYD      0.065200
     51 H492        1.1380   -2.7880   -0.1790 h1        1 MYD      0.065200
     52 H31         3.9100   -1.0960    4.0200 ho        1 MYD      0.437000
     53 H381        3.2710    3.1710    2.7700 hc        1 MYD      0.072700
     54 H382        4.4520    1.9650    3.3750 hc        1 MYD      0.072700
     55 H371        5.9310    2.3000    1.6270 h1        1 MYD      0.032700
     56 H372        4.5830    2.4100    0.3870 h1        1 MYD      0.032700
     57 H341        6.2850    7.0570    2.0700 hc        1 MYD      0.103200
     58 H342        5.2500    6.3290    0.7960 hc        1 MYD      0.103200
     59 H281        7.4510    9.5780   -1.1430 h1        1 MYD      0.017200
     60 H282        6.1770   10.6370   -0.3490 h1        1 MYD      0.017200
     61 H27         4.4940    9.0920   -1.8440 h1        1 MYD      0.091700
     62 H26         7.1960    8.6070   -3.0910 h1        1 MYD      0.099700
     63 H25         5.7050    7.0060   -3.0220 ho        1 MYD      0.501000
     64 H22         7.0210    9.9460   -5.0210 h1        1 MYD      0.077700
     65 H21         4.4580    8.9080   -5.1000 ho        1 MYD      0.431000
     66 H23         4.7310   11.6660   -4.3980 h2        1 MYD      0.104700
     67 H16         7.9160   11.3960   -2.1630 h5        1 MYD      0.107800
     68 H17         5.6930   15.5850   -6.6880 h5        1 MYD      0.035100
     69 H111        9.8430   15.6810   -3.3970 hn        1 MYD      0.418800
     70 H112        9.5040   16.9480   -4.4580 hn        1 MYD      0.418800
@<TRIPOS>BOND
     1    1    2 1   
     2    1   44 1   
     3    1   45 1   
     4    1   46 1   
     5    2    3 1   
     6    3    4 ar  
     7    3   14 ar  
     8    4    5 1   
     9    4    6 ar  
    10    5   47 1   
    11    5   48 1   
    12    5   49 1   
    13    6    7 1   
    14    6   11 ar  
    15    7    8 1   
    16    7   50 1   
    17    7   51 1   
    18    8    9 1   
    19    9   10 2   
    20    9   11 1   
    21   11   12 ar  
    22   12   13 1   
    23   12   14 ar  
    24   13   52 1   
    25   14   15 1   
    26   15   16 1   
    27   15   53 1   
    28   15   54 1   
    29   16   17 1   
    30   16   55 1   
    31   16   56 1   
    32   17   18 1   
    33   18   19 1   
    34   18   20 1   
    35   18   21 1   
    36   21   22 1   
    37   21   57 1   
    38   21   58 1   
    39   22   23 1   
    40   22   24 1   
    41   22   25 1   
    42   25   26 1   
    43   26   27 1   
    44   26   59 1   
    45   26   60 1   
    46   27   28 1   
    47   27   29 1   
    48   27   61 1   
    49   28   33 1   
    50   29   30 1   
    51   29   31 1   
    52   29   62 1   
    53   30   63 1   
    54   31   32 1   
    55   31   33 1   
    56   31   64 1   
    57   32   65 1   
    58   33   34 1   
    59   33   66 1   
    60   34   35 1   
    61   34   38 1   
    62   35   36 2   
    63   35   67 1   
    64   36   37 1   
    65   37   38 ar  
    66   37   42 ar  
    67   38   39 ar  
    68   39   40 ar  
    69   40   41 ar  
    70   40   68 1   
    71   41   42 ar  
    72   42   43 1   
    73   43   69 1   
    74   43   70 1   
@<TRIPOS>SUBSTRUCTURE
     1 MYD         1 TEMP              0 ****  ****    0 ROOT
