@<TRIPOS>MOLECULE
MYE
   58    58     1     0     0
SMALL
bcc


@<TRIPOS>ATOM
      1 C2         -0.5620    0.3930    0.9100 c3        1 MYE     -0.078400
      2 C3          0.8480    0.0810    0.4400 c3        1 MYE     -0.096400
      3 C4          1.6400   -0.5850    1.5450 c3        1 MYE     -0.111400
      4 C5          3.1410   -0.6470    1.2480 c3        1 MYE     -0.014500
      5 N6          3.4200   -1.4950    0.0240 ny        1 MYE     -0.649800
      6 C7          4.7840   -1.2890   -0.5450 c         1 MYE      0.531100
      7 O8          5.2210   -0.1510   -0.6380 o         1 MYE     -0.384100
      8 C9          5.5630   -2.5380   -0.9930 c3        1 MYE      0.082500
      9 C10         6.7650   -2.7080   -0.0500 c3        1 MYE     -0.115400
     10 C11         7.6310   -3.9270   -0.3260 c3        1 MYE     -0.093700
     11 C12         8.5940   -3.7320   -1.4800 c3        1 MYE     -0.118100
     12 C13         6.8220   -5.1930   -0.4950 c3        1 MYE     -0.118100
     13 N14         5.9820   -2.3740   -2.4260 ny        1 MYE     -0.661800
     14 C15         4.7900   -2.1860   -3.3400 c         1 MYE      0.645100
     15 O16         3.7050   -1.8690   -2.8500 o         1 MYE     -0.531000
     16 O17         5.1020   -2.4050   -4.5990 os        1 MYE     -0.383900
     17 C18         4.0060   -2.2210   -5.6300 c3        1 MYE      0.242700
     18 C19         4.6720   -2.5380   -6.9020 ca        1 MYE     -0.175300
     19 C20         5.2930   -1.5230   -7.6460 ca        1 MYE     -0.074000
     20 C21         5.8710   -1.8120   -8.8780 ca        1 MYE     -0.109000
     21 C22         5.8450   -3.1210   -9.3790 ca        1 MYE      0.027100
     22 Br2         6.6200   -3.5080  -11.0290 br        1 MYE      0.000900
     23 C24         5.2290   -4.1370   -8.6340 ca        1 MYE     -0.109000
     24 C25         4.6510   -3.8490   -7.4020 ca        1 MYE     -0.074000
     25 C26         3.8830   -1.1640    2.4850 c         1 MYE      0.579900
     26 O27         4.6580   -2.1140    2.4050 o         1 MYE     -0.515100
     27 C1         -1.3770    1.0140   -0.1940 c3        1 MYE     -0.101100
     28 H21A       -1.0560   -0.5500    1.2640 hc        1 MYE      0.059700
     29 H22        -0.5160    1.0950    1.7860 hc        1 MYE      0.059700
     30 H31         0.7820   -0.5880   -0.4600 hc        1 MYE      0.042700
     31 H32         1.3490    1.0340    0.1230 hc        1 MYE      0.042700
     32 H41         1.5240    0.0170    2.4910 hc        1 MYE      0.100200
     33 H42         1.2330   -1.6100    1.7540 hc        1 MYE      0.100200
     34 H5          3.5200    0.3990    1.0180 hx        1 MYE      0.151700
     35 HN6         2.7280   -1.2500   -0.7100 hn        1 MYE      0.485800
     36 H9          4.9200   -3.4710   -0.9490 hx        1 MYE      0.140700
     37 H101        6.3340   -2.8060    0.9900 hc        1 MYE      0.110200
     38 H102        7.3970   -1.7780   -0.0680 hc        1 MYE      0.110200
     39 H11         8.2580   -4.0490    0.6120 hc        1 MYE      0.116700
     40 H121        9.5480   -4.2810   -1.2650 hc        1 MYE      0.054700
     41 H122        8.8540   -2.6570   -1.6260 hc        1 MYE      0.054700
     42 H123        8.2000   -4.1560   -2.4370 hc        1 MYE      0.054700
     43 H131        6.1120   -5.3290    0.3560 hc        1 MYE      0.054700
     44 H132        7.5090   -6.0770   -0.5160 hc        1 MYE      0.054700
     45 H133        6.2460   -5.1890   -1.4530 hc        1 MYE      0.054700
     46 H14         6.5140   -3.2170   -2.7130 hn        1 MYE      0.499800
     47 H181        3.6780   -1.1560   -5.5350 h1        1 MYE      0.090200
     48 H182        3.1970   -2.9380   -5.3420 h1        1 MYE      0.090200
     49 H20         5.3110   -0.4890   -7.2660 ha        1 MYE      0.142500
     50 H21         6.3450   -1.0030   -9.4600 ha        1 MYE      0.176000
     51 H24         5.1950   -5.1690   -9.0240 ha        1 MYE      0.176000
     52 H25         4.1620   -4.6530   -6.8300 ha        1 MYE      0.142500
     53 H26         3.6590   -0.6030    3.4170 h4        1 MYE      0.099200
     54 H11A       -0.9120    1.9670   -0.5460 hc        1 MYE      0.051367
     55 H12        -1.4660    0.3200   -1.0640 hc        1 MYE      0.051367
     56 H13        -2.4070    1.2440    0.1780 hc        1 MYE      0.051367
     57 H62         3.2930   -2.4820    0.2820 hn        1 MYE      0.485800
     58 H142        6.6100   -1.5600   -2.5220 hn        1 MYE      0.499800
@<TRIPOS>BOND
     1    1    2 1   
     2    1   27 1   
     3    1   28 1   
     4    1   29 1   
     5    2    3 1   
     6    2   30 1   
     7    2   31 1   
     8    3    4 1   
     9    3   32 1   
    10    3   33 1   
    11    4    5 1   
    12    4   25 1   
    13    4   34 1   
    14    5    6 1   
    15    5   35 1   
    16    5   57 1   
    17    6    7 2   
    18    6    8 1   
    19    8    9 1   
    20    8   13 1   
    21    8   36 1   
    22    9   10 1   
    23    9   37 1   
    24    9   38 1   
    25   10   11 1   
    26   10   12 1   
    27   10   39 1   
    28   11   40 1   
    29   11   41 1   
    30   11   42 1   
    31   12   43 1   
    32   12   44 1   
    33   12   45 1   
    34   13   14 1   
    35   13   46 1   
    36   13   58 1   
    37   14   15 2   
    38   14   16 1   
    39   16   17 1   
    40   17   18 1   
    41   17   47 1   
    42   17   48 1   
    43   18   19 ar  
    44   18   24 ar  
    45   19   20 ar  
    46   19   49 1   
    47   20   21 ar  
    48   20   50 1   
    49   21   22 1   
    50   21   23 ar  
    51   23   24 ar  
    52   23   51 1   
    53   24   52 1   
    54   25   26 2   
    55   25   53 1   
    56   27   54 1   
    57   27   55 1   
    58   27   56 1   
@<TRIPOS>SUBSTRUCTURE
     1 MYE         1 TEMP              0 ****  ****    0 ROOT
