@<TRIPOS>MOLECULE
MYE
   56    56     1     0     0
SMALL
bcc


@<TRIPOS>ATOM
      1 C2         -0.8590   -6.3300    6.6900 c3        1 MYE     -0.080400
      2 C3         -1.3010   -5.0680    5.9790 c3        1 MYE     -0.081400
      3 C4         -1.8190   -4.0450    6.9650 c3        1 MYE     -0.090400
      4 C5         -2.3840   -2.8000    6.2660 c3        1 MYE     -0.019300
      5 N6         -1.3740   -2.0200    5.5910 n         1 MYE     -0.560900
      6 C7         -1.5630   -1.5090    4.3250 c         1 MYE      0.626100
      7 O8         -2.6580   -1.6000    3.7360 o         1 MYE     -0.607100
      8 C9         -0.3590   -0.7690    3.6790 c3        1 MYE      0.036700
      9 C10        -0.4490    0.7070    4.1090 c3        1 MYE     -0.075400
     10 C11         0.9030    1.3840    4.2790 c3        1 MYE     -0.065700
     11 C12         1.7650    1.2800    3.0410 c3        1 MYE     -0.095600
     12 C13         1.6460    0.8640    5.4920 c3        1 MYE     -0.095600
     13 N14        -0.3670   -0.9320    2.2410 n         1 MYE     -0.506900
     14 C15         0.5200   -1.8240    1.6640 c         1 MYE      0.732100
     15 O16         1.5720   -2.2790    2.1460 o         1 MYE     -0.591000
     16 O17         0.1770   -2.1590    0.3700 os        1 MYE     -0.435900
     17 C18         1.1680   -2.9380   -0.3310 c3        1 MYE      0.194700
     18 C19         0.6750   -3.1490   -1.7230 ca        1 MYE     -0.083300
     19 C20        -0.6900   -3.2110   -2.0170 ca        1 MYE     -0.113500
     20 C21        -1.1170   -3.4430   -3.3230 ca        1 MYE     -0.104500
     21 C22        -0.1800   -3.6220   -4.3440 ca        1 MYE     -0.022900
     22 BR2        -0.7520   -3.9410   -6.0980 br        1 MYE     -0.086100
     23 C24         1.1870   -3.5610   -4.0540 ca        1 MYE     -0.104500
     24 C25         1.6120   -3.3210   -2.7490 ca        1 MYE     -0.113500
     25 C26        -3.1760   -1.9680    7.2750 c         1 MYE      0.556900
     26 O27        -3.8910   -2.4940    8.1270 o         1 MYE     -0.521100
     27 C1         -0.3300   -7.3520    5.7170 c3        1 MYE     -0.094100
     28 H21A       -0.0640   -6.0770    7.4410 hc        1 MYE      0.040700
     29 H22        -1.7250   -6.7620    7.2580 hc        1 MYE      0.040700
     30 H31        -0.4370   -4.6460    5.4010 hc        1 MYE      0.044700
     31 H32        -2.1050   -5.3180    5.2370 hc        1 MYE      0.044700
     32 H41        -1.0030   -3.7530    7.6770 hc        1 MYE      0.062700
     33 H42        -2.6500   -4.4920    7.5750 hc        1 MYE      0.062700
     34 H5         -3.1430   -3.1380    5.4880 h1        1 MYE      0.110700
     35 HN6        -0.4650   -2.0140    5.9890 hn        1 MYE      0.317500
     36 H9          0.6120   -1.2060    4.0700 h1        1 MYE      0.102700
     37 H101       -0.9950    0.7560    5.0890 hc        1 MYE      0.058200
     38 H102       -1.0550    1.2860    3.3630 hc        1 MYE      0.058200
     39 H11         0.6840    2.4790    4.4580 hc        1 MYE      0.050700
     40 H121        2.6790    1.9110    3.1580 hc        1 MYE      0.038700
     41 H122        1.2010    1.6310    2.1430 hc        1 MYE      0.038700
     42 H123        2.0880    0.2240    2.8650 hc        1 MYE      0.038700
     43 H131        1.9490   -0.2020    5.3550 hc        1 MYE      0.038700
     44 H132        2.5720    1.4670    5.6560 hc        1 MYE      0.038700
     45 H133        1.0090    0.9390    6.4060 hc        1 MYE      0.038700
     46 H14        -1.2480   -0.8040    1.7880 hn        1 MYE      0.336500
     47 H181        1.2900   -3.9190    0.2050 h1        1 MYE      0.068200
     48 H182        2.1430   -2.3830   -0.3130 h1        1 MYE      0.068200
     49 H20        -1.4280   -3.0660   -1.2120 ha        1 MYE      0.146000
     50 H21        -2.1960   -3.4860   -3.5400 ha        1 MYE      0.148500
     51 H24         1.9330   -3.6980   -4.8510 ha        1 MYE      0.148500
     52 H25         2.6880   -3.2690   -2.5270 ha        1 MYE      0.146000
     53 H26        -3.0970   -0.8630    7.1770 h4        1 MYE      0.008200
     54 H11A       -1.1160   -7.6340    4.9750 hc        1 MYE      0.035033
     55 H12         0.5490   -6.9490    5.1590 hc        1 MYE      0.035033
     56 H13        -0.0110   -8.2750    6.2600 hc        1 MYE      0.035033
@<TRIPOS>BOND
     1    1    2 1   
     2    1   27 1   
     3    1   28 1   
     4    1   29 1   
     5    2    3 1   
     6    2   30 1   
     7    2   31 1   
     8    3    4 1   
     9    3   32 1   
    10    3   33 1   
    11    4    5 1   
    12    4   25 1   
    13    4   34 1   
    14    5    6 1   
    15    5   35 1   
    16    6    7 2   
    17    6    8 1   
    18    8    9 1   
    19    8   13 1   
    20    8   36 1   
    21    9   10 1   
    22    9   37 1   
    23    9   38 1   
    24   10   11 1   
    25   10   12 1   
    26   10   39 1   
    27   11   40 1   
    28   11   41 1   
    29   11   42 1   
    30   12   43 1   
    31   12   44 1   
    32   12   45 1   
    33   13   14 1   
    34   13   46 1   
    35   14   15 2   
    36   14   16 1   
    37   16   17 1   
    38   17   18 1   
    39   17   47 1   
    40   17   48 1   
    41   18   19 ar  
    42   18   24 ar  
    43   19   20 ar  
    44   19   49 1   
    45   20   21 ar  
    46   20   50 1   
    47   21   22 1   
    48   21   23 ar  
    49   23   24 ar  
    50   23   51 1   
    51   24   52 1   
    52   25   26 2   
    53   25   53 1   
    54   27   54 1   
    55   27   55 1   
    56   27   56 1   
@<TRIPOS>SUBSTRUCTURE
     1 MYE         1 TEMP              0 ****  ****    0 ROOT
