@<TRIPOS>MOLECULE
MYE
   58    58     1     0     0
SMALL
bcc


@<TRIPOS>ATOM
      1 C2         -0.5180    0.4080    0.9710 c3        1 MYE     -0.078400
      2 C3          0.8830    0.0900    0.4810 c3        1 MYE     -0.096400
      3 C4          1.6900   -0.5730    1.5770 c3        1 MYE     -0.111400
      4 C5          3.1860   -0.6400    1.2590 c3        1 MYE     -0.014500
      5 N6          3.4460   -1.4920    0.0330 n4        1 MYE     -0.649800
      6 C7          4.8020   -1.2890   -0.5550 c         1 MYE      0.531100
      7 O8          5.2400   -0.1530   -0.6580 o         1 MYE     -0.384100
      8 C9          5.5730   -2.5410   -1.0100 c3        1 MYE      0.082500
      9 C10         6.7880   -2.7100   -0.0840 c3        1 MYE     -0.115400
     10 C11         7.6480   -3.9320   -0.3690 c3        1 MYE     -0.093700
     11 C12         8.5940   -3.7430   -1.5370 c3        1 MYE     -0.118100
     12 C13         6.8340   -5.1970   -0.5220 c3        1 MYE     -0.118100
     13 N14         5.9720   -2.3820   -2.4500 n4        1 MYE     -0.661800
     14 C15         4.7680   -2.1950   -3.3470 c         1 MYE      0.645100
     15 O16         3.6900   -1.8750   -2.8430 o         1 MYE     -0.531000
     16 O17         5.0610   -2.4170   -4.6100 os        1 MYE     -0.383900
     17 C18         3.9510   -2.2360   -5.6260 c3        1 MYE      0.242700
     18 C19         4.6000   -2.5480   -6.9070 ca        1 MYE     -0.175300
     19 C20         5.2060   -1.5290   -7.6590 ca        1 MYE     -0.074500
     20 C21         5.7690   -1.8140   -8.8990 ca        1 MYE     -0.109000
     21 C22         5.7420   -3.1220   -9.4010 ca        1 MYE      0.027100
     22 BR2         6.4970   -3.5030  -11.0620 br        1 MYE      0.000900
     23 C24         5.1410   -4.1420   -8.6490 ca        1 MYE     -0.109000
     24 C25         4.5790   -3.8580   -7.4090 ca        1 MYE     -0.074500
     25 C26         3.9450   -1.1550    2.4860 c         1 MYE      0.579900
     26 O27         4.7160   -2.1060    2.3990 o         1 MYE     -0.515100
     27 C1         -1.3490    1.0260   -0.1240 c3        1 MYE     -0.101100
     28 H21A       -1.0100   -0.5330    1.3340 hc        1 MYE      0.059700
     29 H22        -0.4590    1.1130    1.8420 hc        1 MYE      0.059700
     30 H31         1.3830    1.0410    0.1530 hc        1 MYE      0.042700
     31 H32         0.8040   -0.5810   -0.4160 hc        1 MYE      0.042700
     32 H41         1.5880    0.0310    2.5230 hc        1 MYE      0.100200
     33 H42         1.2840   -1.5970    1.7950 hc        1 MYE      0.100200
     34 H5          3.5640    0.4050    1.0210 hx        1 MYE      0.151700
     35 HN6         2.7450   -1.2470   -0.6920 hn        1 MYE      0.485800
     36 H9          4.9290   -3.4740   -0.9550 hx        1 MYE      0.140700
     37 H101        6.3720   -2.8040    0.9630 hc        1 MYE      0.110200
     38 H102        7.4220   -1.7820   -0.1140 hc        1 MYE      0.110200
     39 H11         8.2890   -4.0530    0.5610 hc        1 MYE      0.116700
     40 H121        8.8540   -2.6680   -1.6900 hc        1 MYE      0.054700
     41 H122        9.5510   -4.2930   -1.3340 hc        1 MYE      0.054700
     42 H123        8.1860   -4.1690   -2.4870 hc        1 MYE      0.054700
     43 H131        7.5200   -6.0830   -0.5500 hc        1 MYE      0.054700
     44 H132        6.2450   -5.1960   -1.4710 hc        1 MYE      0.054700
     45 H133        6.1360   -5.3290    0.3400 hc        1 MYE      0.054700
     46 H14         6.6000   -1.5700   -2.5580 hn        1 MYE      0.499800
     47 H181        3.1480   -2.9560   -5.3280 h1        1 MYE      0.090200
     48 H182        3.6200   -1.1710   -5.5240 h1        1 MYE      0.090200
     49 H20         5.2250   -0.4960   -7.2770 ha        1 MYE      0.142500
     50 H21         6.2310   -1.0020   -9.4860 ha        1 MYE      0.176000
     51 H24         5.1060   -5.1740   -9.0400 ha        1 MYE      0.176000
     52 H25         4.1010   -4.6650   -6.8310 ha        1 MYE      0.142500
     53 H26         3.7350   -0.5910    3.4210 h4        1 MYE      0.099200
     54 H11A       -1.4520    0.3280   -0.9900 hc        1 MYE      0.051367
     55 H12        -0.8860    1.9760   -0.4870 hc        1 MYE      0.051367
     56 H13        -2.3720    1.2590    0.2610 hc        1 MYE      0.051367
     57 H62         3.3220   -2.4780    0.2960 hn        1 MYE      0.485800
     58 H142        6.4990   -3.2280   -2.7420 hn        1 MYE      0.499800
@<TRIPOS>BOND
     1    1    2 1   
     2    1   27 1   
     3    1   28 1   
     4    1   29 1   
     5    2    3 1   
     6    2   30 1   
     7    2   31 1   
     8    3    4 1   
     9    3   32 1   
    10    3   33 1   
    11    4    5 1   
    12    4   25 1   
    13    4   34 1   
    14    5    6 1   
    15    5   35 1   
    16    5   57 1   
    17    6    7 2   
    18    6    8 1   
    19    8    9 1   
    20    8   13 1   
    21    8   36 1   
    22    9   10 1   
    23    9   37 1   
    24    9   38 1   
    25   10   11 1   
    26   10   12 1   
    27   10   39 1   
    28   11   40 1   
    29   11   41 1   
    30   11   42 1   
    31   12   43 1   
    32   12   44 1   
    33   12   45 1   
    34   13   14 1   
    35   13   46 1   
    36   13   58 1   
    37   14   15 2   
    38   14   16 1   
    39   16   17 1   
    40   17   18 1   
    41   17   47 1   
    42   17   48 1   
    43   18   19 ar  
    44   18   24 ar  
    45   19   20 ar  
    46   19   49 1   
    47   20   21 ar  
    48   20   50 1   
    49   21   22 1   
    50   21   23 ar  
    51   23   24 ar  
    52   23   51 1   
    53   24   52 1   
    54   25   26 2   
    55   25   53 1   
    56   27   54 1   
    57   27   55 1   
    58   27   56 1   
@<TRIPOS>SUBSTRUCTURE
     1 MYE         1 TEMP              0 ****  ****    0 ROOT
