@<TRIPOS>MOLECULE
MYE
   58    58     1     0     0
SMALL
bcc


@<TRIPOS>ATOM
      1 C2         -0.5560    0.3870    0.9240 c3        1 MYE     -0.078400
      2 C3          0.8520    0.0740    0.4510 c3        1 MYE     -0.096400
      3 C4          1.6450   -0.5960    1.5530 c3        1 MYE     -0.111400
      4 C5          3.1460   -0.6580    1.2540 c3        1 MYE     -0.014500
      5 N6          3.4230   -1.5020    0.0270 n4        1 MYE     -0.649800
      6 C7          4.7860   -1.2950   -0.5410 c         1 MYE      0.531100
      7 O8          5.2250   -0.1580   -0.6300 o         1 MYE     -0.384100
      8 C9          5.5640   -2.5430   -0.9960 c3        1 MYE      0.082500
      9 C10         6.7650   -2.7200   -0.0540 c3        1 MYE     -0.115400
     10 C11         7.6290   -3.9390   -0.3370 c3        1 MYE     -0.093700
     11 C12         8.5920   -3.7410   -1.4910 c3        1 MYE     -0.118100
     12 C13         6.8170   -5.2030   -0.5120 c3        1 MYE     -0.118100
     13 N14         5.9820   -2.3730   -2.4290 n4        1 MYE     -0.661800
     14 C15         4.7900   -2.1790   -3.3410 c         1 MYE      0.645100
     15 O16         3.7060   -1.8620   -2.8490 o         1 MYE     -0.531000
     16 O17         5.1010   -2.3910   -4.6020 os        1 MYE     -0.383900
     17 C18         4.0050   -2.2000   -5.6310 c3        1 MYE      0.242700
     18 C19         4.6680   -2.5170   -6.9040 ca        1 MYE     -0.175300
     19 C20         5.2940   -1.5020   -7.6460 ca        1 MYE     -0.074000
     20 C21         5.8700   -1.7910   -8.8790 ca        1 MYE     -0.109000
     21 C22         5.8370   -3.0980   -9.3840 ca        1 MYE      0.027100
     22 BR2         6.6100   -3.4840  -11.0350 br        1 MYE      0.000900
     23 C24         5.2160   -4.1130   -8.6420 ca        1 MYE     -0.109000
     24 C25         4.6400   -3.8260   -7.4090 ca        1 MYE     -0.074000
     25 C26         3.8880   -1.1810    2.4890 c         1 MYE      0.579900
     26 O27         4.6620   -2.1310    2.4050 o         1 MYE     -0.515100
     27 C1         -1.3730    1.0110   -0.1770 c3        1 MYE     -0.101100
     28 H21A       -1.0520   -0.5570    1.2750 hc        1 MYE      0.059700
     29 H22        -0.5090    1.0860    1.8010 hc        1 MYE      0.059700
     30 H31         0.7850   -0.5910   -0.4510 hc        1 MYE      0.042700
     31 H32         1.3540    1.0280    0.1370 hc        1 MYE      0.042700
     32 H41         1.5300    0.0020    2.5020 hc        1 MYE      0.100200
     33 H42         1.2380   -1.6210    1.7580 hc        1 MYE      0.100200
     34 H5          3.5260    0.3890    1.0290 hx        1 MYE      0.151700
     35 HN6         2.7310   -1.2520   -0.7060 hn        1 MYE      0.485800
     36 H9          4.9190   -3.4760   -0.9570 hx        1 MYE      0.140700
     37 H101        6.3350   -2.8220    0.9850 hc        1 MYE      0.110200
     38 H102        7.4000   -1.7920   -0.0690 hc        1 MYE      0.110200
     39 H11         8.2570   -4.0670    0.6010 hc        1 MYE      0.116700
     40 H121        9.5450   -4.2930   -1.2790 hc        1 MYE      0.054700
     41 H122        8.1960   -4.1600   -2.4500 hc        1 MYE      0.054700
     42 H123        8.8540   -2.6650   -1.6320 hc        1 MYE      0.054700
     43 H131        7.5030   -6.0880   -0.5370 hc        1 MYE      0.054700
     44 H132        6.1070   -5.3420    0.3390 hc        1 MYE      0.054700
     45 H133        6.2410   -5.1940   -1.4690 hc        1 MYE      0.054700
     46 H14         6.6120   -1.5600   -2.5210 hn        1 MYE      0.499800
     47 H181        3.6820   -1.1330   -5.5330 h1        1 MYE      0.090200
     48 H182        3.1930   -2.9140   -5.3440 h1        1 MYE      0.090200
     49 H20         5.3180   -0.4700   -7.2630 ha        1 MYE      0.142500
     50 H21         6.3480   -0.9830   -9.4590 ha        1 MYE      0.176000
     51 H24         5.1760   -5.1440   -9.0350 ha        1 MYE      0.176000
     52 H25         4.1470   -4.6290   -6.8390 ha        1 MYE      0.142500
     53 H26         3.6650   -0.6240    3.4240 h4        1 MYE      0.099200
     54 H11A       -1.4630    0.3200   -1.0490 hc        1 MYE      0.051367
     55 H12        -2.4010    1.2410    0.1960 hc        1 MYE      0.051367
     56 H13        -0.9070    1.9650   -0.5270 hc        1 MYE      0.051367
     57 H62         3.2950   -2.4900    0.2810 hn        1 MYE      0.485800
     58 H142        6.5130   -3.2160   -2.7200 hn        1 MYE      0.499800
@<TRIPOS>BOND
     1    1    2 1   
     2    1   27 1   
     3    1   28 1   
     4    1   29 1   
     5    2    3 1   
     6    2   30 1   
     7    2   31 1   
     8    3    4 1   
     9    3   32 1   
    10    3   33 1   
    11    4    5 1   
    12    4   25 1   
    13    4   34 1   
    14    5    6 1   
    15    5   35 1   
    16    5   57 1   
    17    6    7 2   
    18    6    8 1   
    19    8    9 1   
    20    8   13 1   
    21    8   36 1   
    22    9   10 1   
    23    9   37 1   
    24    9   38 1   
    25   10   11 1   
    26   10   12 1   
    27   10   39 1   
    28   11   40 1   
    29   11   41 1   
    30   11   42 1   
    31   12   43 1   
    32   12   44 1   
    33   12   45 1   
    34   13   14 1   
    35   13   46 1   
    36   13   58 1   
    37   14   15 2   
    38   14   16 1   
    39   16   17 1   
    40   17   18 1   
    41   17   47 1   
    42   17   48 1   
    43   18   19 ar  
    44   18   24 ar  
    45   19   20 ar  
    46   19   49 1   
    47   20   21 ar  
    48   20   50 1   
    49   21   22 1   
    50   21   23 ar  
    51   23   24 ar  
    52   23   51 1   
    53   24   52 1   
    54   25   26 2   
    55   25   53 1   
    56   27   54 1   
    57   27   55 1   
    58   27   56 1   
@<TRIPOS>SUBSTRUCTURE
     1 MYE         1 TEMP              0 ****  ****    0 ROOT
