@<TRIPOS>MOLECULE
MYF
   32    34     1     0     0
SMALL
bcc


@<TRIPOS>ATOM
      1 O22        -0.0890   -0.0640    0.0000 o         1 MYF     -0.520100
      2 C7          1.1480   -0.0520    0.0180 c         1 MYF      0.595900
      3 C6          1.9550   -0.0030    1.2420 ca        1 MYF     -0.278600
      4 C1          1.3800    0.0380    2.5340 ca        1 MYF      0.248100
      5 O21         0.0160    0.0300    2.6040 oh        1 MYF     -0.448100
      6 C2          2.1760    0.0840    3.6860 ca        1 MYF     -0.349000
      7 C3          3.5720    0.0900    3.5490 ca        1 MYF      0.217100
      8 O20         4.4120    0.1340    4.6320 oh        1 MYF     -0.484100
      9 C5          3.3600    0.0050    1.1610 ca        1 MYF      0.210100
     10 C4          4.1870    0.0500    2.2910 ca        1 MYF     -0.230000
     11 O10         4.0470   -0.0330   -0.0410 os        1 MYF     -0.220200
     12 C9          3.2900   -0.0790   -1.2060 cc        1 MYF      0.174900
     13 C8          1.9410   -0.0860   -1.2160 cd        1 MYF     -0.296200
     14 C11         4.1490   -0.1060   -2.3960 ca        1 MYF     -0.007800
     15 C12         3.6880   -0.7500   -3.5510 ca        1 MYF     -0.154000
     16 C13         4.4920   -0.7540   -4.6980 ca        1 MYF      0.149600
     17 O19         4.0060   -1.3850   -5.8150 oh        1 MYF     -0.486600
     18 C14         5.7420   -0.1100   -4.6920 ca        1 MYF     -0.076900
     19 O18         6.5590   -0.1690   -5.8080 oh        1 MYF     -0.517100
     20 C15         6.2050    0.5010   -3.5120 ca        1 MYF      0.149600
     21 C16         5.4050    0.5090   -2.3610 ca        1 MYF     -0.154000
     22 O17         7.4260    1.1220   -3.4460 oh        1 MYF     -0.486600
     23 HO21       -0.2410    0.0600    3.5390 ho        1 MYF      0.422000
     24 H2          1.7130    0.1150    4.6810 ha        1 MYF      0.143000
     25 HO20        3.8700    0.1560    5.4360 ho        1 MYF      0.427000
     26 H4          5.2800    0.0540    2.1950 ha        1 MYF      0.175000
     27 H8          1.3770   -0.1100   -2.1610 ha        1 MYF      0.172000
     28 H12         2.7130   -1.2580   -3.5740 ha        1 MYF      0.168500
     29 HO19        4.7330   -1.4480   -6.4570 ho        1 MYF      0.435000
     30 HO18        6.3430    0.6140   -6.3400 ho        1 MYF      0.417000
     31 H16         5.7740    0.9930   -1.4440 ha        1 MYF      0.168500
     32 HO17        7.9160    0.8940   -4.2530 ho        1 MYF      0.435000
@<TRIPOS>BOND
     1    1    2 2   
     2    2    3 1   
     3    2   13 1   
     4    3    4 ar  
     5    3    9 ar  
     6    4    5 1   
     7    4    6 ar  
     8    5   23 1   
     9    6    7 ar  
    10    6   24 1   
    11    7    8 1   
    12    7   10 ar  
    13    8   25 1   
    14    9   10 ar  
    15    9   11 1   
    16   10   26 1   
    17   11   12 1   
    18   12   13 2   
    19   12   14 1   
    20   13   27 1   
    21   14   15 ar  
    22   14   21 ar  
    23   15   16 ar  
    24   15   28 1   
    25   16   17 1   
    26   16   18 ar  
    27   17   29 1   
    28   18   19 1   
    29   18   20 ar  
    30   19   30 1   
    31   20   21 ar  
    32   20   22 1   
    33   21   31 1   
    34   22   32 1   
@<TRIPOS>SUBSTRUCTURE
     1 MYF         1 TEMP              0 ****  ****    0 ROOT
