@<TRIPOS>MOLECULE
MYF
   32    34     1     0     0
SMALL
bcc


@<TRIPOS>ATOM
      1 O22         5.6530    2.3810   -0.2560 o         1 MYF     -0.587100
      2 C7          4.5050    2.8580   -0.3320 c         1 MYF      0.606900
      3 C6          3.2880    2.0590   -0.2030 ca        1 MYF     -0.333600
      4 C1          3.2930    0.6570    0.0110 ca        1 MYF      0.260100
      5 O21         4.4230   -0.0960    0.1210 oh        1 MYF     -0.493100
      6 C2          2.0950   -0.0660    0.1270 ca        1 MYF     -0.239000
      7 C3          0.8770    0.6170    0.0280 ca        1 MYF      0.216100
      8 O20        -0.2580   -0.1430    0.1500 oh        1 MYF     -0.483100
      9 C5          2.0340    2.6950   -0.2950 ca        1 MYF      0.219100
     10 C4          0.8230    2.0030   -0.1840 ca        1 MYF     -0.292000
     11 O10         1.8870    4.0570   -0.5000 os        1 MYF     -0.220200
     12 C9          3.0420    4.8140   -0.6280 cc        1 MYF      0.200900
     13 C8          4.2830    4.2840   -0.5600 cd        1 MYF     -0.312200
     14 C11         2.7330    6.2290   -0.8510 ca        1 MYF     -0.041800
     15 C12         3.6420    7.2040   -0.4170 ca        1 MYF     -0.149500
     16 C13         3.3590    8.5530   -0.6430 ca        1 MYF      0.104600
     17 O19         4.1940    9.5790   -0.2540 oh        1 MYF     -0.499600
     18 C14         2.1750    8.9420   -1.2970 ca        1 MYF      0.042100
     19 O18         1.8370   10.2510   -1.5520 oh        1 MYF     -0.507100
     20 C15         1.2680    7.9500   -1.7210 ca        1 MYF      0.104600
     21 C16         1.5470    6.5940   -1.4960 ca        1 MYF     -0.149500
     22 O17         0.0920    8.2500   -2.3620 oh        1 MYF     -0.499600
     23 HO21        5.2150    0.4630    0.0300 ho        1 MYF      0.467000
     24 H2          2.1180   -1.1520    0.2930 ha        1 MYF      0.177000
     25 HO20       -1.0260    0.4420    0.0640 ho        1 MYF      0.429000
     26 H4         -0.1310    2.5390   -0.2600 ha        1 MYF      0.160000
     27 H8          5.1800    4.9090   -0.6860 ha        1 MYF      0.170000
     28 H12         4.5660    6.9150    0.1030 ha        1 MYF      0.160000
     29 HO19        4.9620    9.1870    0.1880 ho        1 MYF      0.439500
     30 HO18        2.5470   10.8150   -1.2070 ho        1 MYF      0.451000
     31 H16         0.8260    5.8320   -1.8290 ha        1 MYF      0.160000
     32 HO17        0.0350    9.2150   -2.4510 ho        1 MYF      0.439500
@<TRIPOS>BOND
     1    1    2 2   
     2    2    3 1   
     3    2   13 1   
     4    3    4 ar  
     5    3    9 ar  
     6    4    5 1   
     7    4    6 ar  
     8    5   23 1   
     9    6    7 ar  
    10    6   24 1   
    11    7    8 1   
    12    7   10 ar  
    13    8   25 1   
    14    9   10 ar  
    15    9   11 1   
    16   10   26 1   
    17   11   12 1   
    18   12   13 2   
    19   12   14 1   
    20   13   27 1   
    21   14   15 ar  
    22   14   21 ar  
    23   15   16 ar  
    24   15   28 1   
    25   16   17 1   
    26   16   18 ar  
    27   17   29 1   
    28   18   19 1   
    29   18   20 ar  
    30   19   30 1   
    31   20   21 ar  
    32   20   22 1   
    33   21   31 1   
    34   22   32 1   
@<TRIPOS>SUBSTRUCTURE
     1 MYF         1 TEMP              0 ****  ****    0 ROOT
