@<TRIPOS>MOLECULE
MYF
   32    34     1     0     0
SMALL
bcc


@<TRIPOS>ATOM
      1 O22        -0.0890   -0.0600    0.0020 o         1 MYF     -0.520100
      2 C7          1.1480   -0.0500    0.0200 c         1 MYF      0.595900
      3 C6          1.9560   -0.0020    1.2430 ca        1 MYF     -0.278600
      4 C1          1.3820    0.0390    2.5350 ca        1 MYF      0.248100
      5 O21         0.0180    0.0330    2.6060 oh        1 MYF     -0.448100
      6 C2          2.1780    0.0840    3.6870 ca        1 MYF     -0.349000
      7 C3          3.5750    0.0870    3.5490 ca        1 MYF      0.217100
      8 O20         4.4150    0.1300    4.6320 oh        1 MYF     -0.484100
      9 C5          3.3610    0.0040    1.1610 ca        1 MYF      0.210100
     10 C4          4.1890    0.0480    2.2910 ca        1 MYF     -0.230000
     11 O10         4.0470   -0.0340   -0.0410 os        1 MYF     -0.220200
     12 C9          3.2900   -0.0790   -1.2060 cc        1 MYF      0.174900
     13 C8          1.9410   -0.0840   -1.2150 cd        1 MYF     -0.296200
     14 C11         4.1480   -0.1050   -2.3960 ca        1 MYF     -0.007800
     15 C12         3.6850   -0.7480   -3.5510 ca        1 MYF     -0.154000
     16 C13         4.4890   -0.7520   -4.6990 ca        1 MYF      0.149600
     17 O19         4.0020   -1.3820   -5.8160 oh        1 MYF     -0.486600
     18 C14         5.7400   -0.1100   -4.6930 ca        1 MYF     -0.076900
     19 O18         6.5560   -0.1700   -5.8090 oh        1 MYF     -0.517100
     20 C15         6.2040    0.4990   -3.5130 ca        1 MYF      0.149600
     21 C16         5.4050    0.5080   -2.3610 ca        1 MYF     -0.154000
     22 O17         7.4260    1.1190   -3.4470 oh        1 MYF     -0.486600
     23 HO21       -0.2390    0.0620    3.5410 ho        1 MYF      0.422000
     24 H2          1.7160    0.1150    4.6820 ha        1 MYF      0.143000
     25 HO20        3.8740    0.1520    5.4360 ho        1 MYF      0.427000
     26 H4          5.2820    0.0500    2.1940 ha        1 MYF      0.175000
     27 H8          1.3760   -0.1060   -2.1590 ha        1 MYF      0.172000
     28 H12         2.7100   -1.2550   -3.5740 ha        1 MYF      0.168500
     29 HO19        4.7280   -1.4460   -6.4580 ho        1 MYF      0.435000
     30 HO18        6.3410    0.6140   -6.3410 ho        1 MYF      0.417000
     31 H16         5.7750    0.9910   -1.4440 ha        1 MYF      0.168500
     32 HO17        7.9160    0.8900   -4.2550 ho        1 MYF      0.435000
@<TRIPOS>BOND
     1    1    2 2   
     2    2    3 1   
     3    2   13 1   
     4    3    4 ar  
     5    3    9 ar  
     6    4    5 1   
     7    4    6 ar  
     8    5   23 1   
     9    6    7 ar  
    10    6   24 1   
    11    7    8 1   
    12    7   10 ar  
    13    8   25 1   
    14    9   10 ar  
    15    9   11 1   
    16   10   26 1   
    17   11   12 1   
    18   12   13 2   
    19   12   14 1   
    20   13   27 1   
    21   14   15 ar  
    22   14   21 ar  
    23   15   16 ar  
    24   15   28 1   
    25   16   17 1   
    26   16   18 ar  
    27   17   29 1   
    28   18   19 1   
    29   18   20 ar  
    30   19   30 1   
    31   20   21 ar  
    32   20   22 1   
    33   21   31 1   
    34   22   32 1   
@<TRIPOS>SUBSTRUCTURE
     1 MYF         1 TEMP              0 ****  ****    0 ROOT
