@<TRIPOS>MOLECULE
MYG
   47    48     1     0     0
SMALL
bcc


@<TRIPOS>ATOM
      1 C1          0.0080   -0.4140   -0.2080 c3        1 MYG      0.121600
      2 C2          1.5210   -0.1720   -0.2900 c3        1 MYG      0.118100
      3 C3          2.0970    0.2490    1.0710 c3        1 MYG      0.122100
      4 C4          1.7320   -0.7550    2.1770 c3        1 MYG      0.118100
      5 C5          0.2070   -0.9430    2.2670 c3        1 MYG      0.121600
      6 C6         -0.3310   -1.4140    0.9090 c3        1 MYG      0.089100
      7 C7         -2.3850   -2.6370    0.6070 c3        1 MYG      0.332900
      8 C8         -3.6540   -2.2450   -0.2080 c3        1 MYG      0.080500
      9 C9         -4.6980   -1.5640    0.7060 c3        1 MYG      0.132100
     10 C10        -4.9510   -2.4560    1.9390 c3        1 MYG      0.096100
     11 C11        -3.6130   -2.6480    2.6620 c3        1 MYG      0.055100
     12 C12        -3.6910   -3.5330    3.9100 c3        1 MYG      0.138400
     13 N8         -3.2910   -1.3390   -1.3410 nz        1 MYG     -0.824600
     14 O1         -0.5210   -0.9020   -1.4350 oh        1 MYG     -0.634300
     15 O2          2.0920   -1.3930   -0.7390 oh        1 MYG     -0.609800
     16 O3          1.5680    1.5350    1.3440 oh        1 MYG     -0.602800
     17 O4          2.2240   -0.2010    3.3820 oh        1 MYG     -0.609800
     18 O5         -0.0110   -1.9370    3.2510 oh        1 MYG     -0.634300
     19 O6         -1.7640   -1.4400    1.0200 os        1 MYG     -0.469600
     20 O9         -5.8550   -1.3940   -0.0880 oh        1 MYG     -0.625800
     21 O10        -5.8800   -1.7270    2.7180 oh        1 MYG     -0.589800
     22 O11        -2.7110   -3.3330    1.7780 os        1 MYG     -0.408600
     23 O12        -2.4550   -3.4950    4.5850 oh        1 MYG     -0.580800
     24 H1         -0.5110    0.5690   -0.0210 h1        1 MYG      0.091200
     25 H2          1.7200    0.6460   -1.0400 h1        1 MYG      0.077200
     26 H3          3.2200    0.3060    1.0010 h1        1 MYG      0.069700
     27 H4          2.2220   -1.7460    1.9700 h1        1 MYG      0.077200
     28 H5         -0.2830    0.0260    2.5630 h1        1 MYG      0.091200
     29 H6          0.0810   -2.4310    0.6660 h1        1 MYG      0.090700
     30 H7         -1.7160   -3.3280    0.0200 h2        1 MYG      0.112700
     31 H8         -4.1080   -3.1840   -0.6440 hx        1 MYG      0.130700
     32 H9         -4.3270   -0.5580    1.0580 h1        1 MYG      0.087700
     33 H10        -5.3850   -3.4460    1.6280 h1        1 MYG      0.074700
     34 H11        -3.1800   -1.6470    2.9410 h1        1 MYG      0.090700
     35 H121       -3.9790   -4.5800    3.6340 h1        1 MYG      0.070200
     36 H122       -4.4350   -3.0960    4.6300 h1        1 MYG      0.070200
     37 HN81       -2.7030   -0.5690   -0.9810 hn        1 MYG      0.472800
     38 HN82       -4.1480   -0.9630   -1.7610 hn        1 MYG      0.472800
     39 HO1         0.1660   -1.4280   -1.8690 ho        1 MYG      0.436000
     40 HO2         3.0360   -1.2370   -0.8750 ho        1 MYG      0.437500
     41 HO3         1.9070    1.7940    2.2140 ho        1 MYG      0.443000
     42 HO4         1.9800   -0.8100    4.0930 ho        1 MYG      0.437500
     43 HO5        -0.9640   -1.9720    3.4220 ho        1 MYG      0.436000
     44 HO9        -6.5910   -1.1890    0.5110 ho        1 MYG      0.466000
     45 HO10       -6.1480   -2.2930    3.4550 ho        1 MYG      0.436000
     46 HO12       -1.8320   -4.0420    4.0850 ho        1 MYG      0.420000
     47 H83        -2.7390   -1.8440   -2.0400 hn        1 MYG      0.472800
@<TRIPOS>BOND
     1    1    2 1   
     2    1    6 1   
     3    1   14 1   
     4    1   24 1   
     5    2    3 1   
     6    2   15 1   
     7    2   25 1   
     8    3    4 1   
     9    3   16 1   
    10    3   26 1   
    11    4    5 1   
    12    4   17 1   
    13    4   27 1   
    14    5    6 1   
    15    5   18 1   
    16    5   28 1   
    17    6   19 1   
    18    6   29 1   
    19    7    8 1   
    20    7   19 1   
    21    7   22 1   
    22    7   30 1   
    23    8    9 1   
    24    8   13 1   
    25    8   31 1   
    26    9   10 1   
    27    9   20 1   
    28    9   32 1   
    29   10   11 1   
    30   10   21 1   
    31   10   33 1   
    32   11   12 1   
    33   11   22 1   
    34   11   34 1   
    35   12   23 1   
    36   12   35 1   
    37   12   36 1   
    38   13   37 1   
    39   13   38 1   
    40   13   47 1   
    41   14   39 1   
    42   15   40 1   
    43   16   41 1   
    44   17   42 1   
    45   18   43 1   
    46   20   44 1   
    47   21   45 1   
    48   23   46 1   
@<TRIPOS>SUBSTRUCTURE
     1 MYG         1 TEMP              0 ****  ****    0 ROOT
