@<TRIPOS>MOLECULE
MYG
   47    48     1     0     0
SMALL
bcc


@<TRIPOS>ATOM
      1 C1          0.0010   -0.4140   -0.2160 c3        1 MYG      0.121600
      2 C2          1.5130   -0.1680   -0.3060 c3        1 MYG      0.118100
      3 C3          2.0940    0.2570    1.0520 c3        1 MYG      0.122100
      4 C4          1.7370   -0.7460    2.1610 c3        1 MYG      0.118100
      5 C5          0.2130   -0.9370    2.2590 c3        1 MYG      0.121600
      6 C6         -0.3300   -1.4120    0.9040 c3        1 MYG      0.089100
      7 C7         -2.3830   -2.6410    0.6160 c3        1 MYG      0.332900
      8 C8         -3.6560   -2.2550   -0.1940 c3        1 MYG      0.080500
      9 C9         -4.6970   -1.5720    0.7220 c3        1 MYG      0.132100
     10 C10        -4.9430   -2.4590    1.9590 c3        1 MYG      0.096100
     11 C11        -3.6020   -2.6470    2.6770 c3        1 MYG      0.055100
     12 C12        -3.6730   -3.5270    3.9290 c3        1 MYG      0.138400
     13 N8         -3.3000   -1.3530   -1.3330 n4        1 MYG     -0.824600
     14 O1         -0.5320   -0.9050   -1.4400 oh        1 MYG     -0.634300
     15 O2          2.0850   -1.3870   -0.7550 oh        1 MYG     -0.609800
     16 O3          1.5640    1.5420    1.3250 oh        1 MYG     -0.602800
     17 O4          2.2330   -0.1890    3.3630 oh        1 MYG     -0.609800
     18 O5          0.0020   -1.9290    3.2460 oh        1 MYG     -0.634300
     19 O6         -1.7630   -1.4400    1.0220 os        1 MYG     -0.469600
     20 O9         -5.8580   -1.4070   -0.0680 oh        1 MYG     -0.625800
     21 O10        -5.8700   -1.7290    2.7390 oh        1 MYG     -0.589800
     22 O11        -2.7020   -3.3330    1.7920 os        1 MYG     -0.408600
     23 O12        -2.4340   -3.4850    4.5970 oh        1 MYG     -0.580800
     24 H1         -0.5200    0.5680   -0.0290 h1        1 MYG      0.091200
     25 H2          1.7060    0.6490   -1.0580 h1        1 MYG      0.077200
     26 H3          3.2170    0.3170    0.9770 h1        1 MYG      0.069700
     27 H4          2.2290   -1.7370    1.9540 h1        1 MYG      0.077200
     28 H5         -0.2780    0.0310    2.5550 h1        1 MYG      0.091200
     29 H6          0.0840   -2.4280    0.6620 h1        1 MYG      0.089700
     30 H7         -1.7150   -3.3330    0.0290 h2        1 MYG      0.112700
     31 H8         -4.1110   -3.1970   -0.6240 hx        1 MYG      0.130700
     32 H9         -4.3260   -0.5640    1.0680 h1        1 MYG      0.087700
     33 H10        -5.3770   -3.4510    1.6540 h1        1 MYG      0.074700
     34 H11        -3.1690   -1.6430    2.9500 h1        1 MYG      0.090700
     35 H121       -4.4140   -3.0890    4.6500 h1        1 MYG      0.070200
     36 H122       -3.9610   -4.5760    3.6570 h1        1 MYG      0.070200
     37 HN81       -4.1600   -0.9800   -1.7500 hn        1 MYG      0.473133
     38 HN82       -2.7500   -1.8600   -2.0320 hn        1 MYG      0.473133
     39 HO1         0.1540   -1.4300   -1.8760 ho        1 MYG      0.436000
     40 HO2         3.0280   -1.2300   -0.8960 ho        1 MYG      0.437500
     41 HO3         1.9060    1.8040    2.1930 ho        1 MYG      0.443000
     42 HO4         1.9940   -0.7970    4.0770 ho        1 MYG      0.437500
     43 HO5        -0.9500   -1.9660    3.4210 ho        1 MYG      0.436000
     44 HO9        -6.5920   -1.2010    0.5330 ho        1 MYG      0.466000
     45 HO10       -6.1330   -2.2920    3.4800 ho        1 MYG      0.436000
     46 HO12       -1.8130   -4.0330    4.0970 ho        1 MYG      0.420000
     47 H83        -2.7120   -0.5800   -0.9790 hn        1 MYG      0.473133
@<TRIPOS>BOND
     1    1    2 1   
     2    1    6 1   
     3    1   14 1   
     4    1   24 1   
     5    2    3 1   
     6    2   15 1   
     7    2   25 1   
     8    3    4 1   
     9    3   16 1   
    10    3   26 1   
    11    4    5 1   
    12    4   17 1   
    13    4   27 1   
    14    5    6 1   
    15    5   18 1   
    16    5   28 1   
    17    6   19 1   
    18    6   29 1   
    19    7    8 1   
    20    7   19 1   
    21    7   22 1   
    22    7   30 1   
    23    8    9 1   
    24    8   13 1   
    25    8   31 1   
    26    9   10 1   
    27    9   20 1   
    28    9   32 1   
    29   10   11 1   
    30   10   21 1   
    31   10   33 1   
    32   11   12 1   
    33   11   22 1   
    34   11   34 1   
    35   12   23 1   
    36   12   35 1   
    37   12   36 1   
    38   13   37 1   
    39   13   38 1   
    40   13   47 1   
    41   14   39 1   
    42   15   40 1   
    43   16   41 1   
    44   17   42 1   
    45   18   43 1   
    46   20   44 1   
    47   21   45 1   
    48   23   46 1   
@<TRIPOS>SUBSTRUCTURE
     1 MYG         1 TEMP              0 ****  ****    0 ROOT
