@<TRIPOS>MOLECULE
MYG
   46    47     1     0     0
SMALL
bcc


@<TRIPOS>ATOM
      1 C1          2.5490    0.1410   -0.4950 c3        1 MYG      0.123600
      2 C2          3.3190   -0.1980    0.7750 c3        1 MYG      0.080100
      3 C3          3.5270    1.0080    1.6690 c3        1 MYG      0.078100
      4 C4          2.2380    1.7440    1.9570 c3        1 MYG      0.080100
      5 C5          1.4660    2.0850    0.6890 c3        1 MYG      0.123600
      6 C6          1.2570    0.8740   -0.2090 c3        1 MYG      0.113100
      7 C7         -0.7970   -0.1540   -0.3430 c3        1 MYG      0.291900
      8 C8         -1.9960   -0.1860    0.5690 c3        1 MYG      0.165500
      9 C9         -3.2500   -0.5090   -0.1600 c3        1 MYG      0.140100
     10 C10        -3.1170   -1.7440   -0.9850 c3        1 MYG      0.081100
     11 C11        -1.9050   -1.7030   -1.8920 c3        1 MYG      0.126100
     12 C12        -2.1380   -0.6470   -2.9840 c3        1 MYG      0.091400
     13 N8         -1.7760   -1.2050    1.6180 n3        1 MYG     -0.893800
     14 O1          2.2530   -1.0690   -1.1910 oh        1 MYG     -0.590300
     15 O2          2.5980   -1.1770    1.4950 oh        1 MYG     -0.605300
     16 O3          4.0840    0.5740    2.8920 oh        1 MYG     -0.598800
     17 O4          2.5440    2.9530    2.6450 oh        1 MYG     -0.605300
     18 O5          0.2110    2.6030    1.0520 oh        1 MYG     -0.590300
     19 O6          0.3520   -0.0230    0.4290 os        1 MYG     -0.442600
     20 O9         -3.5850    0.6050   -1.0360 oh        1 MYG     -0.599800
     21 O10        -2.9980   -2.8850   -0.1020 oh        1 MYG     -0.594800
     22 O11        -0.6780   -1.3800   -1.1710 os        1 MYG     -0.439600
     23 O12        -1.9530   -1.2400   -4.2740 oh        1 MYG     -0.607800
     24 H1          3.0910    0.6810   -1.0430 h1        1 MYG      0.070700
     25 H2          4.1550   -0.5470    0.5390 h1        1 MYG      0.080200
     26 H3          4.1680    1.6360    1.2250 h1        1 MYG      0.089700
     27 H4          1.6760    1.1880    2.5290 h1        1 MYG      0.080200
     28 H5          1.9620    2.7710    0.1880 h1        1 MYG      0.070700
     29 H6          0.8530    1.1800   -1.0820 h1        1 MYG      0.092700
     30 H7         -0.8700    0.6040   -0.9230 h2        1 MYG      0.093700
     31 H8         -2.0940    0.7230    1.0110 h1        1 MYG      0.086700
     32 H9         -3.9490   -0.6310    0.4650 h1        1 MYG      0.078700
     33 H10        -3.9280   -1.8480   -1.5390 h1        1 MYG      0.057700
     34 H11        -1.8020   -2.5680   -2.3100 h1        1 MYG      0.089700
     35 H121       -1.4970    0.0930   -2.8690 h1        1 MYG      0.048200
     36 H122       -3.0610   -0.2980   -2.9100 h1        1 MYG      0.048200
     37 HN81       -1.1740   -0.8700    2.2600 hn        1 MYG      0.364800
     38 HN82       -2.5970   -1.4110    2.0350 hn        1 MYG      0.364800
     39 HO1         2.7730   -1.1300   -1.9110 ho        1 MYG      0.426500
     40 HO2         3.1300   -1.8330    1.7030 ho        1 MYG      0.424000
     41 HO3         4.8770    0.9700    3.0170 ho        1 MYG      0.421000
     42 HO4         2.4420    2.8360    3.4960 ho        1 MYG      0.424000
     43 HO5         0.2640    3.4720    1.1210 ho        1 MYG      0.426500
     44 HO9        -4.4190    0.9170   -0.8300 ho        1 MYG      0.410000
     45 HO10       -3.6360   -3.4740   -0.2880 ho        1 MYG      0.412000
     46 HO12       -2.5670   -0.9280   -4.8310 ho        1 MYG      0.409000
@<TRIPOS>BOND
     1    1    2 1   
     2    1    6 1   
     3    1   14 1   
     4    1   24 1   
     5    2    3 1   
     6    2   15 1   
     7    2   25 1   
     8    3    4 1   
     9    3   16 1   
    10    3   26 1   
    11    4    5 1   
    12    4   17 1   
    13    4   27 1   
    14    5    6 1   
    15    5   18 1   
    16    5   28 1   
    17    6   19 1   
    18    6   29 1   
    19    7    8 1   
    20    7   19 1   
    21    7   22 1   
    22    7   30 1   
    23    8    9 1   
    24    8   13 1   
    25    8   31 1   
    26    9   10 1   
    27    9   20 1   
    28    9   32 1   
    29   10   11 1   
    30   10   21 1   
    31   10   33 1   
    32   11   12 1   
    33   11   22 1   
    34   11   34 1   
    35   12   23 1   
    36   12   35 1   
    37   12   36 1   
    38   13   37 1   
    39   13   38 1   
    40   14   39 1   
    41   15   40 1   
    42   16   41 1   
    43   17   42 1   
    44   18   43 1   
    45   20   44 1   
    46   21   45 1   
    47   23   46 1   
@<TRIPOS>SUBSTRUCTURE
     1 MYG         1 TEMP              0 ****  ****    0 ROOT
