@<TRIPOS>MOLECULE
MYG
   47    48     1     0     0
SMALL
bcc


@<TRIPOS>ATOM
      1 C1          0.0020   -0.4070   -0.2000 c3        1 MYG      0.121600
      2 C2          1.5160   -0.1700   -0.2830 c3        1 MYG      0.118100
      3 C3          2.0950    0.2400    1.0810 c3        1 MYG      0.122100
      4 C4          1.7280   -0.7700    2.1800 c3        1 MYG      0.118100
      5 C5          0.2030   -0.9540    2.2710 c3        1 MYG      0.121600
      6 C6         -0.3390   -1.4140    0.9100 c3        1 MYG      0.089100
      7 C7         -2.3970   -2.6280    0.6030 c3        1 MYG      0.332900
      8 C8         -3.6650   -2.2270   -0.2080 c3        1 MYG      0.080500
      9 C9         -4.7060   -1.5490    0.7120 c3        1 MYG      0.132100
     10 C10        -4.9610   -2.4470    1.9390 c3        1 MYG      0.096100
     11 C11        -3.6220   -2.6490    2.6590 c3        1 MYG      0.055100
     12 C12        -3.7020   -3.5420    3.9020 c3        1 MYG      0.138400
     13 N8         -3.3010   -1.3150   -1.3360 n4        1 MYG     -0.824600
     14 O1         -0.5300   -0.8850   -1.4300 oh        1 MYG     -0.634300
     15 O2          2.0820   -1.3890   -0.7410 oh        1 MYG     -0.609800
     16 O3          1.5710    1.5260    1.3630 oh        1 MYG     -0.602800
     17 O4          2.2240   -0.2270    3.3880 oh        1 MYG     -0.609800
     18 O5         -0.0170   -1.9540    3.2480 oh        1 MYG     -0.634300
     19 O6         -1.7720   -1.4360    1.0230 os        1 MYG     -0.469600
     20 O9         -5.8640   -1.3700   -0.0800 oh        1 MYG     -0.625800
     21 O10        -5.8860   -1.7210    2.7240 oh        1 MYG     -0.589800
     22 O11        -2.7230   -3.3310    1.7700 os        1 MYG     -0.408600
     23 O12        -2.4640   -3.5120    4.5750 oh        1 MYG     -0.580800
     24 H1         -0.5140    0.5760   -0.0060 h1        1 MYG      0.091200
     25 H2          1.7160    0.6530   -1.0270 h1        1 MYG      0.077200
     26 H3          3.2190    0.2940    1.0100 h1        1 MYG      0.069700
     27 H4          2.2150   -1.7620    1.9660 h1        1 MYG      0.077200
     28 H5         -0.2840    0.0140    2.5740 h1        1 MYG      0.091200
     29 H6          0.0700   -2.4300    0.6600 h1        1 MYG      0.089700
     30 H7         -1.7310   -3.3180    0.0110 h2        1 MYG      0.112700
     31 H8         -4.1230   -3.1620   -0.6490 hx        1 MYG      0.130700
     32 H9         -4.3310   -0.5460    1.0700 h1        1 MYG      0.087700
     33 H10        -5.3980   -3.4340    1.6230 h1        1 MYG      0.074700
     34 H11        -3.1850   -1.6510    2.9450 h1        1 MYG      0.090700
     35 H121       -3.9940   -4.5860    3.6190 h1        1 MYG      0.070200
     36 H122       -4.4430   -3.1070    4.6260 h1        1 MYG      0.070200
     37 HN81       -2.7520   -1.8180   -2.0380 hn        1 MYG      0.473133
     38 HN82       -2.7100   -0.5490   -0.9720 hn        1 MYG      0.473133
     39 HO1         0.1550   -1.4100   -1.8690 ho        1 MYG      0.436000
     40 HO2         3.0260   -1.2350   -0.8770 ho        1 MYG      0.437500
     41 HO3         1.9120    1.7780    2.2340 ho        1 MYG      0.443000
     42 HO4         1.9780   -0.8400    4.0960 ho        1 MYG      0.437500
     43 HO5        -0.9700   -1.9880    3.4200 ho        1 MYG      0.436000
     44 HO9        -6.5980   -1.1660    0.5210 ho        1 MYG      0.466000
     45 HO10       -6.1550   -2.2900    3.4580 ho        1 MYG      0.436000
     46 HO12       -1.8450   -4.0580    4.0710 ho        1 MYG      0.420000
     47 H83        -4.1570   -0.9330   -1.7520 hn        1 MYG      0.473133
@<TRIPOS>BOND
     1    1    2 1   
     2    1    6 1   
     3    1   14 1   
     4    1   24 1   
     5    2    3 1   
     6    2   15 1   
     7    2   25 1   
     8    3    4 1   
     9    3   16 1   
    10    3   26 1   
    11    4    5 1   
    12    4   17 1   
    13    4   27 1   
    14    5    6 1   
    15    5   18 1   
    16    5   28 1   
    17    6   19 1   
    18    6   29 1   
    19    7    8 1   
    20    7   19 1   
    21    7   22 1   
    22    7   30 1   
    23    8    9 1   
    24    8   13 1   
    25    8   31 1   
    26    9   10 1   
    27    9   20 1   
    28    9   32 1   
    29   10   11 1   
    30   10   21 1   
    31   10   33 1   
    32   11   12 1   
    33   11   22 1   
    34   11   34 1   
    35   12   23 1   
    36   12   35 1   
    37   12   36 1   
    38   13   37 1   
    39   13   38 1   
    40   13   47 1   
    41   14   39 1   
    42   15   40 1   
    43   16   41 1   
    44   17   42 1   
    45   18   43 1   
    46   20   44 1   
    47   21   45 1   
    48   23   46 1   
@<TRIPOS>SUBSTRUCTURE
     1 MYG         1 TEMP              0 ****  ****    0 ROOT
