@<TRIPOS>MOLECULE
MYG
   46    47     1     0     0
SMALL
bcc


@<TRIPOS>ATOM
      1 C1          1.5250    0.0580    2.0690 c3        1 MYG      0.102100
      2 C2          1.3160   -0.1750    3.5740 c3        1 MYG      0.135600
      3 C3          0.0470    0.5220    4.0850 c3        1 MYG      0.150100
      4 C4         -1.1750    0.1090    3.2550 c3        1 MYG      0.135600
      5 C5         -0.9640    0.3960    1.7590 c3        1 MYG      0.102100
      6 C6          0.2880   -0.3230    1.2410 c3        1 MYG      0.086100
      7 C7          0.6680   -0.8900   -1.0650 c3        1 MYG      0.330900
      8 C8          1.5990   -0.4110   -2.2100 c3        1 MYG      0.155500
      9 C9          0.8900    0.6810   -3.0460 c3        1 MYG      0.108100
     10 C10        -0.4840    0.1650   -3.5030 c3        1 MYG      0.083100
     11 C11        -1.3040   -0.1830   -2.2570 c3        1 MYG      0.067100
     12 C12        -2.6770   -0.7710   -2.5930 c3        1 MYG      0.133400
     13 N8          2.9000   -0.0320   -1.7080 n3        1 MYG     -0.900800
     14 O1          2.6260   -0.7650    1.7120 oh        1 MYG     -0.615300
     15 O2          1.1690   -1.5540    3.8740 oh        1 MYG     -0.608800
     16 O3          0.2890    1.9180    4.0140 oh        1 MYG     -0.605800
     17 O4         -2.2670    0.8710    3.7460 oh        1 MYG     -0.608800
     18 O5         -2.1330   -0.0910    1.1190 oh        1 MYG     -0.615300
     19 O6          0.5130    0.1350   -0.1030 os        1 MYG     -0.458600
     20 O9          1.7240    0.9500   -4.1590 oh        1 MYG     -0.604800
     21 O10        -1.0700    1.2300   -4.2330 oh        1 MYG     -0.598800
     22 O11        -0.6420   -1.1980   -1.4970 os        1 MYG     -0.445600
     23 O12        -3.4450   -0.9410   -1.4230 oh        1 MYG     -0.592800
     24 H1          1.7710    1.1430    1.8940 h1        1 MYG      0.070700
     25 H2          2.2110    0.2380    4.1210 h1        1 MYG      0.072200
     26 H3         -0.1320    0.2260    5.1580 h1        1 MYG      0.070700
     27 H4         -1.3720   -0.9900    3.4040 h1        1 MYG      0.072200
     28 H5         -0.8660    1.5050    1.5900 h1        1 MYG      0.070700
     29 H6          0.1290   -1.4350    1.2730 h1        1 MYG      0.082700
     30 H7          1.0530   -1.8530   -0.6200 h2        1 MYG      0.099700
     31 H8          1.7460   -1.3080   -2.8860 h1        1 MYG      0.086700
     32 H9          0.7500    1.6190   -2.4380 h1        1 MYG      0.064700
     33 H10        -0.3630   -0.7380   -4.1620 h1        1 MYG      0.061700
     34 H11        -1.4210    0.7420   -1.6250 h1        1 MYG      0.074700
     35 H121       -3.2590   -0.0420   -3.2180 h1        1 MYG      0.055200
     36 H122       -2.5580   -1.7440   -3.1380 h1        1 MYG      0.055200
     37 HN81        3.5170    0.1460   -2.4780 hn        1 MYG      0.366300
     38 HN82        2.8280    0.7950   -1.1460 hn        1 MYG      0.366300
     39 HO1         2.8090   -0.6060    0.7780 ho        1 MYG      0.426000
     40 HO2         1.9450   -1.9970    3.5060 ho        1 MYG      0.428500
     41 HO3        -0.5490    2.3490    4.2310 ho        1 MYG      0.428000
     42 HO4        -3.0230    0.6680    3.1790 ho        1 MYG      0.428500
     43 HO5        -2.0190    0.0530    0.1700 ho        1 MYG      0.426000
     44 HO9         1.2380    1.5670   -4.7230 ho        1 MYG      0.427000
     45 HO10       -1.8850    0.8930   -4.6240 ho        1 MYG      0.412000
     46 HO12       -2.9910   -1.5930   -0.8710 ho        1 MYG      0.421000
@<TRIPOS>BOND
     1    1    2 1   
     2    1    6 1   
     3    1   14 1   
     4    1   24 1   
     5    2    3 1   
     6    2   15 1   
     7    2   25 1   
     8    3    4 1   
     9    3   16 1   
    10    3   26 1   
    11    4    5 1   
    12    4   17 1   
    13    4   27 1   
    14    5    6 1   
    15    5   18 1   
    16    5   28 1   
    17    6   19 1   
    18    6   29 1   
    19    7    8 1   
    20    7   19 1   
    21    7   22 1   
    22    7   30 1   
    23    8    9 1   
    24    8   13 1   
    25    8   31 1   
    26    9   10 1   
    27    9   20 1   
    28    9   32 1   
    29   10   11 1   
    30   10   21 1   
    31   10   33 1   
    32   11   12 1   
    33   11   22 1   
    34   11   34 1   
    35   12   23 1   
    36   12   35 1   
    37   12   36 1   
    38   13   37 1   
    39   13   38 1   
    40   14   39 1   
    41   15   40 1   
    42   16   41 1   
    43   17   42 1   
    44   18   43 1   
    45   20   44 1   
    46   21   45 1   
    47   23   46 1   
@<TRIPOS>SUBSTRUCTURE
     1 MYG         1 TEMP              0 ****  ****    0 ROOT
