@<TRIPOS>MOLECULE
MYI
   25    21     1     0     0
SMALL
bcc


@<TRIPOS>ATOM
      1 CAA        -3.0700   -2.4080   -1.4840 c3        1 MYI      0.118700
      2 OAB        -0.5990    3.7620    0.3460 o         1 MYI     -0.849300
      3 OAC         1.3720    4.6860    0.4670 o         1 MYI     -0.849300
      4 CAD        -0.5890   -2.3780    0.4560 c1        1 MYI     -0.085000
      5 CAE         0.4770   -1.9660    1.2430 c1        1 MYI     -0.085000
      6 CAF         2.1720    1.2220    1.1570 c1        1 MYI      0.217500
      7 CAG        -0.5790   -0.2540   -0.6720 c1        1 MYI     -0.097500
      8 CAH         1.2220    2.5840   -0.6910 c3        1 MYI     -0.141200
      9 NAI         2.0580   -0.0230    1.7090 ne        1 MYI     -0.495400
     10 OAJ        -1.6910   -2.1490   -1.6200 os        1 MYI     -0.330400
     11 CAK         0.6310    3.7440    0.0800 c         1 MYI      0.916600
     12 CAL        -1.1170   -1.5220   -0.5020 c1        1 MYI      0.058600
     13 CAM         1.2090    1.3440    0.1750 cf        1 MYI     -0.137000
     14 CAN         1.0220   -0.6820    1.0710 cg        1 MYI      0.003000
     15 CAO         0.5010    0.1640    0.1250 ch        1 MYI     -0.074300
     16 HAA        -3.5800   -1.6080   -1.7380 h1        1 MYI      0.035367
     17 HAAA       -3.3220   -3.1550   -2.0690 h1        1 MYI      0.035367
     18 HAAB       -3.2690   -2.6400   -0.5520 h1        1 MYI      0.035367
     19 HAD        -0.9670   -3.2700    0.5730 ha        1 MYI      0.065000
     20 HAE         0.8490   -2.5690    1.9130 ha        1 MYI      0.065000
     21 HAF         2.8140    1.9100    1.4190 DU        1 MYI      0.220500
     22 HAG        -0.9510    0.3470   -1.3450 ha        1 MYI      0.083500
     23 HAH         2.1430    2.7960   -0.9440 hc        1 MYI      0.035200
     24 HAHA        0.6910    2.4240   -1.4970 hc        1 MYI      0.035200
     25 HNAI        2.5750   -0.3610    2.3810 DU        1 MYI      0.220500
@<TRIPOS>BOND
     1    1   10 1   
     2    1   16 1   
     3    1   17 1   
     4    1   18 1   
     5    2   11 1   
     6    3   11 1   
     7    4    5 3   
     8    4   19 1   
     9    5   20 1   
    10    6    9 2   
    11    6   13 2   
    12    7   12 3   
    13    7   22 1   
    14    8   11 1   
    15    8   13 1   
    16    8   23 1   
    17    8   24 1   
    18    9   14 1   
    19   10   12 1   
    20   13   15 1   
    21   14   15 3   
@<TRIPOS>SUBSTRUCTURE
     1 MYI         1 TEMP              0 ****  ****    0 ROOT
