@<TRIPOS>MOLECULE
MYI
   25    26     1     0     0
SMALL
bcc


@<TRIPOS>ATOM
      1 CAA         3.5340    2.2170    0.3690 c3        1 MYI      0.118700
      2 OAB        -3.9460   -0.3400   -0.2570 o         1 MYI     -0.849300
      3 OAC        -3.6760    1.7930   -0.8460 o         1 MYI     -0.849300
      4 CAD         3.0450   -1.3670   -0.0100 ca        1 MYI     -0.159000
      5 CAE         2.0460   -2.3230   -0.1260 ca        1 MYI     -0.126000
      6 CAF        -1.5480   -1.7280    0.0050 cc        1 MYI     -0.093100
      7 CAG         1.3950    0.4310    0.2830 ca        1 MYI     -0.155000
      8 CAH        -1.8810    0.7750    0.3730 c3        1 MYI     -0.141200
      9 NAI        -0.4820   -2.6460   -0.0670 na        1 MYI     -0.200400
     10 OAJ         3.8220    0.8290    0.3050 os        1 MYI     -0.346900
     11 CAK        -3.2690    0.7280   -0.3030 c         1 MYI      0.916600
     12 CAL         2.7160   -0.0090    0.1930 ca        1 MYI      0.075100
     13 CAM        -1.0720   -0.4320    0.1860 cd        1 MYI     -0.095400
     14 CAN         0.7130   -1.9080   -0.0440 ca        1 MYI     -0.094200
     15 CAO         0.3780   -0.5130    0.1600 ca        1 MYI     -0.052800
     16 HAA         4.5440    2.6990    0.3760 h1        1 MYI      0.035367
     17 HAAA        2.9480    2.5460   -0.5240 h1        1 MYI      0.035367
     18 HAAB        2.9780    2.4620    1.3070 h1        1 MYI      0.035367
     19 HAD         4.1040   -1.6520   -0.0740 ha        1 MYI      0.128000
     20 HAE         2.3030   -3.3800   -0.2800 ha        1 MYI      0.117000
     21 HAF        -2.6020   -2.0360   -0.0590 h4        1 MYI      0.221000
     22 HAG         1.1370    1.4860    0.4410 ha        1 MYI      0.141000
     23 HAH        -1.3240    1.6680   -0.0150 hc        1 MYI      0.035200
     24 HAHA       -2.0600    0.9360    1.4700 hc        1 MYI      0.035200
     25 HNAI       -0.5540   -3.5160   -0.5230 hn        1 MYI      0.269700
@<TRIPOS>BOND
     1    1   10 1   
     2    1   16 1   
     3    1   17 1   
     4    1   18 1   
     5    2   11 1   
     6    3   11 1   
     7    4    5 ar  
     8    4   12 ar  
     9    4   19 1   
    10    5   14 ar  
    11    5   20 1   
    12    6    9 1   
    13    6   13 2   
    14    6   21 1   
    15    7   12 ar  
    16    7   15 ar  
    17    7   22 1   
    18    8   11 1   
    19    8   13 1   
    20    8   23 1   
    21    8   24 1   
    22    9   14 1   
    23    9   25 1   
    24   10   12 1   
    25   13   15 1   
    26   14   15 ar  
@<TRIPOS>SUBSTRUCTURE
     1 MYI         1 TEMP              0 ****  ****    0 ROOT
