@<TRIPOS>MOLECULE
MYI
   25    26     1     0     0
SMALL
bcc


@<TRIPOS>ATOM
      1 CAA         0.9270   -0.0770   -0.5520 c3        1 MYI      0.118700
      2 OAB         7.8110    1.3230    3.1280 o         1 MYI     -0.849300
      3 OAC         7.6140    2.3680    1.1680 o         1 MYI     -0.849300
      4 CAD         0.9870   -0.5290    3.0570 ca        1 MYI     -0.159000
      5 CAE         1.8430   -0.4660    4.1480 ca        1 MYI     -0.126000
      6 CAF         5.4150    0.2580    4.0610 cc        1 MYI     -0.093100
      7 CAG         2.8190   -0.0320    1.4950 ca        1 MYI     -0.155000
      8 CAH         6.0500    0.6070    1.6130 c3        1 MYI     -0.141200
      9 NAI         4.2800   -0.1120    4.8080 na        1 MYI     -0.200400
     10 OAJ         0.5060   -0.4240    0.7590 os        1 MYI     -0.346900
     11 CAK         7.2410    1.5050    2.0110 c         1 MYI      0.916600
     12 CAL         1.4770   -0.3140    1.7500 ca        1 MYI      0.075100
     13 CAM         5.1120    0.3220    2.7030 cd        1 MYI     -0.095400
     14 CAN         3.1930   -0.1790    3.9210 ca        1 MYI     -0.094200
     15 CAO         3.6920    0.0440    2.5780 ca        1 MYI     -0.052800
     16 HAA         1.3270    0.9660   -0.5820 h1        1 MYI      0.035367
     17 HAAA       -0.0070   -0.1600   -1.1630 h1        1 MYI      0.035367
     18 HAAB        1.6990   -0.7970   -0.9200 h1        1 MYI      0.035367
     19 HAD        -0.0800   -0.7450    3.1940 ha        1 MYI      0.128000
     20 HAE         1.4620   -0.6370    5.1630 ha        1 MYI      0.117000
     21 HAF         6.3940    0.4460    4.5230 h4        1 MYI      0.221000
     22 HAG         3.2020    0.1360    0.4800 ha        1 MYI      0.141000
     23 HAH         6.4830   -0.3580    1.2350 hc        1 MYI      0.035200
     24 HAHA        5.5050    1.0920    0.7620 hc        1 MYI      0.035200
     25 HNAI        4.1680    0.1150    5.7600 hn        1 MYI      0.269700
@<TRIPOS>BOND
     1    1   10 1   
     2    1   16 1   
     3    1   17 1   
     4    1   18 1   
     5    2   11 1   
     6    3   11 1   
     7    4    5 ar  
     8    4   12 ar  
     9    4   19 1   
    10    5   14 ar  
    11    5   20 1   
    12    6    9 1   
    13    6   13 2   
    14    6   21 1   
    15    7   12 ar  
    16    7   15 ar  
    17    7   22 1   
    18    8   11 1   
    19    8   13 1   
    20    8   23 1   
    21    8   24 1   
    22    9   14 1   
    23    9   25 1   
    24   10   12 1   
    25   13   15 1   
    26   14   15 ar  
@<TRIPOS>SUBSTRUCTURE
     1 MYI         1 TEMP              0 ****  ****    0 ROOT
