@<TRIPOS>MOLECULE
MYN
   23    23     1     0     0
SMALL
bcc


@<TRIPOS>ATOM
      1 CA         -1.2120   -0.7190   -0.5310 c3        1 MYN      0.041500
      2 N          -1.0820   -0.3710   -1.9370 n3        1 MYN     -0.894800
      3 C          -2.4120   -0.0420    0.2110 c         1 MYN      0.896600
      4 CB          0.0860   -0.5230    0.2990 c3        1 MYN      0.134500
      5 CG          1.0050   -1.7360    0.0820 c3        1 MYN     -0.137400
      6 CD          2.3870   -1.4560    0.6620 c3        1 MYN      0.158800
      7 NE          2.9910   -0.2060    0.2430 nh        1 MYN     -0.804200
      8 CZ          2.0220    0.8580    0.0200 c2        1 MYN      0.655100
      9 N1          0.7190    0.7570    0.0910 n2        1 MYN     -0.621900
     10 NZ          2.6270    2.1300   -0.3020 nh        1 MYN     -0.862800
     11 O          -3.2640    0.5770   -0.4870 o         1 MYN     -0.842300
     12 H4         -1.4330   -1.8280   -0.4980 h1        1 MYN      0.035700
     13 HN5        -2.0090   -0.4150   -2.3320 hn        1 MYN      0.338300
     14 HNT        -0.7960    0.5890   -2.0150 hn        1 MYN      0.338300
     15 OXT        -2.4900   -0.2060    1.4610 o         1 MYN     -0.842300
     16 H20        -0.2610   -0.5220    1.3850 h1        1 MYN      0.109700
     17 H21         0.5620   -2.6280    0.5890 hc        1 MYN      0.052200
     18 H21A        1.0820   -1.9630   -1.0120 hc        1 MYN      0.052200
     19 H22         2.3050   -1.4130    1.7860 h1        1 MYN      0.038200
     20 H22A        3.0860   -2.2990    0.4030 h1        1 MYN      0.038200
     21 HN23        3.5550   -0.3280   -0.5780 hn        1 MYN      0.370800
     22 HN26        3.2880    2.3890    0.4040 hn        1 MYN      0.371300
     23 HN2A        1.9290    2.8440   -0.3940 hn        1 MYN      0.371300
@<TRIPOS>BOND
     1    1    2 1   
     2    1    3 1   
     3    1    4 1   
     4    1   12 1   
     5    2   13 1   
     6    2   14 1   
     7    3   11 1   
     8    3   15 1   
     9    4    5 1   
    10    4    9 1   
    11    4   16 1   
    12    5    6 1   
    13    5   17 1   
    14    5   18 1   
    15    6    7 1   
    16    6   19 1   
    17    6   20 1   
    18    7    8 1   
    19    7   21 1   
    20    8    9 2   
    21    8   10 1   
    22   10   22 1   
    23   10   23 1   
@<TRIPOS>SUBSTRUCTURE
     1 MYN         1 TEMP              0 ****  ****    0 ROOT
