@<TRIPOS>MOLECULE
MYP
   83    86     1     0     0
SMALL
bcc


@<TRIPOS>ATOM
      1 N3          3.5730   -3.9160   -1.6180 n         1 MYP     -0.416800
      2 C23         2.3880   -1.2030   -1.7470 c3        1 MYP      0.189500
      3 C21         2.2050   -3.6560   -1.1950 c3        1 MYP      0.066500
      4 C22         1.5340   -2.4710   -1.8900 c3        1 MYP     -0.110400
      5 C25         4.3910   -2.7190   -1.5610 c3        1 MYP      0.066500
      6 C24         3.7990   -1.5100   -2.2850 c3        1 MYP     -0.110400
      7 C20         3.7220   -4.8540   -2.6790 c         1 MYP      0.733100
      8 O4          2.7530   -5.5770   -3.0200 o         1 MYP     -0.640100
      9 N4          1.8280   -0.0190   -2.4140 n3        1 MYP     -0.727600
     10 C29         2.3820    1.2150   -1.8650 c3        1 MYP      0.134300
     11 C28         1.7970    2.4690   -2.5250 c3        1 MYP      0.125900
     12 C26         0.3730    0.0160   -2.4510 c3        1 MYP      0.134300
     13 C27        -0.1710    1.3010   -3.0870 c3        1 MYP      0.125900
     14 O5          0.3760    2.4670   -2.4830 os        1 MYP     -0.414600
     15 N2          4.9660   -4.9960   -3.3350 n         1 MYP     -0.519900
     16 C12         5.1910   -6.1980   -4.1140 c3        1 MYP      0.023700
     17 C13         5.8470   -5.8690   -5.4710 c3        1 MYP     -0.038100
     18 C14         5.6540   -6.9660   -6.4570 ca        1 MYP     -0.102300
     19 C15         6.7620   -7.6050   -7.0250 ca        1 MYP     -0.139000
     20 C19         4.3660   -7.3440   -6.8580 ca        1 MYP     -0.139000
     21 C16         6.5880   -8.6310   -7.9540 ca        1 MYP     -0.125500
     22 C18         4.1930   -8.3580   -7.7980 ca        1 MYP     -0.125500
     23 C17         5.3020   -9.0080   -8.3420 ca        1 MYP     -0.127000
     24 C11         6.1040   -7.1990   -3.3560 c         1 MYP      0.638100
     25 O3          6.8950   -6.8110   -2.4710 o         1 MYP     -0.625100
     26 N1          5.9900   -8.5270   -3.6950 n         1 MYP     -0.556900
     27 C7          6.6550   -9.5770   -2.9600 c3        1 MYP      0.106900
     28 C8          5.6460  -10.5360   -2.2870 c3        1 MYP     -0.095400
     29 C9          6.2380  -11.1760   -1.0500 c3        1 MYP     -0.082400
     30 CT          7.6280  -10.3960   -3.7630 c2        1 MYP      0.025800
     31 C4         10.6650  -10.3130   -5.3980 ca        1 MYP     -0.370500
     32 C1         13.1210   -9.1670   -4.6660 ca        1 MYP     -0.067000
     33 C2         12.6760  -10.3290   -4.0340 ca        1 MYP     -0.155000
     34 C3         11.4580  -10.8950   -4.4000 ca        1 MYP     -0.018500
     35 C5         11.1310   -9.1530   -6.0300 ca        1 MYP     -0.018500
     36 C6         12.3480   -8.5810   -5.6680 ca        1 MYP     -0.155000
     37 S1          9.2050  -11.0110   -5.8500 sy        1 MYP      1.437200
     38 O1          8.9700  -10.7600   -7.2150 o         1 MYP     -0.664800
     39 O2          9.1670  -12.3490   -5.4200 o         1 MYP     -0.664800
     40 H231        2.4900   -1.0040   -0.6320 h1        1 MYP      0.023700
     41 H211        2.2540   -3.4550   -0.0860 h1        1 MYP      0.065200
     42 H212        1.5790   -4.5780   -1.3600 h1        1 MYP      0.065200
     43 H221        1.3730   -2.7090   -2.9740 hc        1 MYP      0.060200
     44 H222        0.5310   -2.3240   -1.4120 hc        1 MYP      0.060200
     45 H251        5.4260   -2.9030   -1.9540 h1        1 MYP      0.065200
     46 H252        4.4950   -2.4680   -0.4640 h1        1 MYP      0.065200
     47 H241        4.4810   -0.6380   -2.1170 hc        1 MYP      0.060200
     48 H242        3.7520   -1.6990   -3.3880 hc        1 MYP      0.060200
     49 H291        3.4930    1.2080   -2.0450 h1        1 MYP      0.040700
     50 H292        2.2100    1.2880   -0.7510 h1        1 MYP      0.040700
     51 H281        2.0940    3.3820   -1.9460 h1        1 MYP      0.054200
     52 H282        2.1420    2.5560   -3.5890 h1        1 MYP      0.054200
     53 H261       -0.0740   -0.0860   -1.4200 h1        1 MYP      0.040700
     54 H262        0.0190   -0.8500   -3.0770 h1        1 MYP      0.040700
     55 H271        0.0400    1.3170   -4.1890 h1        1 MYP      0.054200
     56 H272       -1.2740    1.3820   -2.9040 h1        1 MYP      0.054200
     57 HN2         5.7800   -4.6920   -2.8400 hn        1 MYP      0.312500
     58 H112        4.1870   -6.6890   -4.3100 h1        1 MYP      0.113700
     59 H131        6.9390   -5.6630   -5.3150 hc        1 MYP      0.068200
     60 H132        5.3850   -4.9320   -5.8870 hc        1 MYP      0.068200
     61 H15         7.7790   -7.2920   -6.7420 ha        1 MYP      0.135000
     62 H19         3.4880   -6.8310   -6.4370 ha        1 MYP      0.135000
     63 H16         7.4680   -9.1590   -8.3610 ha        1 MYP      0.150500
     64 H18         3.1790   -8.6460   -8.1110 ha        1 MYP      0.150500
     65 H17         5.1650   -9.8150   -9.0760 ha        1 MYP      0.139000
     66 HN1         5.4180   -8.7890   -4.4630 hn        1 MYP      0.327500
     67 HC7         7.2690   -9.0770   -2.1400 h1        1 MYP      0.112700
     68 HC81        5.3340  -11.3270   -3.0170 hc        1 MYP      0.057200
     69 HC82        4.7210   -9.9720   -1.9920 hc        1 MYP      0.057200
     70 H101        4.9630  -12.9320   -1.1030 hc        1 MYP      0.037367
     71 H102        4.3260  -11.5660   -0.0990 hc        1 MYP      0.037367
     72 H103        5.7020  -12.5750    0.5120 hc        1 MYP      0.037367
     73 HC91        6.5330  -10.3760   -0.3190 hc        1 MYP      0.043200
     74 HC92        7.1700  -11.7410   -1.3150 hc        1 MYP      0.043200
     75 HCM         7.8320   -9.1520   -5.4520 h4        1 MYP      0.187000
     76 HCT         7.9230  -11.3380   -3.2560 ha        1 MYP      0.145000
     77 HC1        14.0820   -8.7160   -4.3770 ha        1 MYP      0.137000
     78 HC2        13.2870  -10.7990   -3.2490 ha        1 MYP      0.141000
     79 HC3        11.1130  -11.8240   -3.9130 ha        1 MYP      0.151000
     80 HC5        10.5270   -8.7000   -6.8350 ha        1 MYP      0.151000
     81 HC6        12.6990   -7.6700   -6.1750 ha        1 MYP      0.141000
     82 CM          8.1440  -10.0950   -4.9560 ce        1 MYP     -0.483100
     83 C10         5.2520  -12.1140   -0.4000 c3        1 MYP     -0.094100
@<TRIPOS>BOND
     1    1    3 1   
     2    1    5 1   
     3    1    7 1   
     4    2    4 1   
     5    2    6 1   
     6    2    9 1   
     7    2   40 1   
     8    3    4 1   
     9    3   41 1   
    10    3   42 1   
    11    4   43 1   
    12    4   44 1   
    13    5    6 1   
    14    5   45 1   
    15    5   46 1   
    16    6   47 1   
    17    6   48 1   
    18    7    8 2   
    19    7   15 1   
    20    9   10 1   
    21    9   12 1   
    22   10   11 1   
    23   10   49 1   
    24   10   50 1   
    25   11   14 1   
    26   11   51 1   
    27   11   52 1   
    28   12   13 1   
    29   12   53 1   
    30   12   54 1   
    31   13   14 1   
    32   13   55 1   
    33   13   56 1   
    34   15   16 1   
    35   15   57 1   
    36   16   17 1   
    37   16   24 1   
    38   16   58 1   
    39   17   18 1   
    40   17   59 1   
    41   17   60 1   
    42   18   19 ar  
    43   18   20 ar  
    44   19   21 ar  
    45   19   61 1   
    46   20   22 ar  
    47   20   62 1   
    48   21   23 ar  
    49   21   63 1   
    50   22   23 ar  
    51   22   64 1   
    52   23   65 1   
    53   24   25 2   
    54   24   26 1   
    55   26   27 1   
    56   26   66 1   
    57   27   28 1   
    58   27   30 1   
    59   27   67 1   
    60   28   29 1   
    61   28   68 1   
    62   28   69 1   
    63   29   73 1   
    64   29   74 1   
    65   29   83 1   
    66   30   76 1   
    67   30   82 2   
    68   31   34 ar  
    69   31   35 ar  
    70   31   37 1   
    71   32   33 ar  
    72   32   36 ar  
    73   32   77 1   
    74   33   34 ar  
    75   33   78 1   
    76   34   79 1   
    77   35   36 ar  
    78   35   80 1   
    79   36   81 1   
    80   37   38 2   
    81   37   39 2   
    82   37   82 1   
    83   70   83 1   
    84   71   83 1   
    85   72   83 1   
    86   75   82 1   
@<TRIPOS>SUBSTRUCTURE
     1 MYP         1 TEMP              0 ****  ****    0 ROOT
