@<TRIPOS>MOLECULE
MYR
   43    42     1     0     0
SMALL
bcc


@<TRIPOS>ATOM
      1 C1          0.0250   -0.1230    0.0410 c         1 MYR      0.907600
      2 O1          0.9540   -0.9790    0.1230 o         1 MYR     -0.853800
      3 O2         -0.3320    0.6200    1.0000 o         1 MYR     -0.853800
      4 C2         -0.7350    0.0110   -1.2900 c3        1 MYR     -0.193400
      5 C3          0.2140    0.0600   -2.4620 c3        1 MYR     -0.065400
      6 C4         -0.5190    0.0060   -3.7860 c3        1 MYR     -0.078400
      7 C5          0.4410    0.0740   -4.9550 c3        1 MYR     -0.078400
      8 C6         -0.2910    0.0120   -6.2790 c3        1 MYR     -0.078400
      9 C7          0.6710    0.0810   -7.4460 c3        1 MYR     -0.079400
     10 C8         -0.0600    0.0180   -8.7690 c3        1 MYR     -0.078400
     11 C9          0.9020    0.0880   -9.9350 c3        1 MYR     -0.079400
     12 C10         0.1700    0.0250  -11.2590 c3        1 MYR     -0.078400
     13 C11         1.1330    0.0950  -12.4250 c3        1 MYR     -0.079400
     14 C12         0.4010    0.0330  -13.7480 c3        1 MYR     -0.079400
     15 C13         1.3630    0.1020  -14.9150 c3        1 MYR     -0.080400
     16 C14         0.6390    0.0410  -16.2340 c3        1 MYR     -0.092100
     17 H21        -1.4150   -0.8740   -1.3860 hc        1 MYR      0.018700
     18 H22        -1.3700    0.9310   -1.2640 hc        1 MYR      0.018700
     19 H31         0.9300   -0.8020   -2.3810 hc        1 MYR      0.043700
     20 H32         0.8230    1.0000   -2.4100 hc        1 MYR      0.043700
     21 H41        -1.2470    0.8570   -3.8490 hc        1 MYR      0.025700
     22 H42        -1.1150   -0.9430   -3.8460 hc        1 MYR      0.025700
     23 H51         1.1720   -0.7740   -4.8880 hc        1 MYR      0.036700
     24 H52         1.0330    1.0250   -4.8970 hc        1 MYR      0.036700
     25 H61        -1.0220    0.8600   -6.3440 hc        1 MYR      0.034200
     26 H62        -0.8820   -0.9400   -6.3360 hc        1 MYR      0.034200
     27 H71         1.2630    1.0320   -7.3880 hc        1 MYR      0.037200
     28 H72         1.4030   -0.7670   -7.3800 hc        1 MYR      0.037200
     29 H81        -0.7920    0.8670   -8.8350 hc        1 MYR      0.036700
     30 H82        -0.6520   -0.9330   -8.8260 hc        1 MYR      0.036700
     31 H91         1.6330   -0.7610   -9.8700 hc        1 MYR      0.038200
     32 H92         1.4940    1.0390   -9.8770 hc        1 MYR      0.038200
     33 H101       -0.4220   -0.9260  -11.3160 hc        1 MYR      0.037700
     34 H102       -0.5610    0.8740  -11.3240 hc        1 MYR      0.037700
     35 H111        1.8640   -0.7540  -12.3590 hc        1 MYR      0.038700
     36 H112        1.7260    1.0460  -12.3670 hc        1 MYR      0.038700
     37 H121       -0.1910   -0.9180  -13.8060 hc        1 MYR      0.038700
     38 H122       -0.3300    0.8810  -13.8130 hc        1 MYR      0.038700
     39 H131        2.0940   -0.7470  -14.8460 hc        1 MYR      0.037700
     40 H132        1.9560    1.0530  -14.8540 hc        1 MYR      0.037700
     41 H141        0.0620   -0.9110  -16.3240 hc        1 MYR      0.030700
     42 H142        1.3660    0.0930  -17.0800 hc        1 MYR      0.030700
     43 H143       -0.0770    0.8930  -16.3310 hc        1 MYR      0.030700
@<TRIPOS>BOND
     1    1    2 1   
     2    1    3 1   
     3    1    4 1   
     4    4    5 1   
     5    4   17 1   
     6    4   18 1   
     7    5    6 1   
     8    5   19 1   
     9    5   20 1   
    10    6    7 1   
    11    6   21 1   
    12    6   22 1   
    13    7    8 1   
    14    7   23 1   
    15    7   24 1   
    16    8    9 1   
    17    8   25 1   
    18    8   26 1   
    19    9   10 1   
    20    9   27 1   
    21    9   28 1   
    22   10   11 1   
    23   10   29 1   
    24   10   30 1   
    25   11   12 1   
    26   11   31 1   
    27   11   32 1   
    28   12   13 1   
    29   12   33 1   
    30   12   34 1   
    31   13   14 1   
    32   13   35 1   
    33   13   36 1   
    34   14   15 1   
    35   14   37 1   
    36   14   38 1   
    37   15   16 1   
    38   15   39 1   
    39   15   40 1   
    40   16   41 1   
    41   16   42 1   
    42   16   43 1   
@<TRIPOS>SUBSTRUCTURE
     1 MYR         1 TEMP              0 ****  ****    0 ROOT
