@<TRIPOS>MOLECULE
MYR
   43    42     1     0     0
SMALL
bcc


@<TRIPOS>ATOM
      1 C1          0.1350   -0.0000   -7.0210 c         1 MYR      0.907600
      2 O1          1.3980   -0.0000   -6.9580 o         1 MYR     -0.854800
      3 O2         -0.5130    0.0000   -8.1080 o         1 MYR     -0.854800
      4 C2         -0.6830    0.0000   -5.7180 c3        1 MYR     -0.193400
      5 C3          0.1920    0.0000   -4.4900 c3        1 MYR     -0.062400
      6 C4         -0.6250    0.0000   -3.2140 c3        1 MYR     -0.079400
      7 C5          0.2630    0.0000   -1.9880 c3        1 MYR     -0.078400
      8 C6         -0.5520    0.0000   -0.7120 c3        1 MYR     -0.078400
      9 C7          0.3390    0.0000    0.5120 c3        1 MYR     -0.079400
     10 C8         -0.4760   -0.0000    1.7880 c3        1 MYR     -0.078400
     11 C9          0.4150   -0.0000    3.0110 c3        1 MYR     -0.079400
     12 C10        -0.4000   -0.0000    4.2870 c3        1 MYR     -0.078400
     13 C11         0.4910    0.0000    5.5100 c3        1 MYR     -0.079400
     14 C12        -0.3240    0.0000    6.7850 c3        1 MYR     -0.079400
     15 C13         0.5670    0.0000    8.0100 c3        1 MYR     -0.080400
     16 C14        -0.2400   -0.0000    9.2820 c3        1 MYR     -0.092100
     17 H21        -1.3450   -0.9030   -5.7220 hc        1 MYR      0.018700
     18 H22        -1.3450    0.9030   -5.7220 hc        1 MYR      0.018700
     19 H31         0.8620    0.8990   -4.5170 hc        1 MYR      0.044700
     20 H32         0.8620   -0.8990   -4.5170 hc        1 MYR      0.044700
     21 H41        -1.2920   -0.9020   -3.1940 hc        1 MYR      0.024700
     22 H42        -1.2920    0.9020   -3.1940 hc        1 MYR      0.024700
     23 H51         0.9290    0.9020   -2.0090 hc        1 MYR      0.036700
     24 H52         0.9290   -0.9020   -2.0090 hc        1 MYR      0.036700
     25 H61        -1.2180   -0.9020   -0.6920 hc        1 MYR      0.033700
     26 H62        -1.2180    0.9020   -0.6920 hc        1 MYR      0.033700
     27 H71         1.0050    0.9020    0.4910 hc        1 MYR      0.037700
     28 H72         1.0050   -0.9020    0.4910 hc        1 MYR      0.037700
     29 H81        -1.1430   -0.9020    1.8080 hc        1 MYR      0.036700
     30 H82        -1.1430    0.9020    1.8080 hc        1 MYR      0.036700
     31 H91         1.0810    0.9020    2.9910 hc        1 MYR      0.038700
     32 H92         1.0810   -0.9020    2.9910 hc        1 MYR      0.038700
     33 H101       -1.0670   -0.9020    4.3070 hc        1 MYR      0.037700
     34 H102       -1.0670    0.9020    4.3070 hc        1 MYR      0.037700
     35 H111        1.1570    0.9020    5.4890 hc        1 MYR      0.038700
     36 H112        1.1570   -0.9020    5.4890 hc        1 MYR      0.038700
     37 H121       -0.9900   -0.9020    6.8060 hc        1 MYR      0.038700
     38 H122       -0.9900    0.9020    6.8060 hc        1 MYR      0.038700
     39 H131        1.2330    0.9020    7.9860 hc        1 MYR      0.037700
     40 H132        1.2330   -0.9020    7.9860 hc        1 MYR      0.037700
     41 H141        0.4350   -0.0000   10.1710 hc        1 MYR      0.030700
     42 H142       -0.8930    0.9050    9.3350 hc        1 MYR      0.030700
     43 H143       -0.8930   -0.9050    9.3350 hc        1 MYR      0.030700
@<TRIPOS>BOND
     1    1    2 1   
     2    1    3 1   
     3    1    4 1   
     4    4    5 1   
     5    4   17 1   
     6    4   18 1   
     7    5    6 1   
     8    5   19 1   
     9    5   20 1   
    10    6    7 1   
    11    6   21 1   
    12    6   22 1   
    13    7    8 1   
    14    7   23 1   
    15    7   24 1   
    16    8    9 1   
    17    8   25 1   
    18    8   26 1   
    19    9   10 1   
    20    9   27 1   
    21    9   28 1   
    22   10   11 1   
    23   10   29 1   
    24   10   30 1   
    25   11   12 1   
    26   11   31 1   
    27   11   32 1   
    28   12   13 1   
    29   12   33 1   
    30   12   34 1   
    31   13   14 1   
    32   13   35 1   
    33   13   36 1   
    34   14   15 1   
    35   14   37 1   
    36   14   38 1   
    37   15   16 1   
    38   15   39 1   
    39   15   40 1   
    40   16   41 1   
    41   16   42 1   
    42   16   43 1   
@<TRIPOS>SUBSTRUCTURE
     1 MYR         1 TEMP              0 ****  ****    0 ROOT
