@<TRIPOS>MOLECULE
MYR
   43    42     1     0     0
SMALL
bcc


@<TRIPOS>ATOM
      1 C1          0.0210   -0.1260    0.0410 c         1 MYR      0.907600
      2 O1          0.9260   -1.0060    0.1220 o         1 MYR     -0.853800
      3 O2         -0.3150    0.6270    1.0000 o         1 MYR     -0.853800
      4 C2         -0.7350    0.0300   -1.2900 c3        1 MYR     -0.193400
      5 C3          0.2150    0.0550   -2.4620 c3        1 MYR     -0.065400
      6 C4         -0.5200    0.0220   -3.7860 c3        1 MYR     -0.078400
      7 C5          0.4420    0.0670   -4.9550 c3        1 MYR     -0.078400
      8 C6         -0.2910    0.0250   -6.2790 c3        1 MYR     -0.078400
      9 C7          0.6720    0.0710   -7.4460 c3        1 MYR     -0.079400
     10 C8         -0.0610    0.0290   -8.7690 c3        1 MYR     -0.078400
     11 C9          0.9030    0.0750   -9.9350 c3        1 MYR     -0.079400
     12 C10         0.1700    0.0330  -11.2590 c3        1 MYR     -0.078400
     13 C11         1.1340    0.0790  -12.4240 c3        1 MYR     -0.079400
     14 C12         0.4010    0.0370  -13.7480 c3        1 MYR     -0.079400
     15 C13         1.3650    0.0830  -14.9150 c3        1 MYR     -0.080400
     16 C14         0.6390    0.0420  -16.2340 c3        1 MYR     -0.092100
     17 H21        -1.4390   -0.8360   -1.3870 hc        1 MYR      0.018700
     18 H22        -1.3450    0.9670   -1.2630 hc        1 MYR      0.018700
     19 H31         0.9070   -0.8260   -2.3820 hc        1 MYR      0.043700
     20 H32         0.8490    0.9790   -2.4090 hc        1 MYR      0.043700
     21 H41        -1.2250    0.8930   -3.8480 hc        1 MYR      0.025700
     22 H42        -1.1410   -0.9100   -3.8480 hc        1 MYR      0.025700
     23 H51         1.1500   -0.8010   -4.8890 hc        1 MYR      0.036700
     24 H52         1.0600    1.0010   -4.8960 hc        1 MYR      0.036700
     25 H61        -1.0000    0.8920   -6.3430 hc        1 MYR      0.034200
     26 H62        -0.9080   -0.9100   -6.3370 hc        1 MYR      0.034200
     27 H71         1.2890    1.0060   -7.3870 hc        1 MYR      0.037200
     28 H72         1.3810   -0.7960   -7.3810 hc        1 MYR      0.037200
     29 H81        -0.7700    0.8960   -8.8340 hc        1 MYR      0.036700
     30 H82        -0.6780   -0.9060   -8.8280 hc        1 MYR      0.036700
     31 H91         1.6120   -0.7930   -9.8710 hc        1 MYR      0.038200
     32 H92         1.5200    1.0100   -9.8760 hc        1 MYR      0.038200
     33 H101       -0.4470   -0.9020  -11.3170 hc        1 MYR      0.037700
     34 H102       -0.5390    0.9000  -11.3230 hc        1 MYR      0.037700
     35 H111        1.8430   -0.7890  -12.3600 hc        1 MYR      0.038700
     36 H112        1.7510    1.0140  -12.3650 hc        1 MYR      0.038700
     37 H121       -0.2160   -0.8980  -13.8070 hc        1 MYR      0.038700
     38 H122       -0.3080    0.9050  -13.8120 hc        1 MYR      0.038700
     39 H131        2.0730   -0.7850  -14.8470 hc        1 MYR      0.037700
     40 H132        1.9820    1.0180  -14.8520 hc        1 MYR      0.037700
     41 H141        0.0370   -0.8950  -16.3250 hc        1 MYR      0.030700
     42 H142        1.3670    0.0760  -17.0800 hc        1 MYR      0.030700
     43 H143       -0.0540    0.9120  -16.3300 hc        1 MYR      0.030700
@<TRIPOS>BOND
     1    1    2 1   
     2    1    3 1   
     3    1    4 1   
     4    4    5 1   
     5    4   17 1   
     6    4   18 1   
     7    5    6 1   
     8    5   19 1   
     9    5   20 1   
    10    6    7 1   
    11    6   21 1   
    12    6   22 1   
    13    7    8 1   
    14    7   23 1   
    15    7   24 1   
    16    8    9 1   
    17    8   25 1   
    18    8   26 1   
    19    9   10 1   
    20    9   27 1   
    21    9   28 1   
    22   10   11 1   
    23   10   29 1   
    24   10   30 1   
    25   11   12 1   
    26   11   31 1   
    27   11   32 1   
    28   12   13 1   
    29   12   33 1   
    30   12   34 1   
    31   13   14 1   
    32   13   35 1   
    33   13   36 1   
    34   14   15 1   
    35   14   37 1   
    36   14   38 1   
    37   15   16 1   
    38   15   39 1   
    39   15   40 1   
    40   16   41 1   
    41   16   42 1   
    42   16   43 1   
@<TRIPOS>SUBSTRUCTURE
     1 MYR         1 TEMP              0 ****  ****    0 ROOT
