@<TRIPOS>MOLECULE
MYS
   47    46     1     0     0
SMALL
bcc


@<TRIPOS>ATOM
      1 C1         -0.3890   -0.0060    8.7460 c3        1 MYS     -0.092100
      2 C2          0.4570    0.0050    7.4990 c3        1 MYS     -0.080400
      3 C3         -0.3960   -0.0040    6.2480 c3        1 MYS     -0.079400
      4 C4          0.4570    0.0060    4.9980 c3        1 MYS     -0.079400
      5 C5         -0.3970   -0.0030    3.7490 c3        1 MYS     -0.079400
      6 C6          0.4570    0.0060    2.4990 c3        1 MYS     -0.079400
      7 C7         -0.3970   -0.0040    1.2500 c3        1 MYS     -0.079400
      8 C8          0.4570    0.0050   -0.0000 c3        1 MYS     -0.079400
      9 C9         -0.3970   -0.0040   -1.2500 c3        1 MYS     -0.079400
     10 C10         0.4570    0.0050   -2.4990 c3        1 MYS     -0.079400
     11 C11        -0.3970   -0.0040   -3.7490 c3        1 MYS     -0.079400
     12 C12         0.4570    0.0050   -4.9980 c3        1 MYS     -0.079400
     13 C13        -0.3960   -0.0040   -6.2480 c3        1 MYS     -0.079400
     14 C14         0.4570    0.0050   -7.4990 c3        1 MYS     -0.080400
     15 C15        -0.3890   -0.0050   -8.7460 c3        1 MYS     -0.092100
     16 H11        -1.0320   -0.9190    8.7780 hc        1 MYS      0.032700
     17 H12         0.2600    0.0000    9.6550 hc        1 MYS      0.032700
     18 H13        -1.0530    0.8910    8.7800 hc        1 MYS      0.032700
     19 H21         1.1140    0.9150    7.4970 hc        1 MYS      0.038700
     20 H22         1.1340   -0.8900    7.4950 hc        1 MYS      0.038700
     21 H31        -1.0530   -0.9130    6.2480 hc        1 MYS      0.039700
     22 H32        -1.0730    0.8910    6.2490 hc        1 MYS      0.039700
     23 H41         1.1140    0.9160    4.9980 hc        1 MYS      0.039700
     24 H42         1.1340   -0.8890    4.9980 hc        1 MYS      0.039700
     25 H51        -1.0540   -0.9130    3.7490 hc        1 MYS      0.039700
     26 H52        -1.0730    0.8920    3.7490 hc        1 MYS      0.039700
     27 H61         1.1140    0.9160    2.4990 hc        1 MYS      0.039700
     28 H62         1.1330   -0.8890    2.4990 hc        1 MYS      0.039700
     29 H71        -1.0530   -0.9140    1.2500 hc        1 MYS      0.039700
     30 H72        -1.0740    0.8910    1.2500 hc        1 MYS      0.039700
     31 H81         1.1130    0.9150    0.0000 hc        1 MYS      0.039700
     32 H82         1.1330   -0.8900   -0.0000 hc        1 MYS      0.039700
     33 H91        -1.0540   -0.9140   -1.2500 hc        1 MYS      0.039700
     34 H92        -1.0740    0.8910   -1.2500 hc        1 MYS      0.039700
     35 H101        1.1130    0.9150   -2.4990 hc        1 MYS      0.039700
     36 H102        1.1340   -0.8900   -2.4990 hc        1 MYS      0.039700
     37 H111       -1.0530   -0.9140   -3.7490 hc        1 MYS      0.039700
     38 H112       -1.0730    0.8910   -3.7490 hc        1 MYS      0.039700
     39 H121        1.1140    0.9150   -4.9980 hc        1 MYS      0.039700
     40 H122        1.1340   -0.8900   -4.9980 hc        1 MYS      0.039700
     41 H131       -1.0530   -0.9140   -6.2480 hc        1 MYS      0.039700
     42 H132       -1.0730    0.8910   -6.2490 hc        1 MYS      0.039700
     43 H141        1.1140    0.9150   -7.4960 hc        1 MYS      0.038700
     44 H142        1.1340   -0.8900   -7.4950 hc        1 MYS      0.038700
     45 H151        0.2600    0.0020   -9.6550 hc        1 MYS      0.032700
     46 H152       -1.0320   -0.9170   -8.7780 hc        1 MYS      0.032700
     47 H153       -1.0530    0.8920   -8.7790 hc        1 MYS      0.032700
@<TRIPOS>BOND
     1    1    2 1   
     2    1   16 1   
     3    1   17 1   
     4    1   18 1   
     5    2    3 1   
     6    2   19 1   
     7    2   20 1   
     8    3    4 1   
     9    3   21 1   
    10    3   22 1   
    11    4    5 1   
    12    4   23 1   
    13    4   24 1   
    14    5    6 1   
    15    5   25 1   
    16    5   26 1   
    17    6    7 1   
    18    6   27 1   
    19    6   28 1   
    20    7    8 1   
    21    7   29 1   
    22    7   30 1   
    23    8    9 1   
    24    8   31 1   
    25    8   32 1   
    26    9   10 1   
    27    9   33 1   
    28    9   34 1   
    29   10   11 1   
    30   10   35 1   
    31   10   36 1   
    32   11   12 1   
    33   11   37 1   
    34   11   38 1   
    35   12   13 1   
    36   12   39 1   
    37   12   40 1   
    38   13   14 1   
    39   13   41 1   
    40   13   42 1   
    41   14   15 1   
    42   14   43 1   
    43   14   44 1   
    44   15   45 1   
    45   15   46 1   
    46   15   47 1   
@<TRIPOS>SUBSTRUCTURE
     1 MYS         1 TEMP              0 ****  ****    0 ROOT
