@<TRIPOS>MOLECULE
MYS
   47    46     1     0     0
SMALL
bcc


@<TRIPOS>ATOM
      1 C1         -7.2860    0.0160   -4.6730 c3        1 MYS     -0.092100
      2 C2         -5.7730    0.0160   -4.6730 c3        1 MYS     -0.080400
      3 C3         -5.2680    0.0160   -3.2470 c3        1 MYS     -0.079400
      4 C4         -3.7550    0.0200   -3.2470 c3        1 MYS     -0.079400
      5 C5         -3.2510    0.0140   -1.8210 c3        1 MYS     -0.079400
      6 C6         -1.7380    0.0210   -1.8210 c3        1 MYS     -0.079400
      7 C7         -1.2340    0.0070   -0.3940 c3        1 MYS     -0.079400
      8 C8          0.2790    0.0190   -0.3940 c3        1 MYS     -0.079400
      9 C9          0.7830   -0.0050    1.0320 c3        1 MYS     -0.079400
     10 C10         2.2960    0.0120    1.0320 c3        1 MYS     -0.079400
     11 C11         2.8010   -0.0200    2.4580 c3        1 MYS     -0.079400
     12 C12         4.3130    0.0010    2.4580 c3        1 MYS     -0.079400
     13 C13         4.8180   -0.0390    3.8840 c3        1 MYS     -0.079400
     14 C14         6.3310   -0.0090    3.8840 c3        1 MYS     -0.080400
     15 C15         6.8350   -0.0570    5.3100 c3        1 MYS     -0.092100
     16 H11        -7.6110   -0.7800   -4.2120 hc        1 MYS      0.032700
     17 H12        -7.6110    0.8140   -4.2140 hc        1 MYS      0.032700
     18 H13        -7.6110    0.0150   -5.5940 hc        1 MYS      0.032700
     19 H21        -5.4470    0.8130   -5.1340 hc        1 MYS      0.038700
     20 H22        -5.4470   -0.7810   -5.1340 hc        1 MYS      0.038700
     21 H31        -5.5960    0.8120   -2.7860 hc        1 MYS      0.039700
     22 H32        -5.5920   -0.7820   -2.7870 hc        1 MYS      0.039700
     23 H41        -3.4280   -0.7740   -3.7110 hc        1 MYS      0.039700
     24 H42        -3.4320    0.8200   -3.7030 hc        1 MYS      0.039700
     25 H51        -3.5810    0.8060   -1.3560 hc        1 MYS      0.039700
     26 H52        -3.5730   -0.7880   -1.3650 hc        1 MYS      0.039700
     27 H61        -1.4090   -0.7690   -2.2900 hc        1 MYS      0.039700
     28 H62        -1.4170    0.8250   -2.2710 hc        1 MYS      0.039700
     29 H71        -1.5660    0.7960    0.0760 hc        1 MYS      0.039700
     30 H72        -1.5530   -0.7980    0.0560 hc        1 MYS      0.039700
     31 H81         0.6110   -0.7660   -0.8700 hc        1 MYS      0.039700
     32 H82         0.5980    0.8280   -0.8380 hc        1 MYS      0.039700
     33 H91         0.4670   -0.8150    1.4750 hc        1 MYS      0.039700
     34 H92         0.4490    0.7780    1.5090 hc        1 MYS      0.039700
     35 H101        2.6300   -0.7690    0.5510 hc        1 MYS      0.039700
     36 H102        2.6120    0.8250    0.5930 hc        1 MYS      0.039700
     37 H111        2.4640    0.7590    2.9400 hc        1 MYS      0.039700
     38 H112        2.4870   -0.8340    2.8960 hc        1 MYS      0.039700
     39 H121        4.6500   -0.7750    1.9720 hc        1 MYS      0.039700
     40 H122        4.6270    0.8180    2.0250 hc        1 MYS      0.039700
     41 H131        4.4770    0.7360    4.3710 hc        1 MYS      0.039700
     42 H132        4.5080   -0.8570    4.3160 hc        1 MYS      0.039700
     43 H141        6.6710   -0.7810    3.3930 hc        1 MYS      0.038700
     44 H142        6.6400    0.8120    3.4570 hc        1 MYS      0.038700
     45 H151        7.8110   -0.0350    5.3100 hc        1 MYS      0.032700
     46 H152        6.4930    0.7130    5.8020 hc        1 MYS      0.032700
     47 H153        6.5280   -0.8790    5.7370 hc        1 MYS      0.032700
@<TRIPOS>BOND
     1    1    2 1   
     2    1   16 1   
     3    1   17 1   
     4    1   18 1   
     5    2    3 1   
     6    2   19 1   
     7    2   20 1   
     8    3    4 1   
     9    3   21 1   
    10    3   22 1   
    11    4    5 1   
    12    4   23 1   
    13    4   24 1   
    14    5    6 1   
    15    5   25 1   
    16    5   26 1   
    17    6    7 1   
    18    6   27 1   
    19    6   28 1   
    20    7    8 1   
    21    7   29 1   
    22    7   30 1   
    23    8    9 1   
    24    8   31 1   
    25    8   32 1   
    26    9   10 1   
    27    9   33 1   
    28    9   34 1   
    29   10   11 1   
    30   10   35 1   
    31   10   36 1   
    32   11   12 1   
    33   11   37 1   
    34   11   38 1   
    35   12   13 1   
    36   12   39 1   
    37   12   40 1   
    38   13   14 1   
    39   13   41 1   
    40   13   42 1   
    41   14   15 1   
    42   14   43 1   
    43   14   44 1   
    44   15   45 1   
    45   15   46 1   
    46   15   47 1   
@<TRIPOS>SUBSTRUCTURE
     1 MYS         1 TEMP              0 ****  ****    0 ROOT
