@<TRIPOS>MOLECULE
MYT
   31    32     1     0     0
SMALL
bcc


@<TRIPOS>ATOM
      1 N1         -0.1990   -0.0520   -0.1290 nb        1 MYT     -0.671000
      2 C2          1.1190    0.2040   -0.0500 ca        1 MYT      0.431200
      3 C3          1.8730    0.0520    1.1330 ca        1 MYT     -0.281900
      4 C4          1.2020   -0.3700    2.2920 ca        1 MYT     -0.046000
      5 C5         -0.1630   -0.6450    2.2220 ca        1 MYT     -0.257300
      6 C6         -0.8200   -0.4730    0.9900 ca        1 MYT      0.415200
      7 C7          3.3170    0.3570    1.2080 c         1 MYT      0.588700
      8 O8          3.8000    0.8510    2.2340 o         1 MYT     -0.524100
      9 C9          3.8650   -1.3690   -0.5060 c3        1 MYT     -0.087100
     10 C10         4.2110    0.0200    0.0100 c3        1 MYT     -0.086700
     11 C11         5.6700   -0.0010    0.4750 c3        1 MYT     -0.087100
     12 C12         4.0570    1.0920   -1.0290 ca        1 MYT     -0.199600
     13 C13         4.2170    2.4480   -0.6520 ca        1 MYT      0.399200
     14 N14         4.1360    3.4790   -1.5100 nb        1 MYT     -0.657000
     15 C15         3.8880    3.1920   -2.8040 ca        1 MYT      0.395200
     16 C16         3.7130    1.8820   -3.2810 ca        1 MYT     -0.245300
     17 C17         3.8000    0.8210   -2.3770 ca        1 MYT     -0.092000
     18 H2          1.5980    0.5610   -0.9830 h4        1 MYT      0.034100
     19 H4          1.7560   -0.4720    3.2380 ha        1 MYT      0.156000
     20 H5         -0.7190   -0.9810    3.1070 ha        1 MYT      0.149000
     21 H6         -1.9010   -0.6790    0.8900 h4        1 MYT      0.026100
     22 H91         3.9180   -2.1070    0.3310 hc        1 MYT      0.047700
     23 H92         2.8360   -1.3980   -0.9390 hc        1 MYT      0.047700
     24 H93         4.5960   -1.6770   -1.2930 hc        1 MYT      0.047700
     25 H111        6.3410   -0.2180   -0.3890 hc        1 MYT      0.047700
     26 H112        5.8070   -0.7890    1.2530 hc        1 MYT      0.047700
     27 H113        5.9490    0.9860    0.9170 hc        1 MYT      0.047700
     28 H13         4.4190    2.7100    0.4050 h4        1 MYT      0.037100
     29 H15         3.8290    4.0590   -3.4850 h4        1 MYT      0.025100
     30 H16         3.5120    1.6990   -4.3450 ha        1 MYT      0.146000
     31 H17         3.6700   -0.2120   -2.7340 ha        1 MYT      0.143000
@<TRIPOS>BOND
     1    1    2 ar  
     2    1    6 ar  
     3    2    3 ar  
     4    2   18 1   
     5    3    4 ar  
     6    3    7 1   
     7    4    5 ar  
     8    4   19 1   
     9    5    6 ar  
    10    5   20 1   
    11    6   21 1   
    12    7    8 2   
    13    7   10 1   
    14    9   10 1   
    15    9   22 1   
    16    9   23 1   
    17    9   24 1   
    18   10   11 1   
    19   10   12 1   
    20   11   25 1   
    21   11   26 1   
    22   11   27 1   
    23   12   13 ar  
    24   12   17 ar  
    25   13   14 ar  
    26   13   28 1   
    27   14   15 ar  
    28   15   16 ar  
    29   15   29 1   
    30   16   17 ar  
    31   16   30 1   
    32   17   31 1   
@<TRIPOS>SUBSTRUCTURE
     1 MYT         1 TEMP              0 ****  ****    0 ROOT
