@<TRIPOS>MOLECULE
MYT
   31    32     1     0     0
SMALL
bcc


@<TRIPOS>ATOM
      1 N1         -0.2020   -0.0310   -0.1800 nb        1 MYT     -0.671000
      2 C2          1.1160    0.2170   -0.0810 ca        1 MYT      0.431200
      3 C3          1.8490    0.0740    1.1170 ca        1 MYT     -0.281900
      4 C4          1.1540   -0.3310    2.2680 ca        1 MYT     -0.046000
      5 C5         -0.2110   -0.5980    2.1780 ca        1 MYT     -0.257300
      6 C6         -0.8450   -0.4360    0.9330 ca        1 MYT      0.415200
      7 C7          3.2920    0.3700    1.2140 c         1 MYT      0.588700
      8 O8          3.7610    0.8730    2.2420 o         1 MYT     -0.524100
      9 C9          3.8590   -1.3780   -0.4720 c3        1 MYT     -0.087100
     10 C10         4.2050    0.0150    0.0360 c3        1 MYT     -0.086700
     11 C11         5.6550   -0.0100    0.5260 c3        1 MYT     -0.087100
     12 C12         4.0760    1.0760   -1.0180 ca        1 MYT     -0.199600
     13 C13         4.2380    2.4350   -0.6530 ca        1 MYT      0.399200
     14 N14         4.1780    3.4570   -1.5240 nb        1 MYT     -0.657000
     15 C15         3.9510    3.1560   -2.8190 ca        1 MYT      0.395200
     16 C16         3.7760    1.8430   -3.2850 ca        1 MYT     -0.245300
     17 C17         3.8400    0.7910   -2.3680 ca        1 MYT     -0.092000
     18 H2          1.6130    0.5600   -1.0090 h4        1 MYT      0.034100
     19 H4          1.6910   -0.4250    3.2260 ha        1 MYT      0.156000
     20 H5         -0.7840   -0.9210    3.0580 ha        1 MYT      0.149000
     21 H6         -1.9260   -0.6360    0.8160 h4        1 MYT      0.026100
     22 H91         3.8930   -2.1060    0.3750 hc        1 MYT      0.047700
     23 H92         2.8370   -1.4050   -0.9220 hc        1 MYT      0.047700
     24 H93         4.6010   -1.6990   -1.2420 hc        1 MYT      0.047700
     25 H111        6.3400   -0.2400   -0.3240 hc        1 MYT      0.047700
     26 H112        5.7740   -0.7900    1.3150 hc        1 MYT      0.047700
     27 H113        5.9330    0.9800    0.9620 hc        1 MYT      0.047700
     28 H13         4.4230    2.7080    0.4040 h4        1 MYT      0.037100
     29 H15         3.9090    4.0160   -3.5110 h4        1 MYT      0.025100
     30 H16         3.5920    1.6490   -4.3500 ha        1 MYT      0.146000
     31 H17         3.7090   -0.2450   -2.7150 ha        1 MYT      0.143000
@<TRIPOS>BOND
     1    1    2 ar  
     2    1    6 ar  
     3    2    3 ar  
     4    2   18 1   
     5    3    4 ar  
     6    3    7 1   
     7    4    5 ar  
     8    4   19 1   
     9    5    6 ar  
    10    5   20 1   
    11    6   21 1   
    12    7    8 2   
    13    7   10 1   
    14    9   10 1   
    15    9   22 1   
    16    9   23 1   
    17    9   24 1   
    18   10   11 1   
    19   10   12 1   
    20   11   25 1   
    21   11   26 1   
    22   11   27 1   
    23   12   13 ar  
    24   12   17 ar  
    25   13   14 ar  
    26   13   28 1   
    27   14   15 ar  
    28   15   16 ar  
    29   15   29 1   
    30   16   17 ar  
    31   16   30 1   
    32   17   31 1   
@<TRIPOS>SUBSTRUCTURE
     1 MYT         1 TEMP              0 ****  ****    0 ROOT
