@<TRIPOS>MOLECULE
MYT
   31    27     1     0     0
SMALL
bcc


@<TRIPOS>ATOM
      1 N1          0.2640   -3.2160    2.2860 n1        1 MYT     -0.136000
      2 C2          0.2380   -2.1760    1.4060 c1        1 MYT     -0.044000
      3 C3         -0.4550   -1.0180    1.7230 c1        1 MYT     -0.185000
      4 C4         -1.1100   -0.9200    2.9160 c1        1 MYT     -0.124000
      5 C5         -1.0830   -1.9630    3.7960 c1        1 MYT     -0.124000
      6 C6         -0.3900   -3.1200    3.4770 c1        1 MYT     -0.061000
      7 C7         -0.4250    0.1640    0.7770 c2        1 MYT      0.277000
      8 O8         -1.0310    1.1790    1.0540 o         1 MYT     -0.261000
      9 C9         -0.1960   -1.1080   -1.3310 c3        1 MYT     -0.207500
     10 C10         0.3290    0.0670   -0.5330 c3        1 MYT     -0.042000
     11 C11         1.8030   -0.1320   -0.2540 c3        1 MYT     -0.207500
     12 C12         0.1330    1.3440   -1.3260 c2        1 MYT     -0.114000
     13 C13        -0.0540    2.5480   -0.6650 c2        1 MYT     -0.074000
     14 N14        -0.2410    3.6950   -1.3770 n1        1 MYT     -0.136000
     15 C15        -0.2450    3.6600   -2.7390 c1        1 MYT     -0.124000
     16 C16        -0.0580    2.4570   -3.4020 c1        1 MYT     -0.124000
     17 C17         0.1290    1.3080   -2.6900 c1        1 MYT     -0.078000
     18 H2          0.7060   -2.2460    0.5540 ha        1 MYT      0.164000
     19 H4         -1.5980   -0.1040    3.1390 ha        1 MYT      0.152500
     20 H5         -1.5520   -1.8940    4.6490 ha        1 MYT      0.152500
     21 H6         -0.3710   -3.8660    4.1060 ha        1 MYT      0.164000
     22 H91        -0.7420   -1.6790   -0.7510 hc        1 MYT      0.087167
     23 H92        -0.7440   -0.7790   -2.0740 hc        1 MYT      0.087167
     24 H93         0.5570   -1.6250   -1.6850 hc        1 MYT      0.087167
     25 H111        2.1610    0.6620    0.1940 hc        1 MYT      0.087167
     26 H112        2.2800   -0.2740   -1.0990 hc        1 MYT      0.087167
     27 H113        1.9230   -0.9140    0.3240 hc        1 MYT      0.087167
     28 H13        -0.0510    2.5750    0.3100 h4        1 MYT      0.159000
     29 H15        -0.3790    4.4820   -3.2480 ha        1 MYT      0.152500
     30 H16        -0.0610    2.4320   -4.3780 ha        1 MYT      0.152500
     31 H17         0.2610    0.4610   -3.1560 ha        1 MYT      0.145000
@<TRIPOS>BOND
     1    1    6 1   
     2    2    3 1   
     3    2   18 1   
     4    3    7 1   
     5    4    5 1   
     6    4   19 1   
     7    5   20 1   
     8    6   21 1   
     9    7    8 1   
    10    7   10 1   
    11    9   10 1   
    12    9   22 1   
    13    9   23 1   
    14    9   24 1   
    15   10   11 1   
    16   10   12 1   
    17   11   25 1   
    18   11   26 1   
    19   11   27 1   
    20   12   13 1   
    21   12   17 1   
    22   13   14 1   
    23   13   28 1   
    24   15   16 1   
    25   15   29 1   
    26   16   30 1   
    27   17   31 1   
@<TRIPOS>SUBSTRUCTURE
     1 MYT         1 TEMP              0 ****  ****    0 ROOT
