@<TRIPOS>MOLECULE
MYT
   31    32     1     0     0
SMALL
bcc


@<TRIPOS>ATOM
      1 N1         -1.8250   -1.1170    2.2100 nb        1 MYT     -0.671000
      2 C2         -0.9850   -0.6260    1.2810 ca        1 MYT      0.431200
      3 C3          0.2040    0.0680    1.5940 ca        1 MYT     -0.281900
      4 C4          0.5100    0.2700    2.9500 ca        1 MYT     -0.046000
      5 C5         -0.3490   -0.2400    3.9220 ca        1 MYT     -0.257300
      6 C6         -1.5030   -0.9270    3.5040 ca        1 MYT      0.415200
      7 C7          1.1060    0.6180    0.5620 c         1 MYT      0.588700
      8 O8          1.6960    1.6880    0.7520 o         1 MYT     -0.524100
      9 C9          1.5390   -1.6430   -0.3980 c3        1 MYT     -0.087100
     10 C10         1.3260   -0.1720   -0.7310 c3        1 MYT     -0.086700
     11 C11         2.5950    0.3430   -1.4140 c3        1 MYT     -0.087100
     12 C12         0.1620    0.0610   -1.6490 ca        1 MYT     -0.199600
     13 C13        -0.2340    1.3910   -1.9380 ca        1 MYT      0.399200
     14 N14        -1.2360    1.7090   -2.7730 nb        1 MYT     -0.657000
     15 C15        -1.8970    0.6940   -3.3670 ca        1 MYT      0.395200
     16 C16        -1.5850   -0.6580   -3.1480 ca        1 MYT     -0.245300
     17 C17        -0.5390   -0.9740   -2.2770 ca        1 MYT     -0.092000
     18 H2         -1.2840   -0.7860    0.2270 h4        1 MYT      0.034100
     19 H4          1.4160    0.8310    3.2270 ha        1 MYT      0.156000
     20 H5         -0.1380   -0.1040    4.9910 ha        1 MYT      0.149000
     21 H6         -2.2120   -1.3470    4.2410 h4        1 MYT      0.026100
     22 H91         0.6140   -2.1010    0.0290 hc        1 MYT      0.047700
     23 H92         1.8290   -2.2050   -1.3180 hc        1 MYT      0.047700
     24 H93         2.3620   -1.7430    0.3500 hc        1 MYT      0.047700
     25 H111        2.5040    1.4360   -1.6240 hc        1 MYT      0.047700
     26 H112        3.4750    0.1830   -0.7460 hc        1 MYT      0.047700
     27 H113        2.7600   -0.2020   -2.3730 hc        1 MYT      0.047700
     28 H13         0.2910    2.2420   -1.4620 h4        1 MYT      0.037100
     29 H15        -2.7150    0.9870   -4.0490 h4        1 MYT      0.025100
     30 H16        -2.1530   -1.4500   -3.6550 ha        1 MYT      0.146000
     31 H17        -0.2780   -2.0270   -2.0980 ha        1 MYT      0.143000
@<TRIPOS>BOND
     1    1    2 ar  
     2    1    6 ar  
     3    2    3 ar  
     4    2   18 1   
     5    3    4 ar  
     6    3    7 1   
     7    4    5 ar  
     8    4   19 1   
     9    5    6 ar  
    10    5   20 1   
    11    6   21 1   
    12    7    8 2   
    13    7   10 1   
    14    9   10 1   
    15    9   22 1   
    16    9   23 1   
    17    9   24 1   
    18   10   11 1   
    19   10   12 1   
    20   11   25 1   
    21   11   26 1   
    22   11   27 1   
    23   12   13 ar  
    24   12   17 ar  
    25   13   14 ar  
    26   13   28 1   
    27   14   15 ar  
    28   15   16 ar  
    29   15   29 1   
    30   16   17 ar  
    31   16   30 1   
    32   17   31 1   
@<TRIPOS>SUBSTRUCTURE
     1 MYT         1 TEMP              0 ****  ****    0 ROOT
