@<TRIPOS>MOLECULE
MYU
   33    35     1     0     0
SMALL
bcc


@<TRIPOS>ATOM
      1 O20        -0.0260    0.9450    0.0450 o         1 MYU     -0.528100
      2 C11         1.1720    0.6340   -0.0150 c         1 MYU      0.581900
      3 C12         2.0000    0.6300    1.2100 cc        1 MYU     -0.058100
      4 O19         1.3970    1.0010    2.3910 oh        1 MYU     -0.486100
      5 C10         1.8930    0.2450   -1.2200 ca        1 MYU     -0.256600
      6 C13         1.2710    0.2010   -2.4900 ca        1 MYU      0.232100
      7 O21        -0.0480    0.5330   -2.5650 oh        1 MYU     -0.448100
      8 C9          3.2550   -0.1000   -1.1380 ca        1 MYU      0.200100
      9 C16         4.0060   -0.4790   -2.2620 ca        1 MYU     -0.261000
     10 C15         3.3680   -0.5180   -3.5030 ca        1 MYU      0.155100
     11 O22         4.0120   -0.8690   -4.6650 oh        1 MYU     -0.504100
     12 C14         2.0080   -0.1810   -3.6290 ca        1 MYU     -0.036900
     13 O23         1.3180   -0.2260   -4.8240 oh        1 MYU     -0.510100
     14 O8          3.9700   -0.0970    0.0410 os        1 MYU     -0.215200
     15 C7          3.3140    0.2770    1.2140 cd        1 MYU      0.129900
     16 C6          4.2230    0.2180    2.3560 ca        1 MYU     -0.049800
     17 C5          4.0200    1.0590    3.4570 ca        1 MYU     -0.091000
     18 C4          4.8950    0.9910    4.5480 ca        1 MYU      0.102100
     19 O17         4.6530    1.8410    5.6010 oh        1 MYU     -0.490100
     20 C3          5.9720    0.0790    4.5320 ca        1 MYU      0.055100
     21 O18         6.7860    0.0750    5.6460 oh        1 MYU     -0.514100
     22 C2          6.1710   -0.7560    3.4280 ca        1 MYU     -0.180000
     23 C1          5.3000   -0.6820    2.3460 ca        1 MYU     -0.097000
     24 HO19        0.4510    1.1360    2.2020 ho        1 MYU      0.446000
     25 HO21       -0.3300    0.4690   -3.4940 ho        1 MYU      0.446000
     26 H16         5.0680   -0.7360   -2.1540 ha        1 MYU      0.162000
     27 HO22        4.9410   -1.0470   -4.4530 ho        1 MYU      0.440000
     28 HO23        1.9720   -0.3120   -5.5350 ho        1 MYU      0.446000
     29 H5          3.1790    1.7720    3.4870 ha        1 MYU      0.179000
     30 HO17        5.3190    1.6670    6.2850 ho        1 MYU      0.437000
     31 HO18        7.4630   -0.6040    5.5160 ho        1 MYU      0.431000
     32 H2          7.0100   -1.4650    3.4190 ha        1 MYU      0.138000
     33 H1          5.4560   -1.3360    1.4740 ha        1 MYU      0.147000
@<TRIPOS>BOND
     1    1    2 2   
     2    2    3 1   
     3    2    5 1   
     4    3    4 1   
     5    3   15 2   
     6    4   24 1   
     7    5    6 ar  
     8    5    8 ar  
     9    6    7 1   
    10    6   12 ar  
    11    7   25 1   
    12    8    9 ar  
    13    8   14 1   
    14    9   10 ar  
    15    9   26 1   
    16   10   11 1   
    17   10   12 ar  
    18   11   27 1   
    19   12   13 1   
    20   13   28 1   
    21   14   15 1   
    22   15   16 1   
    23   16   17 ar  
    24   16   23 ar  
    25   17   18 ar  
    26   17   29 1   
    27   18   19 1   
    28   18   20 ar  
    29   19   30 1   
    30   20   21 1   
    31   20   22 ar  
    32   21   31 1   
    33   22   23 ar  
    34   22   32 1   
    35   23   33 1   
@<TRIPOS>SUBSTRUCTURE
     1 MYU         1 TEMP              0 ****  ****    0 ROOT
