@<TRIPOS>MOLECULE
MYU
   33    35     1     0     0
SMALL
bcc


@<TRIPOS>ATOM
      1 O20        -0.0270    0.9380    0.0410 o         1 MYU     -0.528100
      2 C11         1.1720    0.6300   -0.0170 c         1 MYU      0.581900
      3 C12         1.9970    0.6220    1.2100 cc        1 MYU     -0.058100
      4 O19         1.3900    0.9840    2.3920 oh        1 MYU     -0.486100
      5 C10         1.8970    0.2510   -1.2240 ca        1 MYU     -0.256600
      6 C13         1.2780    0.2120   -2.4950 ca        1 MYU      0.232100
      7 O21        -0.0420    0.5410   -2.5710 oh        1 MYU     -0.448100
      8 C9          3.2600   -0.0910   -1.1400 ca        1 MYU      0.200100
      9 C16         4.0140   -0.4610   -2.2640 ca        1 MYU     -0.261000
     10 C15         3.3800   -0.4940   -3.5070 ca        1 MYU      0.155100
     11 O22         4.0270   -0.8360   -4.6700 oh        1 MYU     -0.504100
     12 C14         2.0190   -0.1610   -3.6340 ca        1 MYU     -0.036900
     13 O23         1.3320   -0.2010   -4.8320 oh        1 MYU     -0.510100
     14 O8          3.9720   -0.0920    0.0410 os        1 MYU     -0.215200
     15 C7          3.3120    0.2730    1.2140 cd        1 MYU      0.129900
     16 C6          4.2190    0.2100    2.3580 ca        1 MYU     -0.049800
     17 C5          4.0100    1.0430    3.4640 ca        1 MYU     -0.091000
     18 C4          4.8830    0.9700    4.5570 ca        1 MYU      0.102100
     19 O17         4.6360    1.8140    5.6140 oh        1 MYU     -0.490100
     20 C3          5.9630    0.0620    4.5380 ca        1 MYU      0.055100
     21 O18         6.7740    0.0540    5.6530 oh        1 MYU     -0.514100
     22 C2          6.1670   -0.7650    3.4290 ca        1 MYU     -0.180000
     23 C1          5.2980   -0.6880    2.3450 ca        1 MYU     -0.097000
     24 HO19        0.4440    1.1170    2.2010 ho        1 MYU      0.446000
     25 HO21       -0.3210    0.4820   -3.5020 ho        1 MYU      0.446000
     26 H16         5.0770   -0.7150   -2.1550 ha        1 MYU      0.162000
     27 HO22        4.9560   -1.0130   -4.4570 ho        1 MYU      0.440000
     28 HO23        1.9870   -0.2810   -5.5420 ho        1 MYU      0.446000
     29 H5          3.1670    1.7530    3.4960 ha        1 MYU      0.179000
     30 HO17        5.3010    1.6370    6.2980 ho        1 MYU      0.437000
     31 HO18        7.4530   -0.6220    5.5210 ho        1 MYU      0.431000
     32 H2          7.0080   -1.4720    3.4170 ha        1 MYU      0.138000
     33 H1          5.4580   -1.3350    1.4700 ha        1 MYU      0.147000
@<TRIPOS>BOND
     1    1    2 2   
     2    2    3 1   
     3    2    5 1   
     4    3    4 1   
     5    3   15 2   
     6    4   24 1   
     7    5    6 ar  
     8    5    8 ar  
     9    6    7 1   
    10    6   12 ar  
    11    7   25 1   
    12    8    9 ar  
    13    8   14 1   
    14    9   10 ar  
    15    9   26 1   
    16   10   11 1   
    17   10   12 ar  
    18   11   27 1   
    19   12   13 1   
    20   13   28 1   
    21   14   15 1   
    22   15   16 1   
    23   16   17 ar  
    24   16   23 ar  
    25   17   18 ar  
    26   17   29 1   
    27   18   19 1   
    28   18   20 ar  
    29   19   30 1   
    30   20   21 1   
    31   20   22 ar  
    32   21   31 1   
    33   22   23 ar  
    34   22   32 1   
    35   23   33 1   
@<TRIPOS>SUBSTRUCTURE
     1 MYU         1 TEMP              0 ****  ****    0 ROOT
