@<TRIPOS>MOLECULE
MYU
   33    25     1     0     0
SMALL
bcc


@<TRIPOS>ATOM
      1 O20        -2.9840    1.2050    0.4800 o         1 MYU     -0.310000
      2 C11        -1.7700    1.2050    0.4800 c1        1 MYU      0.336000
      3 C12        -1.0830    1.2050    1.6700 c1        1 MYU     -0.018500
      4 O19        -1.7850    2.0340    2.5640 o         1 MYU     -0.242000
      5 C10        -1.0720    1.2050   -0.7260 c1        1 MYU     -0.276000
      6 C13        -1.7730    1.2050   -1.9480 c2        1 MYU      0.128000
      7 O21        -3.1800    1.2500   -1.9510 oh        1 MYU     -0.271000
      8 C9          0.3020    1.2050   -0.7240 c1        1 MYU      0.145000
      9 C16         1.0080    1.2050   -1.9420 c2        1 MYU     -0.263000
     10 C15         0.3160    1.2050   -3.1470 c1        1 MYU      0.145000
     11 O22         1.0200    1.1370   -4.3630 oh        1 MYU     -0.213000
     12 C14        -1.0760    1.2050   -3.1490 c1        1 MYU     -0.010000
     13 O23        -1.7770    1.1510   -4.3680 oh        1 MYU     -0.226000
     14 O8          0.9960    1.2050    0.4830 o         1 MYU     -0.115000
     15 C7          0.3090    1.2050    1.6710 c1        1 MYU     -0.018500
     16 C6          0.6040   -0.1500    1.7230 c1        1 MYU     -0.021500
     17 C5          1.9250   -0.5700    1.7400 c1        1 MYU     -0.095000
     18 C4          2.2210   -1.9230    1.7920 c1        1 MYU      0.063000
     19 O17         3.5620   -2.3500    1.7990 oh        1 MYU     -0.243000
     20 C3          1.1970   -2.8560    1.8280 c1        1 MYU     -0.021500
     21 O18         1.4970   -4.2310    1.8600 o         1 MYU     -0.242000
     22 C2         -0.1240   -2.4360    1.8120 c1        1 MYU     -0.144500
     23 C1         -0.4200   -1.0830    1.7590 c1        1 MYU     -0.144500
     24 HO19       -1.5840    1.8070    3.3980 ho        1 MYU      0.226500
     25 HO21       -3.4490    2.0400   -2.2530 ho        1 MYU      0.275000
     26 H16         1.9840    1.2260   -1.9410 ha        1 MYU      0.163000
     27 HO22        1.3850    1.9280   -4.5380 ho        1 MYU      0.224000
     28 HO23       -1.9080    0.3030   -4.5970 ho        1 MYU      0.236000
     29 H5          2.6460    0.0880    1.7560 ha        1 MYU      0.169000
     30 HO17        3.9250   -2.1730    2.5900 ho        1 MYU      0.239000
     31 HO18        1.2850   -4.5620    2.6550 ho        1 MYU      0.226500
     32 H2         -0.8460   -3.0930    1.8370 ha        1 MYU      0.149000
     33 H1         -1.3500   -0.7870    1.7480 ha        1 MYU      0.149000
@<TRIPOS>BOND
     1    1    2 1   
     2    2    5 1   
     3    3   15 1   
     4    4   24 1   
     5    5    6 1   
     6    6    7 1   
     7    6   12 1   
     8    7   25 1   
     9    8    9 1   
    10    8   14 1   
    11    9   10 1   
    12    9   26 1   
    13   10   11 1   
    14   11   27 1   
    15   12   13 1   
    16   13   28 1   
    17   16   23 1   
    18   17   18 1   
    19   17   29 1   
    20   18   19 1   
    21   19   30 1   
    22   20   22 1   
    23   21   31 1   
    24   22   32 1   
    25   23   33 1   
@<TRIPOS>SUBSTRUCTURE
     1 MYU         1 TEMP              0 ****  ****    0 ROOT
