@<TRIPOS>MOLECULE
MYU
   33    35     1     0     0
SMALL
bcc


@<TRIPOS>ATOM
      1 O20         3.0150   -1.8020    4.9960 o         1 MYU     -0.552100
      2 C11         1.9470   -2.1840    4.4920 c         1 MYU      0.614900
      3 C12         1.0360   -3.1160    5.1840 cc        1 MYU     -0.052100
      4 O19         1.4640   -3.4700    6.4420 oh        1 MYU     -0.464100
      5 C10         1.4770   -1.7660    3.1730 ca        1 MYU     -0.301600
      6 C13         2.2020   -0.8660    2.3580 ca        1 MYU      0.190100
      7 O21         3.3940   -0.2860    2.6930 oh        1 MYU     -0.518100
      8 C9          0.2610   -2.2690    2.6680 ca        1 MYU      0.188100
      9 C16        -0.2460   -1.9170    1.4100 ca        1 MYU     -0.210000
     10 C15         0.4900   -1.0260    0.6220 ca        1 MYU      0.202100
     11 O22        -0.0260   -0.6980   -0.6010 oh        1 MYU     -0.480100
     12 C14         1.7120   -0.4990    1.0920 ca        1 MYU     -0.031900
     13 O23         2.3670    0.3740    0.2470 oh        1 MYU     -0.515100
     14 O8         -0.5400   -3.1590    3.3610 os        1 MYU     -0.201200
     15 C7         -0.1390   -3.5310    4.6370 cd        1 MYU      0.095900
     16 C6         -1.1070   -4.4390    5.2520 ca        1 MYU     -0.070800
     17 C5         -1.7190   -5.4310    4.4750 ca        1 MYU     -0.094000
     18 C4         -2.6400   -6.3010    5.0690 ca        1 MYU      0.108100
     19 O17        -3.2040   -7.2640    4.2680 oh        1 MYU     -0.488100
     20 C3         -2.9490   -6.1670    6.4410 ca        1 MYU      0.061100
     21 O18        -3.8610   -7.0660    6.9490 oh        1 MYU     -0.511100
     22 C2         -2.3430   -5.1650    7.2050 ca        1 MYU     -0.174000
     23 C1         -1.4270   -4.3030    6.6090 ca        1 MYU     -0.115000
     24 HO19        1.0760   -4.3340    6.6540 ho        1 MYU      0.420000
     25 HO21        3.6760   -0.5800    3.5770 ho        1 MYU      0.477000
     26 H16        -1.1980   -2.3290    1.0490 ha        1 MYU      0.179000
     27 HO22        0.5840   -0.0760   -1.0330 ho        1 MYU      0.449000
     28 HO23        3.1850    0.6560    0.6860 ho        1 MYU      0.451000
     29 H5         -1.4890   -5.5300    3.4030 ha        1 MYU      0.170000
     30 HO17       -3.8320   -7.7720    4.8050 ho        1 MYU      0.440000
     31 HO18       -4.0130   -6.8450    7.8790 ho        1 MYU      0.435000
     32 H2         -2.5930   -5.0570    8.2710 ha        1 MYU      0.144000
     33 H1         -0.9650   -3.4990    7.2060 ha        1 MYU      0.154000
@<TRIPOS>BOND
     1    1    2 2   
     2    2    3 1   
     3    2    5 1   
     4    3    4 1   
     5    3   15 2   
     6    4   24 1   
     7    5    6 ar  
     8    5    8 ar  
     9    6    7 1   
    10    6   12 ar  
    11    7   25 1   
    12    8    9 ar  
    13    8   14 1   
    14    9   10 ar  
    15    9   26 1   
    16   10   11 1   
    17   10   12 ar  
    18   11   27 1   
    19   12   13 1   
    20   13   28 1   
    21   14   15 1   
    22   15   16 1   
    23   16   17 ar  
    24   16   23 ar  
    25   17   18 ar  
    26   17   29 1   
    27   18   19 1   
    28   18   20 ar  
    29   19   30 1   
    30   20   21 1   
    31   20   22 ar  
    32   21   31 1   
    33   22   23 ar  
    34   22   32 1   
    35   23   33 1   
@<TRIPOS>SUBSTRUCTURE
     1 MYU         1 TEMP              0 ****  ****    0 ROOT
