@<TRIPOS>MOLECULE
MYX
   67    68     1     0     0
SMALL
bcc


@<TRIPOS>ATOM
      1 O1          0.8190    1.7150    0.2820 o         1 MYX     -0.482100
      2 C1          1.8890    1.6860   -0.3190 c         1 MYX      0.594300
      3 N1          2.9140    2.6610    0.2830 nz        1 MYX     -0.763400
      4 C2          2.3710    0.9460   -1.4310 ce        1 MYX     -0.494200
      5 C3          1.5960    0.0070   -2.0930 c2        1 MYX      0.345900
      6 O2          2.0610   -0.7160   -3.1250 os        1 MYX     -0.251900
      7 C4          3.3750   -0.4600   -3.6380 c3        1 MYX      0.094700
      8 C5          0.1740   -0.3490   -1.7450 c3        1 MYX     -0.053500
      9 C6         -0.1930   -1.7380   -2.2250 c3        1 MYX     -0.095100
     10 C7         -0.7770    0.7280   -2.3230 c3        1 MYX      0.192300
     11 O3         -0.3910    0.9020   -3.6880 os        1 MYX     -0.438600
     12 C8         -1.2120    1.8180   -4.4010 c3        1 MYX      0.115700
     13 C9         -2.1980    0.2970   -2.1830 c2        1 MYX     -0.215200
     14 C10        -2.9820    0.7150   -1.1810 ce        1 MYX     -0.156800
     15 C11        -4.3650    0.3180   -0.9960 cc        1 MYX      0.359100
     16 C12        -5.1690    0.8200    0.0360 cd        1 MYX     -0.283400
     17 N2         -5.0060   -0.5940   -1.8290 nc        1 MYX     -0.630000
     18 C13        -6.2710   -0.7560   -1.4090 cd        1 MYX      0.359400
     19 C14        -7.2370   -1.6330   -2.0400 cd        1 MYX      0.275300
     20 C15        -6.9980   -2.4180   -3.1670 cc        1 MYX     -0.218400
     21 N3         -8.5310   -1.7380   -1.5180 nd        1 MYX     -0.639000
     22 C16        -9.2350   -2.5940   -2.2580 cc        1 MYX      0.412700
     23 C17       -10.6610   -2.9680   -2.0020 c3        1 MYX     -0.053800
     24 C18       -11.5630   -1.7480   -2.0790 c3        1 MYX     -0.084100
     25 C19       -11.0990   -3.9960   -2.9970 c2        1 MYX     -0.219300
     26 C20       -11.4450   -5.2100   -2.6740 c1        1 MYX     -0.024800
     27 C21       -11.7790   -6.4330   -2.3740 c2        1 MYX     -0.164300
     28 C22       -13.1640   -6.8590   -2.0470 c3        1 MYX     -0.041200
     29 C23       -13.1910   -7.9840   -1.0190 c3        1 MYX     -0.065700
     30 C24       -12.6780   -7.5070    0.3230 c3        1 MYX     -0.091600
     31 C25       -14.5990   -8.5260   -0.8860 c3        1 MYX     -0.091600
     32 S1         -6.6890    0.1760   -0.0270 ss        1 MYX      0.062700
     33 S2         -8.3570   -3.2800   -3.5800 ss        1 MYX     -0.041300
     34 HN11        3.7400    2.1480    0.5950 hn        1 MYX      0.458800
     35 HN12        3.1940    3.3460   -0.4200 hn        1 MYX      0.458800
     36 H2          3.3980    1.1350   -1.7800 ha        1 MYX      0.160000
     37 H41         3.4440   -1.1770   -4.4980 h1        1 MYX      0.073700
     38 H42         4.1430   -0.6940   -2.8610 h1        1 MYX      0.073700
     39 H43         3.4540    0.5950   -3.9920 h1        1 MYX      0.073700
     40 H5          0.0740   -0.3030   -0.6210 hc        1 MYX      0.098700
     41 H61        -1.1940   -2.0240   -1.8190 hc        1 MYX      0.064700
     42 H62        -0.2370   -1.7600   -3.3420 hc        1 MYX      0.064700
     43 H63         0.5640   -2.4820   -1.8790 hc        1 MYX      0.064700
     44 H7         -0.5950    1.6990   -1.7760 h1        1 MYX      0.036700
     45 H81        -0.7780    1.8240   -5.4320 h1        1 MYX      0.046700
     46 H82        -2.2730    1.4680   -4.4220 h1        1 MYX      0.046700
     47 H83        -1.1500    2.8340   -3.9390 h1        1 MYX      0.046700
     48 H9         -2.5540   -0.3940   -2.9660 ha        1 MYX      0.166000
     49 H10        -2.6070    1.4130   -0.4110 ha        1 MYX      0.124000
     50 H12        -4.8340    1.5410    0.7790 h4        1 MYX      0.181000
     51 H15        -6.0490   -2.4580   -3.7010 h4        1 MYX      0.195000
     52 H17       -10.7260   -3.3950   -0.9580 hc        1 MYX      0.086700
     53 H181      -11.2640   -0.9970   -1.3100 hc        1 MYX      0.047367
     54 H182      -11.5010   -1.2720   -3.0870 hc        1 MYX      0.047367
     55 H183      -12.6210   -2.0530   -1.8940 hc        1 MYX      0.047367
     56 H19       -11.1500   -3.6520   -4.0460 ha        1 MYX      0.143000
     57 H20       -11.0140   -7.2320   -2.3690 ha        1 MYX      0.144000
     58 H21       -13.6540   -7.2170   -2.9940 hc        1 MYX      0.056700
     59 H22       -13.7670   -5.9920   -1.6660 hc        1 MYX      0.056700
     60 H23       -12.5220   -8.8150   -1.3820 hc        1 MYX      0.046700
     61 H241      -11.6430   -7.1010    0.2190 hc        1 MYX      0.036700
     62 H242      -12.6600   -8.3520    1.0520 hc        1 MYX      0.036700
     63 H243      -13.3350   -6.7020    0.7320 hc        1 MYX      0.036700
     64 H251      -14.6240   -9.3530   -0.1360 hc        1 MYX      0.036700
     65 H252      -15.2990   -7.7240   -0.5500 hc        1 MYX      0.036700
     66 H253      -14.9590   -8.9240   -1.8650 hc        1 MYX      0.036700
     67 H13         2.4930    3.1460    1.0830 hn        1 MYX      0.458800
@<TRIPOS>BOND
     1    1    2 2   
     2    2    3 1   
     3    2    4 1   
     4    3   34 1   
     5    3   35 1   
     6    3   67 1   
     7    4    5 2   
     8    4   36 1   
     9    5    6 1   
    10    5    8 1   
    11    6    7 1   
    12    7   37 1   
    13    7   38 1   
    14    7   39 1   
    15    8    9 1   
    16    8   10 1   
    17    8   40 1   
    18    9   41 1   
    19    9   42 1   
    20    9   43 1   
    21   10   11 1   
    22   10   13 1   
    23   10   44 1   
    24   11   12 1   
    25   12   45 1   
    26   12   46 1   
    27   12   47 1   
    28   13   14 2   
    29   13   48 1   
    30   14   15 1   
    31   14   49 1   
    32   15   16 2   
    33   15   17 1   
    34   16   32 1   
    35   16   50 1   
    36   17   18 2   
    37   18   19 1   
    38   18   32 1   
    39   19   20 2   
    40   19   21 1   
    41   20   33 1   
    42   20   51 1   
    43   21   22 2   
    44   22   23 1   
    45   22   33 1   
    46   23   24 1   
    47   23   25 1   
    48   23   52 1   
    49   24   53 1   
    50   24   54 1   
    51   24   55 1   
    52   25   26 2   
    53   25   56 1   
    54   26   27 2   
    55   27   28 1   
    56   27   57 1   
    57   28   29 1   
    58   28   58 1   
    59   28   59 1   
    60   29   30 1   
    61   29   31 1   
    62   29   60 1   
    63   30   61 1   
    64   30   62 1   
    65   30   63 1   
    66   31   64 1   
    67   31   65 1   
    68   31   66 1   
@<TRIPOS>SUBSTRUCTURE
     1 MYX         1 TEMP              0 ****  ****    0 ROOT
