@<TRIPOS>MOLECULE
MYX
   67    68     1     0     0
SMALL
bcc


@<TRIPOS>ATOM
      1 O1          1.4510   -2.1360   -0.1570 o         1 MYX     -0.417100
      2 C1          1.5520   -1.0240   -0.6460 c         1 MYX      0.625300
      3 N1          1.7640    0.0930    0.3780 n4        1 MYX     -0.771400
      4 C2          1.5280   -0.5440   -2.0110 ce        1 MYX     -0.480200
      5 C3          0.3910   -0.5680   -2.7640 c2        1 MYX      0.273900
      6 O2          0.3530   -0.2030   -4.0680 os        1 MYX     -0.277900
      7 C4          1.5840    0.1530   -4.7080 c3        1 MYX      0.096700
      8 C5         -0.9560   -0.9950   -2.2410 c3        1 MYX     -0.046500
      9 C6         -1.8170   -1.5990   -3.3320 c3        1 MYX     -0.088100
     10 C7         -1.7080    0.1640   -1.5570 c3        1 MYX      0.194300
     11 O3         -1.0280    0.3880   -0.3000 os        1 MYX     -0.515600
     12 C8         -1.8310    1.0950    0.6370 c3        1 MYX      0.117700
     13 C9         -1.6970    1.4200   -2.3540 c2        1 MYX     -0.228200
     14 C10        -2.7100    1.9900   -3.0150 ce        1 MYX     -0.131800
     15 C11        -4.0890    1.5600   -3.1430 cc        1 MYX      0.348100
     16 C12        -5.0970    2.4340   -3.5840 cd        1 MYX     -0.280400
     17 N2         -4.5350    0.2730   -2.8720 nc        1 MYX     -0.651000
     18 C13        -5.8560    0.2050   -3.1100 cd        1 MYX      0.349400
     19 C14        -6.6580   -0.9900   -2.9420 cd        1 MYX      0.277300
     20 C15        -6.1670   -2.2580   -2.6340 cc        1 MYX     -0.229400
     21 N3         -8.0470   -0.9240   -3.0980 nd        1 MYX     -0.639000
     22 C16        -8.5680   -2.1340   -2.9060 cc        1 MYX      0.418700
     23 C17       -10.0270   -2.4590   -2.9840 c3        1 MYX     -0.061800
     24 C18       -10.5690   -2.1710   -4.3740 c3        1 MYX     -0.084100
     25 C19       -10.2450   -3.8930   -2.6300 c2        1 MYX     -0.213200
     26 C20       -10.9680   -4.2840   -1.5710 ce        1 MYX     -0.088000
     27 C21       -11.2060   -5.6760   -1.2500 ce        1 MYX     -0.166000
     28 C22       -11.9350   -6.0630   -0.1930 c2        1 MYX     -0.122200
     29 C23       -12.1960   -7.4890    0.1500 c3        1 MYX     -0.043500
     30 C24       -11.6430   -7.8040    1.5280 c3        1 MYX     -0.088600
     31 C25       -13.6860   -7.7720    0.1010 c3        1 MYX     -0.088600
     32 S1         -6.5580    1.6740   -3.6510 ss        1 MYX      0.097700
     33 S2         -7.4070   -3.3600   -2.5350 ss        1 MYX     -0.033300
     34 HN11        2.5700    0.6610    0.1200 hn        1 MYX      0.463800
     35 HN12        1.8960   -0.2940    1.3150 hn        1 MYX      0.463800
     36 H2          2.4950   -0.2040   -2.4090 ha        1 MYX      0.182000
     37 H41         2.0080    1.0750   -4.2410 h1        1 MYX      0.068367
     38 H42         1.2670    0.3500   -5.7650 h1        1 MYX      0.068367
     39 H43         2.3080   -0.6950   -4.6590 h1        1 MYX      0.068367
     40 H5         -0.7640   -1.7830   -1.4530 hc        1 MYX      0.083700
     41 H61        -2.0870   -0.8250   -4.0910 hc        1 MYX      0.063700
     42 H62        -2.7590   -2.0060   -2.8900 hc        1 MYX      0.063700
     43 H63        -1.2660   -2.4250   -3.8430 hc        1 MYX      0.063700
     44 H7         -2.7530   -0.1930   -1.3270 h1        1 MYX      0.108700
     45 H81        -2.7410    0.4980    0.8970 h1        1 MYX      0.047033
     46 H82        -1.1760    1.2180    1.5350 h1        1 MYX      0.047033
     47 H83        -2.1270    2.0900    0.2220 h1        1 MYX      0.047033
     48 H9         -0.7090    1.9150   -2.3740 ha        1 MYX      0.115000
     49 H10        -2.5130    2.9400   -3.5520 ha        1 MYX      0.137000
     50 H12        -4.9290    3.4780   -3.8460 h4        1 MYX      0.188000
     51 H15        -5.1140   -2.4910   -2.4820 h4        1 MYX      0.185000
     52 H17       -10.5700   -1.7950   -2.2460 hc        1 MYX      0.081700
     53 H181      -10.4460   -1.0890   -4.6210 hc        1 MYX      0.048367
     54 H182      -11.6560   -2.4270   -4.4110 hc        1 MYX      0.048367
     55 H183      -10.0350   -2.7780   -5.1420 hc        1 MYX      0.048367
     56 H19        -9.8010   -4.6230   -3.3270 ha        1 MYX      0.131000
     57 H20       -11.4220   -3.5410   -0.8900 ha        1 MYX      0.126000
     58 H21       -10.7570   -6.4200   -1.9310 ha        1 MYX      0.127000
     59 H22       -12.3920   -5.3280    0.4910 ha        1 MYX      0.125000
     60 H23       -11.6840   -8.1590   -0.5990 hc        1 MYX      0.052700
     61 H241      -12.1340   -7.1690    2.3030 hc        1 MYX      0.038700
     62 H242      -10.5430   -7.6180    1.5580 hc        1 MYX      0.038700
     63 H243      -11.8310   -8.8760    1.7770 hc        1 MYX      0.038700
     64 H251      -14.2320   -7.1350    0.8380 hc        1 MYX      0.038700
     65 H252      -14.0890   -7.5610   -0.9180 hc        1 MYX      0.038700
     66 H253      -13.8790   -8.8440    0.3470 hc        1 MYX      0.038700
     67 H13         0.9190    0.6840    0.3680 hn        1 MYX      0.463800
@<TRIPOS>BOND
     1    1    2 2   
     2    2    3 1   
     3    2    4 1   
     4    3   34 1   
     5    3   35 1   
     6    3   67 1   
     7    4    5 2   
     8    4   36 1   
     9    5    6 1   
    10    5    8 1   
    11    6    7 1   
    12    7   37 1   
    13    7   38 1   
    14    7   39 1   
    15    8    9 1   
    16    8   10 1   
    17    8   40 1   
    18    9   41 1   
    19    9   42 1   
    20    9   43 1   
    21   10   11 1   
    22   10   13 1   
    23   10   44 1   
    24   11   12 1   
    25   12   45 1   
    26   12   46 1   
    27   12   47 1   
    28   13   14 2   
    29   13   48 1   
    30   14   15 1   
    31   14   49 1   
    32   15   16 2   
    33   15   17 1   
    34   16   32 1   
    35   16   50 1   
    36   17   18 2   
    37   18   19 1   
    38   18   32 1   
    39   19   20 2   
    40   19   21 1   
    41   20   33 1   
    42   20   51 1   
    43   21   22 2   
    44   22   23 1   
    45   22   33 1   
    46   23   24 1   
    47   23   25 1   
    48   23   52 1   
    49   24   53 1   
    50   24   54 1   
    51   24   55 1   
    52   25   26 2   
    53   25   56 1   
    54   26   27 1   
    55   26   57 1   
    56   27   28 2   
    57   27   58 1   
    58   28   29 1   
    59   28   59 1   
    60   29   30 1   
    61   29   31 1   
    62   29   60 1   
    63   30   61 1   
    64   30   62 1   
    65   30   63 1   
    66   31   64 1   
    67   31   65 1   
    68   31   66 1   
@<TRIPOS>SUBSTRUCTURE
     1 MYX         1 TEMP              0 ****  ****    0 ROOT
