@<TRIPOS>MOLECULE
MYX
   66    59     1     0     0
SMALL
bcc


@<TRIPOS>ATOM
      1 O1         -1.2200   -2.2030    9.5920 o         1 MYX     -0.386000
      2 C1         -2.2120   -1.7970    9.0170 c1        1 MYX      0.354000
      3 N1         -3.4430   -1.6380    9.7370 n2        1 MYX     -0.437000
      4 C2         -2.1200   -1.3570    7.5440 c2        1 MYX     -0.340000
      5 C3         -1.3880   -2.1060    6.6450 c1        1 MYX      0.123000
      6 O2         -0.7230   -3.2760    7.0760 o         1 MYX     -0.215000
      7 C4         -1.5870   -4.3800    7.2930 c3        1 MYX     -0.089000
      8 C5         -1.2940   -1.6680    5.1730 c3        1 MYX     -0.065000
      9 C6         -2.0940   -2.6070    4.3210 c3        1 MYX     -0.206000
     10 C7          0.1510   -1.6930    4.7310 c3        1 MYX      0.065000
     11 O3          0.2130   -1.8440    3.3380 os        1 MYX     -0.272000
     12 C8          1.1870   -2.8180    2.8970 c3        1 MYX     -0.073000
     13 C9          0.8300   -0.3850    5.1310 c2        1 MYX     -0.180000
     14 C10         0.8190    0.6880    4.2700 c1        1 MYX     -0.072000
     15 C11         0.1290    0.5730    2.9170 c1        1 MYX     -0.038000
     16 C12        -1.2150    1.0160    2.6160 c1        1 MYX     -0.486000
     17 N2          0.8250    0.1570    1.5650 n2        1 MYX     -0.097000
     18 C13        -0.1050    0.3570    0.4970 c2        1 MYX     -0.227000
     19 C14         0.1580    0.1760   -0.8720 c2        1 MYX     -0.035000
     20 C15        -0.3180   -0.9120   -1.6820 c1        1 MYX     -0.419000
     21 N3          0.9340    1.1860   -1.8040 n2        1 MYX     -0.111000
     22 C16         0.9040    0.6800   -3.1420 c1        1 MYX     -0.264000
     23 C17         1.5760    1.3210   -4.3620 c2        1 MYX     -0.012000
     24 C18         3.0470    1.0390   -4.3300 c3        1 MYX     -0.201000
     25 C19         0.9820    0.7450   -5.6330 c2        1 MYX     -0.187000
     26 C20         0.6750    1.5850   -6.7050 c1        1 MYX     -0.103000
     27 C21         0.9380    3.0890   -6.5990 c1        1 MYX     -0.143000
     28 C22         1.0590    3.8530   -7.7480 c1        1 MYX     -0.143000
     29 C23         0.9300    3.1950   -9.1190 c2        1 MYX     -0.086000
     30 C24        -0.3240    3.7100   -9.8140 c3        1 MYX     -0.205500
     31 C25         2.1500    3.5310   -9.9590 c3        1 MYX     -0.205500
     32 S1         -1.4190    0.9030    1.1070 ss        1 MYX      0.588000
     33 S2          0.1230   -0.6500   -3.1290 ss        1 MYX      0.508000
     34 HN11       -3.4710   -1.8020   10.6360 hn        1 MYX      0.223000
     35 HN12       -4.1870   -1.3310    9.3070 hn        1 MYX      0.223000
     36 H2         -2.5820   -0.5440    7.2450 ha        1 MYX      0.151000
     37 H41        -1.4200   -4.7570    8.1850 h1        1 MYX      0.096333
     38 H42        -1.4170   -5.0700    6.6070 h1        1 MYX      0.096333
     39 H43        -2.5210   -4.0820    7.2330 h1        1 MYX      0.096333
     40 H5         -1.6430   -0.7740    5.0810 hc        1 MYX      0.117000
     41 H61        -2.9500   -2.7940    4.7560 hc        1 MYX      0.086667
     42 H62        -1.6000   -3.4400    4.2040 hc        1 MYX      0.086667
     43 H63        -2.2540   -2.1990    3.4500 hc        1 MYX      0.086667
     44 H7          0.6120   -2.4480    5.1630 h1        1 MYX      0.096000
     45 H81         1.3180   -3.5010    3.6060 h1        1 MYX      0.076333
     46 H82         0.8660   -3.2560    2.0740 h1        1 MYX      0.076333
     47 H83         2.0400   -2.3690    2.7170 h1        1 MYX      0.076333
     48 H9          1.2720   -0.3110    5.9960 ha        1 MYX      0.132000
     49 H10         1.2560    1.5290    4.5270 ha        1 MYX      0.138000
     50 H12        -1.8810    1.3350    3.2700 DU        1 MYX      0.188000
     51 H15        -0.8280   -1.6770   -1.3690 DU        1 MYX      0.188000
     52 H17         1.4320    2.2760   -4.3440 ha        1 MYX      0.122000
     53 H181        3.1920    0.0790   -4.3440 hc        1 MYX      0.084333
     54 H182        3.4760    1.4460   -5.1130 hc        1 MYX      0.084333
     55 H183        3.4340    1.4150   -3.5130 hc        1 MYX      0.084333
     56 H19         0.8120   -0.2240   -5.7020 ha        1 MYX      0.127000
     57 H20         0.2950    1.2160   -7.5170 ha        1 MYX      0.126000
     58 H21         1.0200    3.5120   -5.7190 ha        1 MYX      0.125500
     59 H22         1.2230    4.7970   -7.6830 ha        1 MYX      0.125500
     60 H23         0.8670    2.2210   -9.0090 ha        1 MYX      0.091000
     61 H241       -1.0970    3.5330   -9.2590 hc        1 MYX      0.075833
     62 H242       -0.2410    4.6850   -9.9640 hc        1 MYX      0.075833
     63 H243       -0.4290    3.2580  -10.6710 hc        1 MYX      0.075833
     64 H251        2.9640    3.3940   -9.4260 hc        1 MYX      0.075833
     65 H252        2.1020    4.4600  -10.2430 hc        1 MYX      0.075833
     66 H253        2.1730    2.9500  -10.7470 hc        1 MYX      0.075833
@<TRIPOS>BOND
     1    1    2 1   
     2    2    4 1   
     3    3   34 1   
     4    3   35 1   
     5    4    5 1   
     6    4   36 1   
     7    5    8 1   
     8    6    7 1   
     9    7   37 1   
    10    7   38 1   
    11    7   39 1   
    12    8    9 1   
    13    8   10 1   
    14    8   40 1   
    15    9   41 1   
    16    9   42 1   
    17    9   43 1   
    18   10   11 1   
    19   10   13 1   
    20   10   44 1   
    21   11   12 1   
    22   12   45 1   
    23   12   46 1   
    24   12   47 1   
    25   13   14 1   
    26   13   48 1   
    27   14   49 1   
    28   15   16 1   
    29   15   17 1   
    30   16   32 1   
    31   17   18 1   
    32   18   19 1   
    33   18   32 1   
    34   19   20 1   
    35   19   21 1   
    36   20   33 1   
    37   21   22 1   
    38   22   33 1   
    39   23   24 1   
    40   23   25 1   
    41   23   52 1   
    42   24   53 1   
    43   24   54 1   
    44   24   55 1   
    45   25   26 1   
    46   25   56 1   
    47   26   57 1   
    48   27   28 1   
    49   27   58 1   
    50   28   59 1   
    51   29   30 1   
    52   29   31 1   
    53   29   60 1   
    54   30   61 1   
    55   30   62 1   
    56   30   63 1   
    57   31   64 1   
    58   31   65 1   
    59   31   66 1   
@<TRIPOS>SUBSTRUCTURE
     1 MYX         1 TEMP              0 ****  ****    0 ROOT
