@<TRIPOS>MOLECULE
MYX
   66    67     1     0     0
SMALL
bcc


@<TRIPOS>ATOM
      1 O1         -5.4760    1.5560    1.9080 o         1 MYX     -0.655100
      2 C1         -6.6350    1.9460    1.6300 c         1 MYX      0.690300
      3 N1         -7.3530    2.6000    2.6080 n         1 MYX     -0.678000
      4 C2         -7.2900    1.7430    0.3280 ce        1 MYX     -0.389200
      5 C3         -6.6460    1.3330   -0.7910 c2        1 MYX      0.202900
      6 O2         -7.2740    1.1770   -2.0030 os        1 MYX     -0.309900
      7 C4         -8.6870    1.3470   -2.0430 c3        1 MYX      0.106700
      8 C5         -5.1770    1.0240   -0.9020 c3        1 MYX     -0.023500
      9 C6         -4.6500    1.2150   -2.3080 c3        1 MYX     -0.083100
     10 C7         -4.8910   -0.3960   -0.3750 c3        1 MYX      0.175300
     11 O3         -5.4150   -1.3220   -1.3340 os        1 MYX     -0.418600
     12 C8         -5.4670   -2.6510   -0.8440 c3        1 MYX      0.115700
     13 C9         -3.4200   -0.5970   -0.1880 c2        1 MYX     -0.172200
     14 C10        -2.7770   -0.1020    0.8780 ce        1 MYX     -0.209800
     15 C11        -1.3560   -0.2500    1.1330 cc        1 MYX      0.394100
     16 C12        -0.7280    0.3080    2.2540 cd        1 MYX     -0.279400
     17 N2         -0.4980   -0.9580    0.2950 nc        1 MYX     -0.628000
     18 C13         0.7450   -0.9160    0.7970 cd        1 MYX      0.347400
     19 C14         1.8920   -1.5490    0.1750 cd        1 MYX      0.293300
     20 C15         1.8610   -2.2490   -1.0290 cc        1 MYX     -0.205400
     21 N3          3.1510   -1.4880    0.7820 nd        1 MYX     -0.632000
     22 C16         4.0380   -2.1370    0.0320 cc        1 MYX      0.413700
     23 C17         5.4940   -2.2610    0.3630 c3        1 MYX     -0.064800
     24 C18         5.9970   -3.6570    0.0390 c3        1 MYX     -0.096100
     25 C19         6.2720   -1.2370   -0.3970 c2        1 MYX     -0.172200
     26 C20         6.7960   -0.1450    0.1750 ce        1 MYX     -0.110000
     27 C21         7.5590    0.8410   -0.5640 ce        1 MYX     -0.147000
     28 C22         8.0750    1.9380    0.0060 c2        1 MYX     -0.141200
     29 C23         8.8600    2.9620   -0.7380 c3        1 MYX     -0.040500
     30 C24         8.1590    4.3060   -0.6720 c3        1 MYX     -0.088100
     31 C25        10.2600    3.0680   -0.1630 c3        1 MYX     -0.088100
     32 S1          0.8930   -0.0360    2.2670 ss        1 MYX      0.004700
     33 S2          3.3740   -2.8300   -1.4120 ss        1 MYX     -0.093300
     34 HN11       -6.9340    2.7630    3.4880 hn        1 MYX      0.309000
     35 HN12       -8.2520    2.9630    2.4300 hn        1 MYX      0.309000
     36 H2         -8.3710    1.9470    0.2990 ha        1 MYX      0.134000
     37 H41        -9.1910    0.6330   -1.3470 h1        1 MYX      0.047700
     38 H42        -8.9620    2.4010   -1.7960 h1        1 MYX      0.047700
     39 H43        -8.9440    1.1100   -3.1070 h1        1 MYX      0.047700
     40 H5         -4.6390    1.7300   -0.1990 hc        1 MYX      0.100700
     41 H61        -4.8620    2.2510   -2.6630 hc        1 MYX      0.047700
     42 H62        -3.5470    1.0400   -2.3180 hc        1 MYX      0.047700
     43 H63        -5.1350    0.4890   -3.0060 hc        1 MYX      0.047700
     44 H7         -5.4280   -0.5290    0.6100 h1        1 MYX      0.066700
     45 H81        -4.4480   -3.0080   -0.5550 h1        1 MYX      0.033700
     46 H82        -6.1570   -2.7200    0.0340 h1        1 MYX      0.033700
     47 H83        -5.8640   -3.2470   -1.7020 h1        1 MYX      0.033700
     48 H9         -2.9150   -1.1710   -0.9820 ha        1 MYX      0.148000
     49 H10        -3.3250    0.4770    1.6470 ha        1 MYX      0.157000
     50 H12        -1.2440    0.8930    3.0140 h4        1 MYX      0.185000
     51 H15         0.9670   -2.3970   -1.6350 h4        1 MYX      0.200000
     52 H17         5.6290   -2.0870    1.4720 hc        1 MYX      0.084700
     53 H181        5.8210   -3.9040   -1.0370 hc        1 MYX      0.044367
     54 H182        7.0930   -3.7190    0.2420 hc        1 MYX      0.044367
     55 H183        5.4720   -4.4140    0.6710 hc        1 MYX      0.044367
     56 H19         6.3940   -1.4420   -1.4720 ha        1 MYX      0.125000
     57 H20         6.6580    0.0510    1.2530 ha        1 MYX      0.128000
     58 H21         7.6980    0.6440   -1.6410 ha        1 MYX      0.124000
     59 H22         7.9410    2.1450    1.0810 ha        1 MYX      0.124000
     60 H23         8.9440    2.6600   -1.8220 hc        1 MYX      0.050700
     61 H241        8.0640    4.6490    0.3860 hc        1 MYX      0.036367
     62 H242        8.7420    5.0700   -1.2410 hc        1 MYX      0.036367
     63 H243        7.1370    4.2340   -1.1150 hc        1 MYX      0.036367
     64 H251       10.7840    2.0850   -0.2320 hc        1 MYX      0.036367
     65 H252       10.8500    3.8280   -0.7300 hc        1 MYX      0.036367
     66 H253       10.2230    3.3760    0.9090 hc        1 MYX      0.036367
@<TRIPOS>BOND
     1    1    2 2   
     2    2    3 1   
     3    2    4 1   
     4    3   34 1   
     5    3   35 1   
     6    4    5 2   
     7    4   36 1   
     8    5    6 1   
     9    5    8 1   
    10    6    7 1   
    11    7   37 1   
    12    7   38 1   
    13    7   39 1   
    14    8    9 1   
    15    8   10 1   
    16    8   40 1   
    17    9   41 1   
    18    9   42 1   
    19    9   43 1   
    20   10   11 1   
    21   10   13 1   
    22   10   44 1   
    23   11   12 1   
    24   12   45 1   
    25   12   46 1   
    26   12   47 1   
    27   13   14 2   
    28   13   48 1   
    29   14   15 1   
    30   14   49 1   
    31   15   16 2   
    32   15   17 1   
    33   16   32 1   
    34   16   50 1   
    35   17   18 2   
    36   18   19 1   
    37   18   32 1   
    38   19   20 2   
    39   19   21 1   
    40   20   33 1   
    41   20   51 1   
    42   21   22 2   
    43   22   23 1   
    44   22   33 1   
    45   23   24 1   
    46   23   25 1   
    47   23   52 1   
    48   24   53 1   
    49   24   54 1   
    50   24   55 1   
    51   25   26 2   
    52   25   56 1   
    53   26   27 1   
    54   26   57 1   
    55   27   28 2   
    56   27   58 1   
    57   28   29 1   
    58   28   59 1   
    59   29   30 1   
    60   29   31 1   
    61   29   60 1   
    62   30   61 1   
    63   30   62 1   
    64   30   63 1   
    65   31   64 1   
    66   31   65 1   
    67   31   66 1   
@<TRIPOS>SUBSTRUCTURE
     1 MYX         1 TEMP              0 ****  ****    0 ROOT
