@<TRIPOS>MOLECULE
MYX
   67    68     1     0     0
SMALL
bcc


@<TRIPOS>ATOM
      1 O1          0.8010    0.5520    0.3480 o         1 MYX     -0.483100
      2 C1          1.8270    0.6250   -0.3230 c         1 MYX      0.594300
      3 N1          2.9850    1.2610    0.4640 n4        1 MYX     -0.763400
      4 C2          2.1610    0.2450   -1.6490 ce        1 MYX     -0.494200
      5 C3          1.2520   -0.3590   -2.5030 c2        1 MYX      0.345900
      6 O2          1.5760   -0.7490   -3.7460 os        1 MYX     -0.251900
      7 C4          2.8810   -0.4580   -4.2660 c3        1 MYX      0.094700
      8 C5         -0.1790   -0.6820   -2.1620 c3        1 MYX     -0.053500
      9 C6         -0.7240   -1.8050   -3.0210 c3        1 MYX     -0.095100
     10 C7         -1.0360    0.6020   -2.2840 c3        1 MYX      0.192300
     11 O3         -0.7090    1.1730   -3.5540 os        1 MYX     -0.438600
     12 C8         -1.4600    2.3380   -3.8650 c3        1 MYX      0.115700
     13 C9         -2.4860    0.2750   -2.1640 c2        1 MYX     -0.215200
     14 C10        -3.1620    0.4120   -1.0160 ce        1 MYX     -0.156800
     15 C11        -4.5680    0.0990   -0.8460 cc        1 MYX      0.359100
     16 C12        -5.2520    0.3020    0.3610 cd        1 MYX     -0.283400
     17 N2         -5.3540   -0.4290   -1.8670 nc        1 MYX     -0.629000
     18 C13        -6.6030   -0.6080   -1.4090 cd        1 MYX      0.357400
     19 C14        -7.6950   -1.1420   -2.1990 cd        1 MYX      0.276300
     20 C15        -7.6050   -1.5410   -3.5300 cc        1 MYX     -0.209400
     21 N3         -8.9640   -1.2880   -1.6280 nd        1 MYX     -0.635000
     22 C16        -9.8010   -1.7910   -2.5330 cc        1 MYX      0.420700
     23 C17       -11.2420   -2.1030   -2.2710 c3        1 MYX     -0.064800
     24 C18       -12.0740   -1.8650   -3.5190 c3        1 MYX     -0.099100
     25 C19       -11.3760   -3.5200   -1.8180 c2        1 MYX     -0.181200
     26 C20       -11.6380   -3.8570   -0.5480 ce        1 MYX     -0.101000
     27 C21       -11.7910   -5.2120   -0.0610 ce        1 MYX     -0.153000
     28 C22       -12.0110   -6.2880   -0.8300 c2        1 MYX     -0.136200
     29 C23       -12.1720   -7.6660   -0.2870 c3        1 MYX     -0.041500
     30 C24       -13.5510   -8.2030   -0.6270 c3        1 MYX     -0.088100
     31 C25       -11.0970   -8.5770   -0.8500 c3        1 MYX     -0.088100
     32 S1         -6.8350   -0.1500    0.2310 ss        1 MYX      0.065700
     33 S2         -9.0760   -2.0910   -4.0780 ss        1 MYX     -0.061300
     34 HN11        3.3000    2.1090   -0.0100 hn        1 MYX      0.458800
     35 HN12        2.6640    1.4970    1.4090 hn        1 MYX      0.458800
     36 H2          3.1820    0.4440   -2.0090 ha        1 MYX      0.160000
     37 H41         3.0570    0.6440   -4.2740 h1        1 MYX      0.073700
     38 H42         2.8220   -0.8630   -5.3100 h1        1 MYX      0.073700
     39 H43         3.6590   -0.9950   -3.6720 h1        1 MYX      0.073700
     40 H5         -0.2120   -0.9940   -1.0760 hc        1 MYX      0.098700
     41 H61        -0.0370   -2.6840   -2.9950 hc        1 MYX      0.064367
     42 H62        -1.7270   -2.1170   -2.6400 hc        1 MYX      0.064367
     43 H63        -0.8320   -1.4620   -4.0800 hc        1 MYX      0.064367
     44 H7         -0.7180    1.3250   -1.4770 h1        1 MYX      0.036700
     45 H81        -1.0850    2.6390   -4.8760 h1        1 MYX      0.046700
     46 H82        -2.5530    2.1100   -3.9020 h1        1 MYX      0.046700
     47 H83        -1.2590    3.1420   -3.1140 h1        1 MYX      0.046700
     48 H9         -2.9590   -0.0900   -3.0910 ha        1 MYX      0.166000
     49 H10        -2.6690    0.7870   -0.1010 ha        1 MYX      0.124000
     50 H12        -4.7970    0.7070    1.2630 h4        1 MYX      0.181000
     51 H15        -6.6970   -1.4950   -4.1300 h4        1 MYX      0.195000
     52 H17       -11.6200   -1.4110   -1.4590 hc        1 MYX      0.085700
     53 H181      -12.0530   -0.7850   -3.8010 hc        1 MYX      0.047367
     54 H182      -13.1330   -2.1640   -3.3270 hc        1 MYX      0.047367
     55 H183      -11.6880   -2.4690   -4.3770 hc        1 MYX      0.047367
     56 H19       -11.2490   -4.2780   -2.6070 ha        1 MYX      0.127000
     57 H20       -11.7250   -5.3170    1.0370 ha        1 MYX      0.127000
     58 H21       -11.7450   -3.0740    0.2240 ha        1 MYX      0.127000
     59 H22       -12.0950   -6.2090   -1.9260 ha        1 MYX      0.122000
     60 H23       -12.0680   -7.6460    0.8360 hc        1 MYX      0.052700
     61 H241      -14.3420   -7.5450   -0.1940 hc        1 MYX      0.037200
     62 H242      -13.6930   -8.2490   -1.7330 hc        1 MYX      0.037200
     63 H243      -13.6730   -9.2310   -0.2100 hc        1 MYX      0.037200
     64 H251      -10.0830   -8.1950   -0.5820 hc        1 MYX      0.037200
     65 H252      -11.2130   -9.6070   -0.4320 hc        1 MYX      0.037200
     66 H253      -11.1730   -8.6350   -1.9620 hc        1 MYX      0.037200
     67 H13         3.7640    0.6040    0.5250 hn        1 MYX      0.458800
@<TRIPOS>BOND
     1    1    2 2   
     2    2    3 1   
     3    2    4 1   
     4    3   34 1   
     5    3   35 1   
     6    3   67 1   
     7    4    5 2   
     8    4   36 1   
     9    5    6 1   
    10    5    8 1   
    11    6    7 1   
    12    7   37 1   
    13    7   38 1   
    14    7   39 1   
    15    8    9 1   
    16    8   10 1   
    17    8   40 1   
    18    9   41 1   
    19    9   42 1   
    20    9   43 1   
    21   10   11 1   
    22   10   13 1   
    23   10   44 1   
    24   11   12 1   
    25   12   45 1   
    26   12   46 1   
    27   12   47 1   
    28   13   14 2   
    29   13   48 1   
    30   14   15 1   
    31   14   49 1   
    32   15   16 2   
    33   15   17 1   
    34   16   32 1   
    35   16   50 1   
    36   17   18 2   
    37   18   19 1   
    38   18   32 1   
    39   19   20 2   
    40   19   21 1   
    41   20   33 1   
    42   20   51 1   
    43   21   22 2   
    44   22   23 1   
    45   22   33 1   
    46   23   24 1   
    47   23   25 1   
    48   23   52 1   
    49   24   53 1   
    50   24   54 1   
    51   24   55 1   
    52   25   26 2   
    53   25   56 1   
    54   26   27 1   
    55   26   58 1   
    56   27   28 2   
    57   27   57 1   
    58   28   29 1   
    59   28   59 1   
    60   29   30 1   
    61   29   31 1   
    62   29   60 1   
    63   30   61 1   
    64   30   62 1   
    65   30   63 1   
    66   31   64 1   
    67   31   65 1   
    68   31   66 1   
@<TRIPOS>SUBSTRUCTURE
     1 MYX         1 TEMP              0 ****  ****    0 ROOT
