@<TRIPOS>MOLECULE
MYY
  105   104     1     0     0
SMALL
bcc


@<TRIPOS>ATOM
      1 C38        18.4590    4.7120   -1.7570 c3        1 MYY     -0.091100
      2 C37        17.4850    4.2670   -0.6970 c3        1 MYY     -0.080400
      3 C36        16.1310    3.9370   -1.2890 c3        1 MYY     -0.079400
      4 C35        15.1560    3.4910   -0.2210 c3        1 MYY     -0.078400
      5 C34        13.8030    3.1620   -0.8150 c3        1 MYY     -0.079400
      6 C33        12.8270    2.7160    0.2530 c3        1 MYY     -0.078400
      7 C32        11.4740    2.3860   -0.3400 c3        1 MYY     -0.079400
      8 C31        10.4980    1.9400    0.7280 c3        1 MYY     -0.078400
      9 C30         9.1440    1.6110    0.1350 c3        1 MYY     -0.079400
     10 C29         8.1670    1.1640    1.2020 c3        1 MYY     -0.078400
     11 C28         6.8140    0.8340    0.6100 c3        1 MYY     -0.079400
     12 C27         5.8340    0.3860    1.6740 c3        1 MYY     -0.078400
     13 C26         4.4810    0.0530    1.0840 c3        1 MYY     -0.084400
     14 C25         3.4940   -0.4010    2.1540 c3        1 MYY      0.076800
     15 C24         2.1730   -0.6910    1.5970 c2        1 MYY     -0.601200
     16 C23         1.5960   -1.9420    1.7180 c2        1 MYY      0.432100
     17 O10         1.9930   -3.0130    2.2570 o         1 MYY     -0.574000
     18 O8          0.3140   -2.0420    1.1260 os        1 MYY     -0.477900
     19 C6         -0.3250   -3.2990    1.2640 c3        1 MYY      0.150400
     20 C5         -1.7230   -3.2470    0.6490 c3        1 MYY      0.121100
     21 C4         -1.7670   -2.6590   -0.7720 c3        1 MYY      0.192400
     22 O6         -2.5260   -3.4820   -1.6080 os        1 MYY     -0.592200
     23 P          -3.8490   -2.8330   -2.3370 p5        1 MYY      1.438800
     24 O4         -3.0760   -1.7130   -3.2480 oh        1 MYY     -0.784400
     25 O3         -4.3200   -3.8140   -3.3390 o         1 MYY     -0.848000
     26 O5         -4.6950   -2.1510   -1.3360 o         1 MYY     -0.848000
     27 O7         -2.5660   -2.3840    1.4460 os        1 MYY     -0.405900
     28 C7         -3.4770   -2.9380    2.2780 c         1 MYY      0.648100
     29 O9         -3.4280   -4.1400    2.5680 o         1 MYY     -0.592000
     30 C8         -4.4800   -1.9310    2.7690 c3        1 MYY     -0.121400
     31 C9         -5.6230   -1.8360    1.7780 c3        1 MYY     -0.111400
     32 C10        -6.5270   -0.6660    2.0960 c3        1 MYY     -0.061400
     33 C11        -7.6240   -0.5510    1.0580 c3        1 MYY     -0.087400
     34 C12        -8.4810    0.6740    1.2910 c3        1 MYY     -0.074400
     35 C13        -9.5790    0.7810    0.2540 c3        1 MYY     -0.080400
     36 C14       -10.4310    2.0120    0.4750 c3        1 MYY     -0.077400
     37 C15       -11.5270    2.1170   -0.5640 c3        1 MYY     -0.079400
     38 C16       -12.3790    3.3490   -0.3450 c3        1 MYY     -0.078400
     39 C17       -13.4750    3.4520   -1.3840 c3        1 MYY     -0.079400
     40 C18       -14.3270    4.6840   -1.1650 c3        1 MYY     -0.078400
     41 C19       -15.4230    4.7880   -2.2040 c3        1 MYY     -0.081400
     42 C20       -16.2740    6.0130   -1.9920 c3        1 MYY     -0.091100
     43 H381       19.4500    4.9490   -1.3000 hc        1 MYY      0.029700
     44 H382       18.6070    3.9080   -2.5190 hc        1 MYY      0.029700
     45 H383       18.0840    5.6240   -2.2800 hc        1 MYY      0.029700
     46 H371       17.8900    3.3650   -0.1670 hc        1 MYY      0.037200
     47 H372       17.3690    5.0760    0.0710 hc        1 MYY      0.037200
     48 H361       15.7230    4.8380   -1.8190 hc        1 MYY      0.038700
     49 H362       16.2440    3.1270   -2.0570 hc        1 MYY      0.038700
     50 H351       15.5630    2.5900    0.3080 hc        1 MYY      0.038200
     51 H352       15.0420    4.3010    0.5460 hc        1 MYY      0.038200
     52 H341       13.3940    4.0630   -1.3440 hc        1 MYY      0.038700
     53 H342       13.9150    2.3510   -1.5820 hc        1 MYY      0.038700
     54 H331       13.2350    1.8140    0.7820 hc        1 MYY      0.037200
     55 H332       12.7130    3.5260    1.0210 hc        1 MYY      0.037200
     56 H321       11.0650    3.2870   -0.8690 hc        1 MYY      0.038200
     57 H322       11.5860    1.5760   -1.1070 hc        1 MYY      0.038200
     58 H311       10.9050    1.0390    1.2570 hc        1 MYY      0.036200
     59 H312       10.3840    2.7500    1.4960 hc        1 MYY      0.036200
     60 H301        8.7360    2.5110   -0.3940 hc        1 MYY      0.037200
     61 H302        9.2570    0.8000   -0.6330 hc        1 MYY      0.037200
     62 H291        8.5750    0.2630    1.7310 hc        1 MYY      0.033200
     63 H292        8.0530    1.9740    1.9700 hc        1 MYY      0.033200
     64 H281        6.4050    1.7340    0.0800 hc        1 MYY      0.034700
     65 H282        6.9270    0.0230   -0.1580 hc        1 MYY      0.034700
     66 H271        6.2420   -0.5150    2.2040 hc        1 MYY      0.025700
     67 H272        5.7210    1.1960    2.4420 hc        1 MYY      0.025700
     68 H261        4.0690    0.9520    0.5560 hc        1 MYY      0.028200
     69 H262        4.5910   -0.7590    0.3200 hc        1 MYY      0.028200
     70 H251        3.9100   -1.3080    2.6710 hc        1 MYY     -0.008800
     71 H252        3.4340    0.4190    2.9270 hc        1 MYY     -0.008800
     72 H241        1.6390    0.1080    1.0840 ha        1 MYY      0.099000
     73 H242       -2.8170   -2.0670   -4.0900 ho        1 MYY      0.419000
     74 H6C1        0.2750   -4.0860    0.7340 h1        1 MYY      0.030700
     75 H6C2       -0.4000   -3.5710    2.3510 h1        1 MYY      0.030700
     76 H5         -2.1450   -4.2910    0.6450 h1        1 MYY      0.074700
     77 H4C1       -2.2010   -1.6210   -0.7480 h1        1 MYY      0.051700
     78 H4C2       -0.7130   -2.6210   -1.1650 h1        1 MYY      0.051700
     79 H8C1       -4.8470   -2.2520    3.7770 hc        1 MYY      0.052200
     80 H8C2       -3.9750   -0.9350    2.8710 hc        1 MYY      0.052200
     81 H9C1       -5.2080   -1.7280    0.7290 hc        1 MYY      0.097700
     82 H9C2       -6.2140   -2.7880    1.7970 hc        1 MYY      0.097700
     83 H101       -6.9780   -0.7880    3.1160 hc        1 MYY      0.019200
     84 H102       -5.9260    0.2810    2.1100 hc        1 MYY      0.019200
     85 H111       -7.1580   -0.5080    0.0360 hc        1 MYY      0.059200
     86 H112       -8.2660   -1.4710    1.0870 hc        1 MYY      0.059200
     87 H121       -8.9350    0.6310    2.3160 hc        1 MYY      0.027700
     88 H122       -7.8390    1.5930    1.2530 hc        1 MYY      0.027700
     89 H131       -9.1200    0.8170   -0.7700 hc        1 MYY      0.043700
     90 H132      -10.2240   -0.1360    0.2940 hc        1 MYY      0.043700
     91 H141      -10.8850    1.9770    1.5000 hc        1 MYY      0.033700
     92 H142       -9.7840    2.9280    0.4320 hc        1 MYY      0.033700
     93 H151      -11.0700    2.1510   -1.5880 hc        1 MYY      0.040200
     94 H152      -12.1730    1.2000   -0.5210 hc        1 MYY      0.040200
     95 H161      -12.8340    3.3140    0.6800 hc        1 MYY      0.036200
     96 H162      -11.7320    4.2640   -0.3880 hc        1 MYY      0.036200
     97 H171      -13.0190    3.4860   -2.4080 hc        1 MYY      0.039700
     98 H172      -14.1210    2.5350   -1.3410 hc        1 MYY      0.039700
     99 H181      -14.7830    4.6490   -0.1410 hc        1 MYY      0.037200
    100 H182      -13.6810    5.6000   -1.2090 hc        1 MYY      0.037200
    101 H191      -14.9650    4.8200   -3.2280 hc        1 MYY      0.038200
    102 H192      -16.0670    3.8690   -2.1610 hc        1 MYY      0.038200
    103 H201      -17.0760    6.0700   -2.7670 hc        1 MYY      0.028367
    104 H202      -16.7590    5.9860   -0.9860 hc        1 MYY      0.028367
    105 H203      -15.6540    6.9390   -2.0560 hc        1 MYY      0.028367
@<TRIPOS>BOND
     1    1    2 1   
     2    1   43 1   
     3    1   44 1   
     4    1   45 1   
     5    2    3 1   
     6    2   46 1   
     7    2   47 1   
     8    3    4 1   
     9    3   48 1   
    10    3   49 1   
    11    4    5 1   
    12    4   50 1   
    13    4   51 1   
    14    5    6 1   
    15    5   52 1   
    16    5   53 1   
    17    6    7 1   
    18    6   54 1   
    19    6   55 1   
    20    7    8 1   
    21    7   56 1   
    22    7   57 1   
    23    8    9 1   
    24    8   58 1   
    25    8   59 1   
    26    9   10 1   
    27    9   60 1   
    28    9   61 1   
    29   10   11 1   
    30   10   62 1   
    31   10   63 1   
    32   11   12 1   
    33   11   64 1   
    34   11   65 1   
    35   12   13 1   
    36   12   66 1   
    37   12   67 1   
    38   13   14 1   
    39   13   68 1   
    40   13   69 1   
    41   14   15 1   
    42   14   70 1   
    43   14   71 1   
    44   15   16 2   
    45   15   72 1   
    46   16   17 1   
    47   16   18 1   
    48   18   19 1   
    49   19   20 1   
    50   19   74 1   
    51   19   75 1   
    52   20   21 1   
    53   20   27 1   
    54   20   76 1   
    55   21   22 1   
    56   21   77 1   
    57   21   78 1   
    58   22   23 1   
    59   23   24 1   
    60   23   25 1   
    61   23   26 1   
    62   24   73 1   
    63   27   28 1   
    64   28   29 2   
    65   28   30 1   
    66   30   31 1   
    67   30   79 1   
    68   30   80 1   
    69   31   32 1   
    70   31   81 1   
    71   31   82 1   
    72   32   33 1   
    73   32   83 1   
    74   32   84 1   
    75   33   34 1   
    76   33   85 1   
    77   33   86 1   
    78   34   35 1   
    79   34   87 1   
    80   34   88 1   
    81   35   36 1   
    82   35   89 1   
    83   35   90 1   
    84   36   37 1   
    85   36   91 1   
    86   36   92 1   
    87   37   38 1   
    88   37   93 1   
    89   37   94 1   
    90   38   39 1   
    91   38   95 1   
    92   38   96 1   
    93   39   40 1   
    94   39   97 1   
    95   39   98 1   
    96   40   41 1   
    97   40   99 1   
    98   40  100 1   
    99   41   42 1   
   100   41  101 1   
   101   41  102 1   
   102   42  103 1   
   103   42  104 1   
   104   42  105 1   
@<TRIPOS>SUBSTRUCTURE
     1 MYY         1 TEMP              0 ****  ****    0 ROOT
