@<TRIPOS>MOLECULE
MYY
  105   104     1     0     0
SMALL
bcc


@<TRIPOS>ATOM
      1 C38         1.3620   -1.5440    1.7580 c3        1 MYY     -0.091100
      2 C37         2.7630   -0.9950    1.6810 c3        1 MYY     -0.080400
      3 C36         3.3830   -0.8560    3.0550 c3        1 MYY     -0.079400
      4 C35         4.7910   -0.3050    2.9720 c3        1 MYY     -0.078400
      5 C34         5.4100   -0.1660    4.3470 c3        1 MYY     -0.079400
      6 C33         6.8170    0.3850    4.2650 c3        1 MYY     -0.078400
      7 C32         7.4360    0.5220    5.6400 c3        1 MYY     -0.080400
      8 C31         8.8440    1.0720    5.5610 c3        1 MYY     -0.076400
      9 C30         9.4630    1.2020    6.9360 c3        1 MYY     -0.082400
     10 C29        10.8740    1.7480    6.8620 c3        1 MYY     -0.064400
     11 C28        11.4960    1.8270    8.2380 c3        1 MYY     -0.115400
     12 C27        12.9240    2.3290    8.1790 c3        1 MYY     -0.046400
     13 C26        13.5650    2.2110    9.5450 c3        1 MYY     -0.122400
     14 C25        15.0800    2.3270    9.5020 c3        1 MYY     -0.036400
     15 C24        15.6750    1.1690   10.2640 c3        1 MYY     -0.239400
     16 C23        17.1530    1.1270   10.3160 c         1 MYY      0.666100
     17 O10        17.9750    1.9750    9.9290 o         1 MYY     -0.614000
     18 O8         17.7950    0.0650   10.9120 os        1 MYY     -0.448900
     19 C6         17.0410   -1.0980   11.2640 c3        1 MYY      0.066400
     20 C5         16.4530   -1.0340   12.6740 c3        1 MYY      0.075100
     21 C4         14.9480   -1.4210   12.7100 c3        1 MYY      0.225400
     22 O6         14.1720   -0.6940   11.8550 os        1 MYY     -0.566200
     23 P          13.3990   -1.5930   10.5850 p5        1 MYY      1.321900
     24 O4         12.3050   -0.6480   10.1730 o         1 MYY     -0.913167
     25 O3         14.5610   -1.6750    9.6210 o         1 MYY     -0.913167
     26 O5         13.0300   -2.8710   11.2740 o         1 MYY     -0.913167
     27 O7         16.5580    0.3160   13.1770 os        1 MYY     -0.394900
     28 C7         17.5210    0.6160   14.0750 c         1 MYY      0.640100
     29 O9         18.2260   -0.2620   14.5900 o         1 MYY     -0.600000
     30 C8         17.5870    2.0940   14.3460 c3        1 MYY     -0.140400
     31 C9         18.1390    2.3790   15.7240 c3        1 MYY     -0.074400
     32 C10        18.3310    3.8660   15.9330 c3        1 MYY     -0.079400
     33 C11        18.8680    4.1600   17.3170 c3        1 MYY     -0.078400
     34 C12        19.0650    5.6460   17.5270 c3        1 MYY     -0.079400
     35 C13        19.6030    5.9410   18.9110 c3        1 MYY     -0.078400
     36 C14        19.8000    7.4270   19.1210 c3        1 MYY     -0.079400
     37 C15        20.3370    7.7210   20.5050 c3        1 MYY     -0.078400
     38 C16        20.5340    9.2070   20.7140 c3        1 MYY     -0.079400
     39 C17        21.0710    9.5020   22.0980 c3        1 MYY     -0.078400
     40 C18        21.2680   10.9880   22.3070 c3        1 MYY     -0.079400
     41 C19        21.8050   11.2850   23.6910 c3        1 MYY     -0.080400
     42 C20        22.0020   12.7630   23.9040 c3        1 MYY     -0.091100
     43 H381        1.3590   -2.5520    2.2380 hc        1 MYY      0.028367
     44 H382        0.7070   -0.8690    2.3610 hc        1 MYY      0.028367
     45 H383        0.9230   -1.6390    0.7360 hc        1 MYY      0.028367
     46 H371        2.7480    0.0060    1.1740 hc        1 MYY      0.036200
     47 H372        3.3990   -1.6730    1.0520 hc        1 MYY      0.036200
     48 H361        2.7500   -0.1770    3.6850 hc        1 MYY      0.038700
     49 H362        3.4010   -1.8560    3.5620 hc        1 MYY      0.038700
     50 H351        5.4240   -0.9840    2.3420 hc        1 MYY      0.036200
     51 H352        4.7740    0.6960    2.4650 hc        1 MYY      0.036200
     52 H341        5.4280   -1.1670    4.8540 hc        1 MYY      0.039700
     53 H342        4.7770    0.5120    4.9780 hc        1 MYY      0.039700
     54 H331        7.4510   -0.2940    3.6360 hc        1 MYY      0.034200
     55 H332        6.8010    1.3850    3.7580 hc        1 MYY      0.034200
     56 H321        7.4550   -0.4790    6.1470 hc        1 MYY      0.040700
     57 H322        6.8030    1.2000    6.2710 hc        1 MYY      0.040700
     58 H311        8.8290    2.0740    5.0560 hc        1 MYY      0.029200
     59 H312        9.4770    0.3940    4.9290 hc        1 MYY      0.029200
     60 H301        9.4860    0.1990    7.4410 hc        1 MYY      0.048200
     61 H302        8.8310    1.8770    7.5700 hc        1 MYY      0.048200
     62 H291       11.4980    1.0810    6.2100 hc        1 MYY      0.017200
     63 H292       10.8600    2.7620    6.3810 hc        1 MYY      0.017200
     64 H281       10.8840    2.5070    8.8870 hc        1 MYY      0.087200
     65 H282       11.5020    0.8050    8.7340 hc        1 MYY      0.087200
     66 H271       13.4990    1.7080    7.4420 hc        1 MYY      0.006700
     67 H272       12.9530    3.3900    7.8140 hc        1 MYY      0.006700
     68 H261       13.1460    2.9980   10.2230 hc        1 MYY      0.085200
     69 H262       13.2640    1.1950    9.9820 hc        1 MYY      0.085200
     70 H251       15.4540    2.3130    8.4450 hc        1 MYY      0.009200
     71 H252       15.4150    3.3000    9.9470 hc        1 MYY      0.009200
     72 H241       15.2610    0.1900    9.8250 hc        1 MYY      0.158200
     73 H242       15.3070    1.1720   11.3340 hc        1 MYY      0.158200
     74 H6C1       16.2050   -1.3220   10.5180 h1        1 MYY      0.109200
     75 H6C2       17.8170   -1.9110   11.2210 h1        1 MYY      0.109200
     76 H5         17.0150   -1.7280   13.3560 h1        1 MYY      0.038700
     77 H4C1       14.8900   -2.5240   12.4740 h1        1 MYY      0.011700
     78 H4C2       14.6140   -1.2490   13.7760 h1        1 MYY      0.011700
     79 H8C1       16.5630    2.5360   14.2270 hc        1 MYY      0.080200
     80 H8C2       18.2440    2.5440   13.5540 hc        1 MYY      0.080200
     81 H9C1       19.1160    1.8420   15.8520 hc        1 MYY      0.048700
     82 H9C2       17.4380    1.9730   16.5000 hc        1 MYY      0.048700
     83 H101       19.0400    4.2660   15.1610 hc        1 MYY      0.040200
     84 H102       17.3520    4.3950   15.7890 hc        1 MYY      0.040200
     85 H111       18.1570    3.7620   18.0890 hc        1 MYY      0.037700
     86 H112       19.8450    3.6260   17.4620 hc        1 MYY      0.037700
     87 H121       18.0890    6.1780   17.3810 hc        1 MYY      0.039200
     88 H122       19.7760    6.0430   16.7550 hc        1 MYY      0.039200
     89 H131       20.5790    5.4070   19.0570 hc        1 MYY      0.037200
     90 H132       18.8920    5.5430   19.6830 hc        1 MYY      0.037200
     91 H141       20.5100    7.8240   18.3490 hc        1 MYY      0.039200
     92 H142       18.8230    7.9590   18.9750 hc        1 MYY      0.039200
     93 H151       19.6260    7.3240   21.2760 hc        1 MYY      0.038200
     94 H152       21.3130    7.1890   20.6500 hc        1 MYY      0.038200
     95 H161       21.2440    9.6050   19.9420 hc        1 MYY      0.039200
     96 H162       19.5570    9.7400   20.5680 hc        1 MYY      0.039200
     97 H171       20.3600    9.1050   22.8700 hc        1 MYY      0.038200
     98 H172       22.0470    8.9700   22.2440 hc        1 MYY      0.038200
     99 H181       21.9780   11.3860   21.5350 hc        1 MYY      0.039200
    100 H182       20.2910   11.5210   22.1620 hc        1 MYY      0.039200
    101 H191       21.0930   10.8850   24.4610 hc        1 MYY      0.037700
    102 H192       22.7810   10.7500   23.8350 hc        1 MYY      0.037700
    103 H201       21.0350   13.3110   23.7880 hc        1 MYY      0.030033
    104 H202       22.7270   13.1750   23.1610 hc        1 MYY      0.030033
    105 H203       22.3990   12.9600   24.9290 hc        1 MYY      0.030033
@<TRIPOS>BOND
     1    1    2 1   
     2    1   43 1   
     3    1   44 1   
     4    1   45 1   
     5    2    3 1   
     6    2   46 1   
     7    2   47 1   
     8    3    4 1   
     9    3   48 1   
    10    3   49 1   
    11    4    5 1   
    12    4   50 1   
    13    4   51 1   
    14    5    6 1   
    15    5   52 1   
    16    5   53 1   
    17    6    7 1   
    18    6   54 1   
    19    6   55 1   
    20    7    8 1   
    21    7   56 1   
    22    7   57 1   
    23    8    9 1   
    24    8   58 1   
    25    8   59 1   
    26    9   10 1   
    27    9   60 1   
    28    9   61 1   
    29   10   11 1   
    30   10   62 1   
    31   10   63 1   
    32   11   12 1   
    33   11   64 1   
    34   11   65 1   
    35   12   13 1   
    36   12   66 1   
    37   12   67 1   
    38   13   14 1   
    39   13   68 1   
    40   13   69 1   
    41   14   15 1   
    42   14   70 1   
    43   14   71 1   
    44   15   16 1   
    45   15   72 1   
    46   15   73 1   
    47   16   17 2   
    48   16   18 1   
    49   18   19 1   
    50   19   20 1   
    51   19   74 1   
    52   19   75 1   
    53   20   21 1   
    54   20   27 1   
    55   20   76 1   
    56   21   22 1   
    57   21   77 1   
    58   21   78 1   
    59   22   23 1   
    60   23   24 1   
    61   23   25 1   
    62   23   26 1   
    63   27   28 1   
    64   28   29 2   
    65   28   30 1   
    66   30   31 1   
    67   30   79 1   
    68   30   80 1   
    69   31   32 1   
    70   31   81 1   
    71   31   82 1   
    72   32   33 1   
    73   32   83 1   
    74   32   84 1   
    75   33   34 1   
    76   33   85 1   
    77   33   86 1   
    78   34   35 1   
    79   34   87 1   
    80   34   88 1   
    81   35   36 1   
    82   35   89 1   
    83   35   90 1   
    84   36   37 1   
    85   36   91 1   
    86   36   92 1   
    87   37   38 1   
    88   37   93 1   
    89   37   94 1   
    90   38   39 1   
    91   38   95 1   
    92   38   96 1   
    93   39   40 1   
    94   39   97 1   
    95   39   98 1   
    96   40   41 1   
    97   40   99 1   
    98   40  100 1   
    99   41   42 1   
   100   41  101 1   
   101   41  102 1   
   102   42  103 1   
   103   42  104 1   
   104   42  105 1   
@<TRIPOS>SUBSTRUCTURE
     1 MYY         1 TEMP              0 ****  ****    0 ROOT
