@<TRIPOS>MOLECULE
MYY
  105   104     1     0     0
SMALL
bcc


@<TRIPOS>ATOM
      1 C38        -8.0850    2.8770  -11.5650 c3        1 MYY     -0.091100
      2 C37        -8.9800    2.1070  -10.6180 c3        1 MYY     -0.080400
      3 C36        -8.1710    1.6490   -9.4130 c3        1 MYY     -0.079400
      4 C35        -9.0280    0.7270   -8.5440 c3        1 MYY     -0.078400
      5 C34        -8.4410    0.6580   -7.1510 c3        1 MYY     -0.079400
      6 C33        -9.0360   -0.5250   -6.4070 c3        1 MYY     -0.078400
      7 C32        -8.8740   -0.3150   -4.9150 c3        1 MYY     -0.080400
      8 C31        -8.7560   -1.6670   -4.2230 c3        1 MYY     -0.075400
      9 C30        -8.8100   -1.4710   -2.7120 c3        1 MYY     -0.081400
     10 C29        -7.8560   -2.4490   -2.0380 c3        1 MYY     -0.075400
     11 C28        -7.7970   -2.1530   -0.5480 c3        1 MYY     -0.086400
     12 C27        -6.4540   -2.5830    0.0000 c3        1 MYY     -0.055400
     13 C26        -6.2700   -2.0100    1.3980 c3        1 MYY     -0.137400
     14 C25        -4.7950   -2.0840    1.7900 c3        1 MYY     -0.031400
     15 C24        -4.5650   -1.2750    3.0700 c3        1 MYY     -0.215400
     16 C23        -3.0590   -0.9760    3.2270 c         1 MYY      0.676100
     17 O10        -2.2360   -1.7500    2.7780 o         1 MYY     -0.601000
     18 O8         -2.6340    0.1760    3.9460 os        1 MYY     -0.460900
     19 C6         -1.3860    0.7280    3.4790 c3        1 MYY      0.128400
     20 C5         -0.7360    1.5290    4.5980 c3        1 MYY      0.076100
     21 C4         -1.7770    2.3930    5.2690 c3        1 MYY      0.236400
     22 O6         -1.1840    3.0910    6.3630 os        1 MYY     -0.555200
     23 P          -2.1090    4.0140    7.2590 p5        1 MYY      1.318900
     24 O4         -1.2810    4.6350    8.3690 o         1 MYY     -0.916833
     25 O3         -2.7060    5.1050    6.4060 o         1 MYY     -0.916833
     26 O5         -3.2130    3.1850    7.8600 o         1 MYY     -0.916833
     27 O7          0.2840    2.3500    4.0600 os        1 MYY     -0.417900
     28 C7          1.6090    1.9120    4.3780 c         1 MYY      0.630100
     29 O9          1.7880    1.1380    5.2960 o         1 MYY     -0.581000
     30 C8          2.8080    2.4920    3.6230 c3        1 MYY     -0.140400
     31 C9          4.1040    1.9340    4.2170 c3        1 MYY     -0.072400
     32 C10         5.2790    2.2900    3.3030 c3        1 MYY     -0.083400
     33 C11         6.5930    1.7940    3.9350 c3        1 MYY     -0.075400
     34 C12         7.6850    1.7230    2.8550 c3        1 MYY     -0.080400
     35 C13         8.9700    1.1450    3.4630 c3        1 MYY     -0.077400
     36 C14         9.8960    0.6860    2.3460 c3        1 MYY     -0.080400
     37 C15        10.9650   -0.2530    2.9190 c3        1 MYY     -0.078400
     38 C16        11.7500   -0.8880    1.7720 c3        1 MYY     -0.079400
     39 C17        12.6540   -1.9670    2.3150 c3        1 MYY     -0.078400
     40 C18        13.2100   -2.7790    1.1680 c3        1 MYY     -0.079400
     41 C19        14.0380   -3.8990    1.7050 c3        1 MYY     -0.080400
     42 C20        14.5290   -4.7500    0.5650 c3        1 MYY     -0.091100
     43 H381       -7.4930    3.4620  -11.0510 hc        1 MYY      0.029033
     44 H382       -8.6380    3.4190  -12.1690 hc        1 MYY      0.029033
     45 H383       -7.5460    2.2460  -12.0910 hc        1 MYY      0.029033
     46 H371       -9.3490    1.3240  -11.0800 hc        1 MYY      0.036700
     47 H372       -9.7080    2.6820  -10.3200 hc        1 MYY      0.036700
     48 H361       -7.3790    1.1670   -9.7170 hc        1 MYY      0.039200
     49 H362       -7.8980    2.4230   -8.8930 hc        1 MYY      0.039200
     50 H351       -9.0440   -0.1730   -8.9380 hc        1 MYY      0.036700
     51 H352       -9.9370    1.0780   -8.4960 hc        1 MYY      0.036700
     52 H341       -8.6480    1.4830   -6.6690 hc        1 MYY      0.039700
     53 H342       -7.4690    0.5500   -7.2110 hc        1 MYY      0.039700
     54 H331       -8.5720   -1.3460   -6.6740 hc        1 MYY      0.034700
     55 H332       -9.9860   -0.6020   -6.6240 hc        1 MYY      0.034700
     56 H321       -9.6480    0.1600   -4.5690 hc        1 MYY      0.041700
     57 H322       -8.0660    0.2100   -4.7460 hc        1 MYY      0.041700
     58 H311       -9.4920   -2.2400   -4.5030 hc        1 MYY      0.030200
     59 H312       -7.9050   -2.0850   -4.4670 hc        1 MYY      0.030200
     60 H301       -8.5460   -0.5510   -2.4920 hc        1 MYY      0.043700
     61 H302       -9.7200   -1.6330   -2.3950 hc        1 MYY      0.043700
     62 H291       -8.1740   -3.3620   -2.1760 hc        1 MYY      0.024700
     63 H292       -6.9630   -2.3530   -2.4240 hc        1 MYY      0.024700
     64 H281       -7.9160   -1.1900   -0.4020 hc        1 MYY      0.057200
     65 H282       -8.5130   -2.6450   -0.0880 hc        1 MYY      0.057200
     66 H271       -6.4160   -3.5570    0.0410 hc        1 MYY      0.008200
     67 H272       -5.7420   -2.2540   -0.5840 hc        1 MYY      0.008200
     68 H261       -6.8050   -2.5280    2.0370 hc        1 MYY      0.109200
     69 H262       -6.5640   -1.0740    1.4080 hc        1 MYY      0.109200
     70 H251       -4.2480   -1.7170    1.0720 hc        1 MYY      0.003700
     71 H252       -4.5460   -3.0140    1.9450 hc        1 MYY      0.003700
     72 H241       -4.8800   -1.7900    3.8430 hc        1 MYY      0.153700
     73 H242       -5.0580   -0.4380    3.0160 hc        1 MYY      0.153700
     74 H6C1       -1.5540    1.3090    2.7200 h1        1 MYY      0.040700
     75 H6C2       -0.7840   -0.0040    3.2060 h1        1 MYY      0.040700
     76 H5         -0.3480    0.9140    5.2580 h1        1 MYY      0.111700
     77 H4C1       -2.5030    1.8300    5.5970 h1        1 MYY      0.012200
     78 H4C2       -2.1320    3.0390    4.6220 h1        1 MYY      0.012200
     79 H8C1        2.7490    2.2450    2.6810 hc        1 MYY      0.072200
     80 H8C2        2.8050    3.4680    3.7050 hc        1 MYY      0.072200
     81 H9C1        4.0350    0.9660    4.2940 hc        1 MYY      0.041700
     82 H9C2        4.2490    2.3200    5.1000 hc        1 MYY      0.041700
     83 H101        5.3190    3.2600    3.1880 hc        1 MYY      0.048700
     84 H102        5.1560    1.8650    2.4340 hc        1 MYY      0.048700
     85 H111        6.4560    0.9110    4.3160 hc        1 MYY      0.033700
     86 H112        6.8700    2.4130    4.6370 hc        1 MYY      0.033700
     87 H121        7.3840    1.1500    2.1260 hc        1 MYY      0.042700
     88 H122        7.8620    2.6190    2.5120 hc        1 MYY      0.042700
     89 H131        8.7500    0.3930    4.0290 hc        1 MYY      0.035200
     90 H132        9.4160    1.8300    3.9910 hc        1 MYY      0.035200
     91 H141        9.3740    0.2090    1.6640 hc        1 MYY      0.040700
     92 H142       10.3280    1.4630    1.9410 hc        1 MYY      0.040700
     93 H151       11.5750    0.2580    3.4900 hc        1 MYY      0.036700
     94 H152       10.5370   -0.9490    3.4430 hc        1 MYY      0.036700
     95 H161       11.1270   -1.2780    1.1290 hc        1 MYY      0.040200
     96 H162       12.2910   -0.2010    1.3270 hc        1 MYY      0.040200
     97 H171       12.1440   -2.5500    2.9110 hc        1 MYY      0.037200
     98 H172       13.3940   -1.5550    2.8130 hc        1 MYY      0.037200
     99 H181       13.7630   -2.2070    0.6030 hc        1 MYY      0.039700
    100 H182       12.4780   -3.1410    0.6440 hc        1 MYY      0.039700
    101 H191       14.8000   -3.5360    2.1900 hc        1 MYY      0.036700
    102 H192       13.4990   -4.4420    2.3050 hc        1 MYY      0.036700
    103 H201       14.9510   -5.5530    0.9180 hc        1 MYY      0.030033
    104 H202       15.1840   -4.2420    0.0340 hc        1 MYY      0.030033
    105 H203       13.7690   -5.0040   -0.0080 hc        1 MYY      0.030033
@<TRIPOS>BOND
     1    1    2 1   
     2    1   43 1   
     3    1   44 1   
     4    1   45 1   
     5    2    3 1   
     6    2   46 1   
     7    2   47 1   
     8    3    4 1   
     9    3   48 1   
    10    3   49 1   
    11    4    5 1   
    12    4   50 1   
    13    4   51 1   
    14    5    6 1   
    15    5   52 1   
    16    5   53 1   
    17    6    7 1   
    18    6   54 1   
    19    6   55 1   
    20    7    8 1   
    21    7   56 1   
    22    7   57 1   
    23    8    9 1   
    24    8   58 1   
    25    8   59 1   
    26    9   10 1   
    27    9   60 1   
    28    9   61 1   
    29   10   11 1   
    30   10   62 1   
    31   10   63 1   
    32   11   12 1   
    33   11   64 1   
    34   11   65 1   
    35   12   13 1   
    36   12   66 1   
    37   12   67 1   
    38   13   14 1   
    39   13   68 1   
    40   13   69 1   
    41   14   15 1   
    42   14   70 1   
    43   14   71 1   
    44   15   16 1   
    45   15   72 1   
    46   15   73 1   
    47   16   17 2   
    48   16   18 1   
    49   18   19 1   
    50   19   20 1   
    51   19   74 1   
    52   19   75 1   
    53   20   21 1   
    54   20   27 1   
    55   20   76 1   
    56   21   22 1   
    57   21   77 1   
    58   21   78 1   
    59   22   23 1   
    60   23   24 1   
    61   23   25 1   
    62   23   26 1   
    63   27   28 1   
    64   28   29 2   
    65   28   30 1   
    66   30   31 1   
    67   30   79 1   
    68   30   80 1   
    69   31   32 1   
    70   31   81 1   
    71   31   82 1   
    72   32   33 1   
    73   32   83 1   
    74   32   84 1   
    75   33   34 1   
    76   33   85 1   
    77   33   86 1   
    78   34   35 1   
    79   34   87 1   
    80   34   88 1   
    81   35   36 1   
    82   35   89 1   
    83   35   90 1   
    84   36   37 1   
    85   36   91 1   
    86   36   92 1   
    87   37   38 1   
    88   37   93 1   
    89   37   94 1   
    90   38   39 1   
    91   38   95 1   
    92   38   96 1   
    93   39   40 1   
    94   39   97 1   
    95   39   98 1   
    96   40   41 1   
    97   40   99 1   
    98   40  100 1   
    99   41   42 1   
   100   41  101 1   
   101   41  102 1   
   102   42  103 1   
   103   42  104 1   
   104   42  105 1   
@<TRIPOS>SUBSTRUCTURE
     1 MYY         1 TEMP              0 ****  ****    0 ROOT
