@<TRIPOS>MOLECULE
MYY
  105   104     1     0     0
SMALL
bcc


@<TRIPOS>ATOM
      1 C38         1.3860   -1.5470    1.7060 c3        1 MYY     -0.091100
      2 C37         2.7880   -0.9980    1.6350 c3        1 MYY     -0.080400
      3 C36         3.4000   -0.8550    3.0120 c3        1 MYY     -0.079400
      4 C35         4.8080   -0.3030    2.9370 c3        1 MYY     -0.078400
      5 C34         5.4190   -0.1620    4.3140 c3        1 MYY     -0.079400
      6 C33         6.8270    0.3890    4.2400 c3        1 MYY     -0.078400
      7 C32         7.4380    0.5290    5.6180 c3        1 MYY     -0.080400
      8 C31         8.8470    1.0780    5.5450 c3        1 MYY     -0.076400
      9 C30         9.4580    1.2100    6.9240 c3        1 MYY     -0.082400
     10 C29        10.8690    1.7550    6.8570 c3        1 MYY     -0.064400
     11 C28        11.4840    1.8370    8.2360 c3        1 MYY     -0.115400
     12 C27        12.9130    2.3360    8.1840 c3        1 MYY     -0.046400
     13 C26        13.5460    2.2200    9.5530 c3        1 MYY     -0.122400
     14 C25        15.0610    2.3340    9.5180 c3        1 MYY     -0.036400
     15 C24        15.6520    1.1750   10.2830 c3        1 MYY     -0.239400
     16 C23        17.1290    1.1300   10.3400 c         1 MYY      0.666100
     17 O10        17.9540    1.9760    9.9570 o         1 MYY     -0.614000
     18 O8         17.7670    0.0660   10.9380 os        1 MYY     -0.448900
     19 C6         17.0100   -1.0950   11.2860 c3        1 MYY      0.066400
     20 C5         16.4160   -1.0310   12.6940 c3        1 MYY      0.075100
     21 C4         14.9110   -1.4150   12.7260 c3        1 MYY      0.225400
     22 O6         14.1390   -0.6850   11.8680 os        1 MYY     -0.566200
     23 P          13.3690   -1.5830   10.5950 p5        1 MYY      1.321900
     24 O4         12.2780   -0.6360   10.1800 o         1 MYY     -0.913167
     25 O3         14.5340   -1.6670    9.6350 o         1 MYY     -0.913167
     26 O5         12.9950   -2.8610   11.2830 o         1 MYY     -0.913167
     27 O7         16.5240    0.3190   13.1990 os        1 MYY     -0.394900
     28 C7         17.4850    0.6160   14.0990 c         1 MYY      0.640100
     29 O9         18.1880   -0.2640   14.6150 o         1 MYY     -0.600000
     30 C8         17.5550    2.0930   14.3700 c3        1 MYY     -0.140400
     31 C9         18.1150    2.3770   15.7460 c3        1 MYY     -0.074400
     32 C10        18.3100    3.8640   15.9540 c3        1 MYY     -0.079400
     33 C11        18.8570    4.1560   17.3350 c3        1 MYY     -0.078400
     34 C12        19.0580    5.6420   17.5440 c3        1 MYY     -0.079400
     35 C13        19.6060    5.9340   18.9250 c3        1 MYY     -0.078400
     36 C14        19.8080    7.4200   19.1330 c3        1 MYY     -0.079400
     37 C15        20.3570    7.7130   20.5130 c3        1 MYY     -0.078400
     38 C16        20.5600    9.1980   20.7210 c3        1 MYY     -0.079400
     39 C17        21.1090    9.4910   22.1010 c3        1 MYY     -0.078400
     40 C18        21.3120   10.9760   22.3090 c3        1 MYY     -0.079400
     41 C19        21.8620   11.2710   23.6880 c3        1 MYY     -0.080400
     42 C20        22.0650   12.7490   23.9000 c3        1 MYY     -0.091100
     43 H381        1.3830   -2.5550    2.1880 hc        1 MYY      0.028367
     44 H382        0.7280   -0.8720    2.3040 hc        1 MYY      0.028367
     45 H383        0.9540   -1.6450    0.6810 hc        1 MYY      0.028367
     46 H371        3.4270   -1.6760    1.0110 hc        1 MYY      0.036200
     47 H372        2.7750    0.0030    1.1270 hc        1 MYY      0.036200
     48 H361        2.7630   -0.1760    3.6380 hc        1 MYY      0.038700
     49 H362        3.4160   -1.8550    3.5220 hc        1 MYY      0.038700
     50 H351        4.7930    0.6960    2.4280 hc        1 MYY      0.036200
     51 H352        5.4450   -0.9830    2.3120 hc        1 MYY      0.036200
     52 H341        4.7820    0.5170    4.9410 hc        1 MYY      0.039700
     53 H342        5.4340   -1.1620    4.8240 hc        1 MYY      0.039700
     54 H331        7.4640   -0.2910    3.6150 hc        1 MYY      0.034200
     55 H332        6.8130    1.3880    3.7310 hc        1 MYY      0.034200
     56 H321        7.4540   -0.4710    6.1270 hc        1 MYY      0.040700
     57 H322        6.8020    1.2080    6.2440 hc        1 MYY      0.040700
     58 H311        9.4820    0.3980    4.9190 hc        1 MYY      0.029200
     59 H312        8.8340    2.0790    5.0390 hc        1 MYY      0.029200
     60 H301        8.8230    1.8870    7.5530 hc        1 MYY      0.048200
     61 H302        9.4770    0.2090    7.4310 hc        1 MYY      0.048200
     62 H291       11.4960    1.0860    6.2100 hc        1 MYY      0.017200
     63 H292       10.8590    2.7680    6.3740 hc        1 MYY      0.017200
     64 H281       11.4850    0.8150    8.7350 hc        1 MYY      0.087200
     65 H282       10.8700    2.5190    8.8800 hc        1 MYY      0.087200
     66 H271       13.4920    1.7120    7.4520 hc        1 MYY      0.007200
     67 H272       12.9460    3.3950    7.8160 hc        1 MYY      0.007200
     68 H261       13.1250    3.0100   10.2270 hc        1 MYY      0.085200
     69 H262       13.2420    1.2060    9.9910 hc        1 MYY      0.085200
     70 H251       15.3950    3.3070    9.9670 hc        1 MYY      0.009200
     71 H252       15.4420    2.3210    8.4640 hc        1 MYY      0.009200
     72 H241       15.2370    0.1970    9.8420 hc        1 MYY      0.158200
     73 H242       15.2790    1.1780   11.3510 hc        1 MYY      0.158200
     74 H6C1       16.1750   -1.3170   10.5380 h1        1 MYY      0.109200
     75 H6C2       17.7840   -1.9100   11.2460 h1        1 MYY      0.109200
     76 H5         16.9750   -1.7270   13.3790 h1        1 MYY      0.038700
     77 H4C1       14.5730   -1.2410   13.7910 h1        1 MYY      0.011700
     78 H4C2       14.8510   -2.5180   12.4900 h1        1 MYY      0.011700
     79 H8C1       18.2090    2.5430   13.5750 hc        1 MYY      0.080200
     80 H8C2       16.5310    2.5370   14.2580 hc        1 MYY      0.080200
     81 H9C1       17.4170    1.9720   16.5250 hc        1 MYY      0.048700
     82 H9C2       19.0920    1.8390   15.8680 hc        1 MYY      0.048700
     83 H101       17.3310    4.3950   15.8160 hc        1 MYY      0.039700
     84 H102       19.0150    4.2630   15.1780 hc        1 MYY      0.039700
     85 H111       18.1500    3.7590   18.1110 hc        1 MYY      0.037700
     86 H112       19.8330    3.6200   17.4730 hc        1 MYY      0.037700
     87 H121       18.0820    6.1760   17.4060 hc        1 MYY      0.039200
     88 H122       19.7640    6.0380   16.7680 hc        1 MYY      0.039200
     89 H131       18.8990    5.5380   19.7010 hc        1 MYY      0.037200
     90 H132       20.5820    5.3990   19.0630 hc        1 MYY      0.037200
     91 H141       20.5140    7.8160   18.3560 hc        1 MYY      0.039200
     92 H142       18.8320    7.9550   18.9950 hc        1 MYY      0.039200
     93 H151       19.6510    7.3170   21.2900 hc        1 MYY      0.037700
     94 H152       21.3330    7.1770   20.6510 hc        1 MYY      0.037700
     95 H161       21.2650    9.5940   19.9440 hc        1 MYY      0.039200
     96 H162       19.5830    9.7330   20.5840 hc        1 MYY      0.039200
     97 H171       20.4040    9.0950   22.8780 hc        1 MYY      0.038200
     98 H172       22.0850    8.9550   22.2380 hc        1 MYY      0.038200
     99 H181       22.0170   11.3720   21.5310 hc        1 MYY      0.039200
    100 H182       20.3360   11.5120   22.1720 hc        1 MYY      0.039200
    101 H191       21.1550   10.8730   24.4640 hc        1 MYY      0.037700
    102 H192       22.8370   10.7330   23.8240 hc        1 MYY      0.037700
    103 H201       22.4710   12.9440   24.9220 hc        1 MYY      0.030033
    104 H202       22.7850   13.1590   23.1510 hc        1 MYY      0.030033
    105 H203       21.0990   13.2990   23.7930 hc        1 MYY      0.030033
@<TRIPOS>BOND
     1    1    2 1   
     2    1   43 1   
     3    1   44 1   
     4    1   45 1   
     5    2    3 1   
     6    2   46 1   
     7    2   47 1   
     8    3    4 1   
     9    3   48 1   
    10    3   49 1   
    11    4    5 1   
    12    4   50 1   
    13    4   51 1   
    14    5    6 1   
    15    5   52 1   
    16    5   53 1   
    17    6    7 1   
    18    6   54 1   
    19    6   55 1   
    20    7    8 1   
    21    7   56 1   
    22    7   57 1   
    23    8    9 1   
    24    8   58 1   
    25    8   59 1   
    26    9   10 1   
    27    9   60 1   
    28    9   61 1   
    29   10   11 1   
    30   10   62 1   
    31   10   63 1   
    32   11   12 1   
    33   11   64 1   
    34   11   65 1   
    35   12   13 1   
    36   12   66 1   
    37   12   67 1   
    38   13   14 1   
    39   13   68 1   
    40   13   69 1   
    41   14   15 1   
    42   14   70 1   
    43   14   71 1   
    44   15   16 1   
    45   15   72 1   
    46   15   73 1   
    47   16   17 2   
    48   16   18 1   
    49   18   19 1   
    50   19   20 1   
    51   19   74 1   
    52   19   75 1   
    53   20   21 1   
    54   20   27 1   
    55   20   76 1   
    56   21   22 1   
    57   21   77 1   
    58   21   78 1   
    59   22   23 1   
    60   23   24 1   
    61   23   25 1   
    62   23   26 1   
    63   27   28 1   
    64   28   29 2   
    65   28   30 1   
    66   30   31 1   
    67   30   79 1   
    68   30   80 1   
    69   31   32 1   
    70   31   81 1   
    71   31   82 1   
    72   32   33 1   
    73   32   83 1   
    74   32   84 1   
    75   33   34 1   
    76   33   85 1   
    77   33   86 1   
    78   34   35 1   
    79   34   87 1   
    80   34   88 1   
    81   35   36 1   
    82   35   89 1   
    83   35   90 1   
    84   36   37 1   
    85   36   91 1   
    86   36   92 1   
    87   37   38 1   
    88   37   93 1   
    89   37   94 1   
    90   38   39 1   
    91   38   95 1   
    92   38   96 1   
    93   39   40 1   
    94   39   97 1   
    95   39   98 1   
    96   40   41 1   
    97   40   99 1   
    98   40  100 1   
    99   41   42 1   
   100   41  101 1   
   101   41  102 1   
   102   42  103 1   
   103   42  104 1   
   104   42  105 1   
@<TRIPOS>SUBSTRUCTURE
     1 MYY         1 TEMP              0 ****  ****    0 ROOT
