@<TRIPOS>MOLECULE
MYZ
   41    40     1     0     0
SMALL
bcc


@<TRIPOS>ATOM
      1 C1          0.2370    0.4330    0.2830 c         1 MYZ      0.907600
      2 O1          1.4040   -0.0410    0.4090 o         1 MYZ     -0.853300
      3 O2         -0.3370    1.1310    1.1680 o         1 MYZ     -0.853300
      4 C2         -0.5440    0.1300   -1.0070 c3        1 MYZ     -0.194400
      5 C3          0.3130    0.3410   -2.2310 c3        1 MYZ     -0.065400
      6 C4         -0.3780   -0.1300   -3.4930 c3        1 MYZ     -0.078400
      7 C5          0.4830    0.1040   -4.7170 c3        1 MYZ     -0.078400
      8 C6         -0.2040   -0.3750   -5.9780 c3        1 MYZ     -0.079400
      9 C7          0.6570   -0.1390   -7.2000 c3        1 MYZ     -0.077400
     10 C8         -0.0320   -0.6210   -8.4600 c3        1 MYZ     -0.052200
     11 C9          0.7880   -0.4000   -9.6740 c2        1 MYZ     -0.159200
     12 C10         0.3980   -0.7400  -10.9080 c2        1 MYZ     -0.191200
     13 C11        -0.9040   -1.3780  -11.2100 c3        1 MYZ     -0.046200
     14 C12        -1.0820   -1.6500  -12.6890 c3        1 MYZ     -0.076400
     15 C13        -2.4190   -2.3030  -12.9700 c3        1 MYZ     -0.081400
     16 C14        -2.6030   -2.5760  -14.4410 c3        1 MYZ     -0.091100
     17 H21C       -0.8840   -0.9360   -0.9580 hc        1 MYZ      0.018700
     18 H22C       -1.4540    0.7790   -1.0520 hc        1 MYZ      0.018700
     19 H31C        1.2810   -0.2110   -2.0910 hc        1 MYZ      0.044200
     20 H32C        0.5660    1.4290   -2.3260 hc        1 MYZ      0.044200
     21 H41C       -1.3540    0.4100   -3.6130 hc        1 MYZ      0.025700
     22 H42C       -0.6150   -1.2230   -3.4060 hc        1 MYZ      0.025700
     23 H51C        1.4600   -0.4320   -4.5930 hc        1 MYZ      0.036700
     24 H52C        0.7150    1.1980   -4.8080 hc        1 MYZ      0.036700
     25 H61C       -1.1830    0.1590   -6.0990 hc        1 MYZ      0.034200
     26 H62C       -0.4340   -1.4690   -5.8870 hc        1 MYZ      0.034200
     27 H71C        0.8870    0.9560   -7.2920 hc        1 MYZ      0.039200
     28 H72C        1.6370   -0.6720   -7.0790 hc        1 MYZ      0.039200
     29 H81C       -0.2670   -1.7170   -8.3630 hc        1 MYZ      0.046700
     30 H82C       -1.0180   -0.0910   -8.5740 hc        1 MYZ      0.046700
     31 H9          1.7710    0.0730   -9.5120 ha        1 MYZ      0.122000
     32 H10         1.0550   -0.5490  -11.7720 ha        1 MYZ      0.116000
     33 H111       -1.7380   -0.7170  -10.8460 hc        1 MYZ      0.047700
     34 H112       -0.9890   -2.3430  -10.6380 hc        1 MYZ      0.047700
     35 H121       -0.2550   -2.3160  -13.0520 hc        1 MYZ      0.038700
     36 H122       -1.0060   -0.6880  -13.2610 hc        1 MYZ      0.038700
     37 H131       -2.4930   -3.2640  -12.3960 hc        1 MYZ      0.039700
     38 H132       -3.2440   -1.6360  -12.6040 hc        1 MYZ      0.039700
     39 H141       -3.5940   -3.0560  -14.6260 hc        1 MYZ      0.030367
     40 H142       -2.5570   -1.6260  -15.0270 hc        1 MYZ      0.030367
     41 H143       -1.8040   -3.2590  -14.8180 hc        1 MYZ      0.030367
@<TRIPOS>BOND
     1    1    2 1   
     2    1    3 1   
     3    1    4 1   
     4    4    5 1   
     5    4   17 1   
     6    4   18 1   
     7    5    6 1   
     8    5   19 1   
     9    5   20 1   
    10    6    7 1   
    11    6   21 1   
    12    6   22 1   
    13    7    8 1   
    14    7   23 1   
    15    7   24 1   
    16    8    9 1   
    17    8   25 1   
    18    8   26 1   
    19    9   10 1   
    20    9   27 1   
    21    9   28 1   
    22   10   11 1   
    23   10   29 1   
    24   10   30 1   
    25   11   12 2   
    26   11   31 1   
    27   12   13 1   
    28   12   32 1   
    29   13   14 1   
    30   13   33 1   
    31   13   34 1   
    32   14   15 1   
    33   14   35 1   
    34   14   36 1   
    35   15   16 1   
    36   15   37 1   
    37   15   38 1   
    38   16   39 1   
    39   16   40 1   
    40   16   41 1   
@<TRIPOS>SUBSTRUCTURE
     1 MYZ         1 TEMP              0 ****  ****    0 ROOT
