@<TRIPOS>MOLECULE
MZ0
   13    13     1     0     0
SMALL
bcc


@<TRIPOS>ATOM
      1 N1         -0.0350    0.0000    0.0070 na        1 MZ0     -0.321900
      2 C2          1.3630    0.0000   -0.0020 cc        1 MZ0      0.390400
      3 N3          1.8670    0.0000    1.2520 nd        1 MZ0     -0.670000
      4 C4          0.7670   -0.0000    2.1040 cd        1 MZ0      0.334200
      5 C5         -0.4270   -0.0000    1.3530 cc        1 MZ0     -0.234900
      6 C6         -1.8390   -0.0000    1.8000 c3        1 MZ0      0.213700
      7 O7         -1.8420   -0.0000    3.2200 oh        1 MZ0     -0.584800
      8 HN1        -0.6360   -0.0000   -0.7720 hn        1 MZ0      0.297700
      9 H2          1.9470    0.0000   -0.9280 h5        1 MZ0      0.060100
     10 H4          0.8640   -0.0000    3.1900 h4        1 MZ0      0.054100
     11 H6         -2.3730    0.9160    1.4190 h1        1 MZ0      0.028700
     12 H6A        -2.3730   -0.9160    1.4190 h1        1 MZ0      0.028700
     13 HO7        -2.7700    0.0000    3.4830 ho        1 MZ0      0.405000
@<TRIPOS>BOND
     1    1    2 1   
     2    1    5 1   
     3    1    8 1   
     4    2    3 2   
     5    2    9 1   
     6    3    4 1   
     7    4    5 2   
     8    4   10 1   
     9    5    6 1   
    10    6    7 1   
    11    6   11 1   
    12    6   12 1   
    13    7   13 1   
@<TRIPOS>SUBSTRUCTURE
     1 MZ0         1 TEMP              0 ****  ****    0 ROOT
