@<TRIPOS>MOLECULE
MZ0
   13    13     1     0     0
SMALL
bcc


@<TRIPOS>ATOM
      1 N1         -0.8960   -1.0870    0.0010 na        1 MZ0     -0.321900
      2 C2         -2.0330   -0.2730    0.0000 cc        1 MZ0      0.390400
      3 N3         -1.7040    1.0380   -0.0010 nd        1 MZ0     -0.670000
      4 C4         -0.3130    1.0810   -0.0010 cd        1 MZ0      0.334200
      5 C5          0.2110   -0.2280    0.0000 cc        1 MZ0     -0.234900
      6 C6          1.6170   -0.6960    0.0000 c3        1 MZ0      0.213700
      7 O7          2.4530    0.4520    0.0000 oh        1 MZ0     -0.584800
      8 HN1        -0.8680   -2.0700    0.0010 hn        1 MZ0      0.297700
      9 H2         -3.0490   -0.6790    0.0010 h5        1 MZ0      0.060100
     10 H4          0.2460    2.0170   -0.0010 h4        1 MZ0      0.054100
     11 H6          1.8260   -1.3180    0.9160 h1        1 MZ0      0.028700
     12 H6A         1.8260   -1.3180   -0.9150 h1        1 MZ0      0.028700
     13 HO7         3.3590    0.1200    0.0000 ho        1 MZ0      0.405000
@<TRIPOS>BOND
     1    1    2 1   
     2    1    5 1   
     3    1    8 1   
     4    2    3 2   
     5    2    9 1   
     6    3    4 1   
     7    4    5 2   
     8    4   10 1   
     9    5    6 1   
    10    6    7 1   
    11    6   11 1   
    12    6   12 1   
    13    7   13 1   
@<TRIPOS>SUBSTRUCTURE
     1 MZ0         1 TEMP              0 ****  ****    0 ROOT
