@<TRIPOS>MOLECULE
MZ0
   13    13     1     0     0
SMALL
bcc


@<TRIPOS>ATOM
      1 N1         -0.0350   -0.0010    0.0070 na        1 MZ0     -0.321900
      2 C2          1.3640   -0.0010   -0.0010 cc        1 MZ0      0.390400
      3 N3          1.8670   -0.0000    1.2530 nd        1 MZ0     -0.670000
      4 C4          0.7660    0.0010    2.1050 cd        1 MZ0      0.334200
      5 C5         -0.4270    0.0010    1.3530 cc        1 MZ0     -0.234900
      6 C6         -1.8390    0.0020    1.7990 c3        1 MZ0      0.213700
      7 O7         -1.8430   -0.0070    3.2190 oh        1 MZ0     -0.584800
      8 HN1        -0.6350   -0.0020   -0.7720 hn        1 MZ0      0.297700
      9 H2          1.9480   -0.0030   -0.9270 h5        1 MZ0      0.060100
     10 H4          0.8630    0.0020    3.1900 h4        1 MZ0      0.054100
     11 H6         -2.3710    0.9210    1.4230 h1        1 MZ0      0.028700
     12 H6A        -2.3760   -0.9100    1.4130 h1        1 MZ0      0.028700
     13 HO7        -2.7710   -0.0030    3.4820 ho        1 MZ0      0.405000
@<TRIPOS>BOND
     1    1    2 1   
     2    1    5 1   
     3    1    8 1   
     4    2    3 2   
     5    2    9 1   
     6    3    4 1   
     7    4    5 2   
     8    4   10 1   
     9    5    6 1   
    10    6    7 1   
    11    6   11 1   
    12    6   12 1   
    13    7   13 1   
@<TRIPOS>SUBSTRUCTURE
     1 MZ0         1 TEMP              0 ****  ****    0 ROOT
