@<TRIPOS>MOLECULE
MZ1
   70    71     1     0     0
SMALL
bcc


@<TRIPOS>ATOM
      1 O26         2.1440   -0.9410   -0.5930 o         1 MZ1     -0.430100
      2 C25         1.9630    0.1660   -0.1200 c         1 MZ1      0.591100
      3 C27         2.2230    0.6950    1.2400 c3        1 MZ1     -0.195100
      4 N24         1.3480    1.1760   -1.1160 n4        1 MZ1     -0.708800
      5 C22         0.7390    0.5340   -2.3290 c3        1 MZ1      0.065500
      6 C23        -0.2120    1.4790   -3.0590 c3        1 MZ1     -0.150100
      7 C21         1.8320    0.0930   -3.3220 c         1 MZ1      0.527100
      8 O22         2.8940    0.6840   -3.4660 o         1 MZ1     -0.396100
      9 N20         1.5240   -1.1060   -4.1380 n4        1 MZ1     -0.663800
     10 C19         2.5190   -1.4110   -5.2500 c3        1 MZ1      0.108500
     11 C32         2.4610   -2.9100   -5.5850 c3        1 MZ1     -0.052100
     12 C38         2.4730   -3.7780   -4.3780 ca        1 MZ1     -0.192300
     13 C37         1.2720   -4.3110   -3.8850 ca        1 MZ1     -0.137000
     14 C36         1.2890   -5.1970   -2.8100 ca        1 MZ1     -0.108000
     15 C35         2.5020   -5.5580   -2.2180 ca        1 MZ1     -0.081000
     16 C34         3.6990   -5.0290   -2.7040 ca        1 MZ1     -0.108000
     17 C33         3.6860   -4.1430   -3.7810 ca        1 MZ1     -0.137000
     18 C17         2.2270   -0.5110   -6.4850 c3        1 MZ1      0.109100
     19 O18         0.8350   -0.4770   -6.7230 oh        1 MZ1     -0.629800
     20 C16         3.0520   -0.9610   -7.7050 c3        1 MZ1      0.104800
     21 N11         2.8710   -0.1330   -8.8970 n3        1 MZ1     -0.900200
     22 S8          4.9020    1.3460   -9.3870 s4        1 MZ1      1.685300
     23 O9          4.1100    2.3720   -8.9850 o         1 MZ1     -0.424400
     24 O10         5.5870    0.5910   -8.4940 o         1 MZ1     -0.424400
     25 C5          5.2000    1.1970  -10.9030 ca        1 MZ1     -0.657500
     26 C6          4.6050    2.1480  -11.7930 ca        1 MZ1     -0.033000
     27 C7          4.8650    2.1700  -13.1500 ca        1 MZ1      0.093900
     28 F1          4.2880    3.0830  -13.9540 f         1 MZ1     -0.060900
     29 C4          6.0750    0.2330  -11.5100 ca        1 MZ1      0.343900
     30 F3          6.6370   -0.7090  -10.7320 f         1 MZ1     -0.075900
     31 C3          6.3600    0.2390  -12.8780 ca        1 MZ1     -0.231000
     32 C2          5.7740    1.2000  -13.7190 ca        1 MZ1      0.315900
     33 F2          6.0410    1.2230  -15.0210 f         1 MZ1     -0.022900
     34 C12         2.4800   -0.8990  -10.0850 c3        1 MZ1      0.223100
     35 C15         1.1330   -1.5070  -10.0650 cc        1 MZ1     -0.269400
     36 C18        -0.0460   -0.8480   -9.7320 cd        1 MZ1     -0.163000
     37 C14        -1.1830   -1.6810   -9.9240 cd        1 MZ1     -0.154000
     38 C13        -0.8170   -2.9260  -10.4050 cc        1 MZ1     -0.145100
     39 S1          0.8210   -3.0570  -10.6070 ss        1 MZ1      0.146200
     40 H271        2.3660    1.8040    1.2780 hc        1 MZ1      0.143033
     41 H272        1.3650    0.4130    1.9140 hc        1 MZ1      0.143033
     42 H273        3.1510    0.1960    1.6430 hc        1 MZ1      0.143033
     43 HN24        2.0850    1.8370   -1.4050 hn        1 MZ1      0.484800
     44 H22         0.1630   -0.3720   -1.9560 hx        1 MZ1      0.146700
     45 H231        0.3130    2.3950   -3.4300 hc        1 MZ1      0.107367
     46 H232       -0.6650    0.9480   -3.9350 hc        1 MZ1      0.107367
     47 H233       -1.0540    1.7930   -2.3880 hc        1 MZ1      0.107367
     48 HN20        1.4910   -1.9400   -3.5110 hn        1 MZ1      0.495300
     49 H19         3.5480   -1.1570   -4.8540 hx        1 MZ1      0.130700
     50 H321        1.5500   -3.1190   -6.2090 hc        1 MZ1      0.094700
     51 H322        3.3700   -3.1360   -6.2120 hc        1 MZ1      0.094700
     52 H37         0.3190   -4.0890   -4.3890 ha        1 MZ1      0.137500
     53 H36         0.3460   -5.6380   -2.4440 ha        1 MZ1      0.170000
     54 H35         2.5150   -6.2790   -1.3820 ha        1 MZ1      0.176000
     55 H34         4.6590   -5.3300   -2.2520 ha        1 MZ1      0.170000
     56 H33         4.6380   -3.7570   -4.1810 ha        1 MZ1      0.137500
     57 H17         2.4980    0.5530   -6.2100 h1        1 MZ1      0.090700
     58 HO18        0.6070   -1.0870   -7.4460 ho        1 MZ1      0.461000
     59 H161        4.1460   -0.9170   -7.4250 h1        1 MZ1      0.095700
     60 H162        2.7950   -2.0360   -7.9380 h1        1 MZ1      0.095700
     61 H6          3.9160    2.9150  -11.3810 ha        1 MZ1      0.202000
     62 H3          7.0560   -0.5120  -13.3020 ha        1 MZ1      0.228000
     63 H121        2.5320   -0.1750  -10.9540 h1        1 MZ1      0.074700
     64 H122        3.2560   -1.7020  -10.2530 h1        1 MZ1      0.074700
     65 H18        -0.1200    0.1910   -9.4010 ha        1 MZ1      0.152000
     66 H14        -2.2110   -1.3580   -9.7370 ha        1 MZ1      0.182000
     67 H13        -1.5170   -3.7310  -10.6500 h4        1 MZ1      0.208000
     68 H242        0.6130    1.7140   -0.6330 hn        1 MZ1      0.484800
     69 H202        0.5960   -0.9850   -4.5830 hn        1 MZ1      0.495300
     70 H111        2.1630    0.5680   -8.7170 hn        1 MZ1      0.397800
@<TRIPOS>BOND
     1    1    2 2   
     2    2    3 1   
     3    2    4 1   
     4    3   40 1   
     5    3   41 1   
     6    3   42 1   
     7    4    5 1   
     8    4   43 1   
     9    4   68 1   
    10    5    6 1   
    11    5    7 1   
    12    5   44 1   
    13    6   45 1   
    14    6   46 1   
    15    6   47 1   
    16    7    8 2   
    17    7    9 1   
    18    9   10 1   
    19    9   48 1   
    20    9   69 1   
    21   10   11 1   
    22   10   18 1   
    23   10   49 1   
    24   11   12 1   
    25   11   50 1   
    26   11   51 1   
    27   12   13 ar  
    28   12   17 ar  
    29   13   14 ar  
    30   13   52 1   
    31   14   15 ar  
    32   14   53 1   
    33   15   16 ar  
    34   15   54 1   
    35   16   17 ar  
    36   16   55 1   
    37   17   56 1   
    38   18   19 1   
    39   18   20 1   
    40   18   57 1   
    41   19   58 1   
    42   20   21 1   
    43   20   59 1   
    44   20   60 1   
    45   21   34 1   
    46   21   70 1   
    47   22   23 1   
    48   22   24 1   
    49   22   25 1   
    50   25   26 ar  
    51   25   29 ar  
    52   26   27 ar  
    53   26   61 1   
    54   27   28 1   
    55   27   32 ar  
    56   29   30 1   
    57   29   31 ar  
    58   31   32 ar  
    59   31   62 1   
    60   32   33 1   
    61   34   35 1   
    62   34   63 1   
    63   34   64 1   
    64   35   36 2   
    65   35   39 1   
    66   36   37 1   
    67   36   65 1   
    68   37   38 2   
    69   37   66 1   
    70   38   39 1   
    71   38   67 1   
@<TRIPOS>SUBSTRUCTURE
     1 MZ1         1 TEMP              0 ****  ****    0 ROOT
