@<TRIPOS>MOLECULE
MZ1
   67    69     1     0     0
SMALL
bcc


@<TRIPOS>ATOM
      1 O26         7.2360    0.3830    1.8670 o         1 MZ1     -0.609100
      2 C25         6.9140    1.5830    1.7610 c         1 MZ1      0.658100
      3 C27         7.9050    2.6330    1.3250 c3        1 MZ1     -0.174100
      4 N24         5.6400    2.0200    2.0950 n         1 MZ1     -0.552900
      5 C22         4.5610    1.0950    2.3390 c3        1 MZ1      0.034700
      6 C23         3.7970    1.3970    3.6300 c3        1 MZ1     -0.104100
      7 C21         3.5190    1.1350    1.1890 c         1 MZ1      0.640100
      8 O22         3.2610    2.1990    0.5880 o         1 MZ1     -0.622100
      9 N20         2.8850   -0.0470    0.8860 n         1 MZ1     -0.554900
     10 C19         1.8560   -0.1520   -0.1190 c3        1 MZ1      0.083700
     11 C32         2.1890   -1.2210   -1.1800 c3        1 MZ1     -0.053100
     12 C38         3.3490   -0.8390   -2.0280 ca        1 MZ1     -0.081300
     13 C37         4.5710   -1.5090   -1.9030 ca        1 MZ1     -0.121500
     14 C36         5.6500   -1.1590   -2.7140 ca        1 MZ1     -0.125500
     15 C35         5.5180   -0.1400   -3.6560 ca        1 MZ1     -0.130000
     16 C34         4.3020    0.5320   -3.7850 ca        1 MZ1     -0.125500
     17 C33         3.2220    0.1840   -2.9750 ca        1 MZ1     -0.121500
     18 C17         0.4750   -0.4690    0.5280 c3        1 MZ1      0.083100
     19 O18         0.3600   -1.8380    0.8500 oh        1 MZ1     -0.592800
     20 C16        -0.6450    0.0570   -0.3970 c3        1 MZ1      0.190800
     21 N11        -1.9710   -0.4240   -0.1030 n3        1 MZ1     -0.804500
     22 S8         -2.6860   -0.1720    1.3390 sy        1 MZ1      1.511200
     23 O9         -3.2820   -1.3550    1.8180 o         1 MZ1     -0.638800
     24 O10        -1.8230    0.5080    2.2150 o         1 MZ1     -0.638800
     25 C5         -3.9730    0.8900    0.9230 ca        1 MZ1     -0.381500
     26 C6         -5.2780    0.4470    1.1640 ca        1 MZ1     -0.031000
     27 C7         -6.3890    1.2600    0.9160 ca        1 MZ1      0.056900
     28 F1         -7.6410    0.8090    1.1570 f         1 MZ1     -0.114900
     29 C4         -3.8000    2.1920    0.4110 ca        1 MZ1      0.255900
     30 F3         -2.5610    2.6620    0.1450 f         1 MZ1     -0.117900
     31 C3         -4.8970    3.0350    0.1550 ca        1 MZ1     -0.216000
     32 C2         -6.1940    2.5760    0.4070 ca        1 MZ1      0.178900
     33 F2         -7.2550    3.3720    0.1680 f         1 MZ1     -0.107900
     34 C12        -2.6400   -1.1730   -1.1390 c3        1 MZ1      0.313100
     35 C15        -2.1480   -2.5560   -1.3650 cc        1 MZ1     -0.173400
     36 C18        -2.0380   -3.5430   -0.4050 cd        1 MZ1     -0.129000
     37 C14        -1.5900   -4.7780   -0.9700 cd        1 MZ1     -0.158000
     38 C13        -1.3860   -4.6710   -2.3280 cc        1 MZ1     -0.158100
     39 S1         -1.7220   -3.1340   -2.8860 ss        1 MZ1      0.011200
     40 H271        8.8920    2.1420    1.1450 hc        1 MZ1      0.068033
     41 H272        7.5630    3.1210    0.3810 hc        1 MZ1      0.068033
     42 H273        8.0250    3.4120    2.1160 hc        1 MZ1      0.068033
     43 HN24        5.3650    2.9360    1.8210 hn        1 MZ1      0.320500
     44 H22         5.0110    0.0580    2.4180 h1        1 MZ1      0.099700
     45 H231        3.3170    2.4040    3.5850 hc        1 MZ1      0.053033
     46 H232        3.0030    0.6260    3.7720 hc        1 MZ1      0.053033
     47 H233        4.4890    1.3670    4.5050 hc        1 MZ1      0.053033
     48 HN20        3.0870   -0.8660    1.4090 hn        1 MZ1      0.321500
     49 H19         1.7760    0.8530   -0.6350 h1        1 MZ1      0.094700
     50 H321        2.3830   -2.2050   -0.6750 hc        1 MZ1      0.054200
     51 H322        1.2850   -1.3550   -1.8330 hc        1 MZ1      0.054200
     52 H37         4.6830   -2.3130   -1.1600 ha        1 MZ1      0.130000
     53 H36         6.6090   -1.6880   -2.6060 ha        1 MZ1      0.132500
     54 H35         6.3700    0.1360   -4.2940 ha        1 MZ1      0.131000
     55 H34         4.1950    1.3390   -4.5240 ha        1 MZ1      0.132500
     56 H33         2.2670    0.7200   -3.0750 ha        1 MZ1      0.130000
     57 H17         0.3880    0.0490    1.5330 h1        1 MZ1      0.116700
     58 HO18        0.1650   -2.3250    0.0370 ho        1 MZ1      0.408000
     59 H161       -0.6450    1.1850   -0.3060 h1        1 MZ1      0.064200
     60 H162       -0.3900   -0.1990   -1.4640 h1        1 MZ1      0.064200
     61 H6         -5.4440   -0.5720    1.5690 ha        1 MZ1      0.194000
     62 H3         -4.7340    4.0510   -0.2370 ha        1 MZ1      0.178000
     63 H121       -3.7370   -1.2360   -0.8550 h1        1 MZ1      0.057200
     64 H122       -2.5740   -0.5960   -2.1090 h1        1 MZ1      0.057200
     65 H18        -2.2690   -3.4080    0.6580 ha        1 MZ1      0.184000
     66 H14        -1.4380   -5.6830   -0.3770 ha        1 MZ1      0.161000
     67 H13        -1.0510   -5.4740   -2.9840 h4        1 MZ1      0.175000
@<TRIPOS>BOND
     1    1    2 2   
     2    2    3 1   
     3    2    4 1   
     4    3   40 1   
     5    3   41 1   
     6    3   42 1   
     7    4    5 1   
     8    4   43 1   
     9    5    6 1   
    10    5    7 1   
    11    5   44 1   
    12    6   45 1   
    13    6   46 1   
    14    6   47 1   
    15    7    8 2   
    16    7    9 1   
    17    9   10 1   
    18    9   48 1   
    19   10   11 1   
    20   10   18 1   
    21   10   49 1   
    22   11   12 1   
    23   11   50 1   
    24   11   51 1   
    25   12   13 ar  
    26   12   17 ar  
    27   13   14 ar  
    28   13   52 1   
    29   14   15 ar  
    30   14   53 1   
    31   15   16 ar  
    32   15   54 1   
    33   16   17 ar  
    34   16   55 1   
    35   17   56 1   
    36   18   19 1   
    37   18   20 1   
    38   18   57 1   
    39   19   58 1   
    40   20   21 1   
    41   20   59 1   
    42   20   60 1   
    43   21   22 1   
    44   21   34 1   
    45   22   23 2   
    46   22   24 2   
    47   22   25 1   
    48   25   26 ar  
    49   25   29 ar  
    50   26   27 ar  
    51   26   61 1   
    52   27   28 1   
    53   27   32 ar  
    54   29   30 1   
    55   29   31 ar  
    56   31   32 ar  
    57   31   62 1   
    58   32   33 1   
    59   34   35 1   
    60   34   63 1   
    61   34   64 1   
    62   35   36 2   
    63   35   39 1   
    64   36   37 1   
    65   36   65 1   
    66   37   38 2   
    67   37   66 1   
    68   38   39 1   
    69   38   67 1   
@<TRIPOS>SUBSTRUCTURE
     1 MZ1         1 TEMP              0 ****  ****    0 ROOT
