@<TRIPOS>MOLECULE
MZ1
   70    71     1     0     0
SMALL
bcc


@<TRIPOS>ATOM
      1 O26         2.1640   -0.9610   -0.6000 o         1 MZ1     -0.430100
      2 C25         1.9870    0.1430   -0.1170 c         1 MZ1      0.592100
      3 C27         2.2510    0.6620    1.2460 c3        1 MZ1     -0.195100
      4 N24         1.3730    1.1620   -1.1050 n4        1 MZ1     -0.707800
      5 C22         0.7610    0.5300   -2.3220 c3        1 MZ1      0.065500
      6 C23        -0.1830    1.4850   -3.0490 c3        1 MZ1     -0.150100
      7 C21         1.8520    0.0870   -3.3160 c         1 MZ1      0.527100
      8 O22         2.9140    0.6750   -3.4610 o         1 MZ1     -0.396100
      9 N20         1.5400   -1.1120   -4.1310 n4        1 MZ1     -0.663800
     10 C19         2.5280   -1.4140   -5.2500 c3        1 MZ1      0.108500
     11 C32         2.4690   -2.9120   -5.5880 c3        1 MZ1     -0.052100
     12 C38         2.4910   -3.7830   -4.3830 ca        1 MZ1     -0.192300
     13 C37         1.2940   -4.3190   -3.8820 ca        1 MZ1     -0.136500
     14 C36         1.3200   -5.2060   -2.8090 ca        1 MZ1     -0.108000
     15 C35         2.5380   -5.5670   -2.2270 ca        1 MZ1     -0.081000
     16 C34         3.7300   -5.0350   -2.7200 ca        1 MZ1     -0.108000
     17 C33         3.7090   -4.1470   -3.7960 ca        1 MZ1     -0.136500
     18 C17         2.2270   -0.5120   -6.4820 c3        1 MZ1      0.109100
     19 O18         0.8330   -0.4770   -6.7100 oh        1 MZ1     -0.629800
     20 C16         3.0430   -0.9590   -7.7080 c3        1 MZ1      0.104800
     21 N11         2.8540   -0.1280   -8.8970 n3        1 MZ1     -0.900200
     22 S8          4.8830    1.3510   -9.3980 s4        1 MZ1      1.685300
     23 O9          4.0940    2.3760   -8.9890 o         1 MZ1     -0.424400
     24 O10         5.5730    0.5940   -8.5120 o         1 MZ1     -0.424400
     25 C5          5.1710    1.2050  -10.9170 ca        1 MZ1     -0.657500
     26 C6          4.5700    2.1580  -11.8010 ca        1 MZ1     -0.033000
     27 C7          4.8210    2.1820  -13.1590 ca        1 MZ1      0.093900
     28 F1          4.2390    3.0970  -13.9570 f         1 MZ1     -0.060900
     29 C4          6.0400    0.2410  -11.5310 ca        1 MZ1      0.343900
     30 F3          6.6070   -0.7020  -10.7600 f         1 MZ1     -0.075900
     31 C3          6.3160    0.2510  -12.9010 ca        1 MZ1     -0.231000
     32 C2          5.7250    1.2140  -13.7360 ca        1 MZ1      0.315900
     33 F2          5.9830    1.2390  -15.0400 f         1 MZ1     -0.022900
     34 C12         2.4540   -0.8910  -10.0840 c3        1 MZ1      0.223100
     35 C15         1.1070   -1.4980  -10.0560 cc        1 MZ1     -0.269400
     36 C18        -0.0690   -0.8400   -9.7130 cd        1 MZ1     -0.163000
     37 C14        -1.2080   -1.6730   -9.8980 cd        1 MZ1     -0.154000
     38 C13        -0.8460   -2.9160  -10.3850 cc        1 MZ1     -0.145100
     39 S1          0.7900   -3.0470  -10.5990 ss        1 MZ1      0.147200
     40 H271        1.3950    0.3720    1.9200 hc        1 MZ1      0.143033
     41 H272        2.3920    1.7710    1.2930 hc        1 MZ1      0.143033
     42 H273        3.1810    0.1610    1.6410 hc        1 MZ1      0.143033
     43 HN24        2.1110    1.8230   -1.3910 hn        1 MZ1      0.484800
     44 H22         0.1780   -0.3730   -1.9530 hx        1 MZ1      0.145700
     45 H231       -1.0240    1.8010   -2.3770 hc        1 MZ1      0.107700
     46 H232        0.3480    2.3990   -3.4140 hc        1 MZ1      0.107700
     47 H233       -0.6380    0.9610   -3.9280 hc        1 MZ1      0.107700
     48 HN20        0.6090   -0.9940   -4.5690 hn        1 MZ1      0.495800
     49 H19         3.5590   -1.1600   -4.8600 hx        1 MZ1      0.130700
     50 H321        3.3730   -3.1370   -6.2220 hc        1 MZ1      0.094700
     51 H322        1.5540   -3.1210   -6.2050 hc        1 MZ1      0.094700
     52 H37         0.3370   -4.0960   -4.3790 ha        1 MZ1      0.137500
     53 H36         0.3810   -5.6490   -2.4380 ha        1 MZ1      0.169500
     54 H35         2.5580   -6.2900   -1.3930 ha        1 MZ1      0.176000
     55 H34         4.6940   -5.3370   -2.2760 ha        1 MZ1      0.169500
     56 H33         4.6570   -3.7600   -4.2010 ha        1 MZ1      0.137500
     57 H17         2.5000    0.5520   -6.2070 h1        1 MZ1      0.090700
     58 HO18        0.6010   -1.0850   -7.4330 ho        1 MZ1      0.461000
     59 H161        2.7850   -2.0330   -7.9420 h1        1 MZ1      0.095700
     60 H162        4.1390   -0.9150   -7.4350 h1        1 MZ1      0.095700
     61 H6          3.8840    2.9250  -11.3820 ha        1 MZ1      0.202000
     62 H3          7.0100   -0.5000  -13.3320 ha        1 MZ1      0.228000
     63 H121        2.5010   -0.1650  -10.9520 h1        1 MZ1      0.074700
     64 H122        3.2290   -1.6950  -10.2590 h1        1 MZ1      0.074700
     65 H18        -0.1400    0.1980   -9.3790 ha        1 MZ1      0.152000
     66 H14        -2.2350   -1.3480   -9.7040 ha        1 MZ1      0.182000
     67 H13        -1.5480   -3.7200  -10.6270 h4        1 MZ1      0.208000
     68 H242        0.6400    1.6990   -0.6180 hn        1 MZ1      0.484800
     69 H202        1.5140   -1.9470   -3.5050 hn        1 MZ1      0.495800
     70 H111        2.1480    0.5730   -8.7100 hn        1 MZ1      0.397800
@<TRIPOS>BOND
     1    1    2 2   
     2    2    3 1   
     3    2    4 1   
     4    3   40 1   
     5    3   41 1   
     6    3   42 1   
     7    4    5 1   
     8    4   43 1   
     9    4   68 1   
    10    5    6 1   
    11    5    7 1   
    12    5   44 1   
    13    6   45 1   
    14    6   46 1   
    15    6   47 1   
    16    7    8 2   
    17    7    9 1   
    18    9   10 1   
    19    9   48 1   
    20    9   69 1   
    21   10   11 1   
    22   10   18 1   
    23   10   49 1   
    24   11   12 1   
    25   11   50 1   
    26   11   51 1   
    27   12   13 ar  
    28   12   17 ar  
    29   13   14 ar  
    30   13   52 1   
    31   14   15 ar  
    32   14   53 1   
    33   15   16 ar  
    34   15   54 1   
    35   16   17 ar  
    36   16   55 1   
    37   17   56 1   
    38   18   19 1   
    39   18   20 1   
    40   18   57 1   
    41   19   58 1   
    42   20   21 1   
    43   20   59 1   
    44   20   60 1   
    45   21   34 1   
    46   21   70 1   
    47   22   23 1   
    48   22   24 1   
    49   22   25 1   
    50   25   26 ar  
    51   25   29 ar  
    52   26   27 ar  
    53   26   61 1   
    54   27   28 1   
    55   27   32 ar  
    56   29   30 1   
    57   29   31 ar  
    58   31   32 ar  
    59   31   62 1   
    60   32   33 1   
    61   34   35 1   
    62   34   63 1   
    63   34   64 1   
    64   35   36 2   
    65   35   39 1   
    66   36   37 1   
    67   36   65 1   
    68   37   38 2   
    69   37   66 1   
    70   38   39 1   
    71   38   67 1   
@<TRIPOS>SUBSTRUCTURE
     1 MZ1         1 TEMP              0 ****  ****    0 ROOT
