@<TRIPOS>MOLECULE
MZ1
   70    71     1     0     0
SMALL
bcc


@<TRIPOS>ATOM
      1 O26         2.1370   -0.9480   -0.5980 o         1 MZ1     -0.430100
      2 C25         1.9440    0.1560   -0.1220 c         1 MZ1      0.592100
      3 C27         2.1950    0.6840    1.2400 c3        1 MZ1     -0.195100
      4 N24         1.3220    1.1630   -1.1170 ny        1 MZ1     -0.707800
      5 C22         0.7230    0.5170   -2.3330 c3        1 MZ1      0.065500
      6 C23        -0.2330    1.4570   -3.0670 c3        1 MZ1     -0.150100
      7 C21         1.8230    0.0860   -3.3220 c         1 MZ1      0.527100
      8 O22         2.8790    0.6880   -3.4640 o         1 MZ1     -0.396100
      9 N20         1.5290   -1.1170   -4.1380 ny        1 MZ1     -0.663800
     10 C19         2.5270   -1.4110   -5.2490 c3        1 MZ1      0.108500
     11 C32         2.4870   -2.9100   -5.5840 c3        1 MZ1     -0.052100
     12 C38         2.5100   -3.7780   -4.3770 ca        1 MZ1     -0.192300
     13 C37         1.3160   -4.3250   -3.8840 ca        1 MZ1     -0.136500
     14 C36         1.3440   -5.2110   -2.8080 ca        1 MZ1     -0.108000
     15 C35         2.5620   -5.5570   -2.2170 ca        1 MZ1     -0.081000
     16 C34         3.7520   -5.0130   -2.7040 ca        1 MZ1     -0.108000
     17 C33         3.7280   -4.1280   -3.7810 ca        1 MZ1     -0.136500
     18 C17         2.2240   -0.5140   -6.4850 c3        1 MZ1      0.109100
     19 O18         0.8320   -0.4960   -6.7220 oh        1 MZ1     -0.629800
     20 C16         3.0530   -0.9550   -7.7050 c3        1 MZ1      0.104800
     21 N11         2.8620   -0.1290   -8.8970 n7        1 MZ1     -0.900200
     22 S8          4.8770    1.3720   -9.3890 s4        1 MZ1      1.685300
     23 O9          4.0750    2.3890   -8.9870 o         1 MZ1     -0.424400
     24 O10         5.5710    0.6240   -8.4970 o         1 MZ1     -0.424400
     25 C5          5.1760    1.2260  -10.9050 ca        1 MZ1     -0.657500
     26 C6          4.5700    2.1700  -11.7950 ca        1 MZ1     -0.033000
     27 C7          4.8280    2.1940  -13.1520 ca        1 MZ1      0.093900
     28 F1          4.2410    3.1010  -13.9560 f         1 MZ1     -0.060900
     29 C4          6.0600    0.2710  -11.5120 ca        1 MZ1      0.343900
     30 F3          6.6330   -0.6640  -10.7350 f         1 MZ1     -0.075900
     31 C3          6.3440    0.2810  -12.8810 ca        1 MZ1     -0.231000
     32 C2          5.7470    1.2350  -13.7210 ca        1 MZ1      0.315900
     33 F2          6.0130    1.2600  -15.0240 f         1 MZ1     -0.022900
     34 C12         2.4790   -0.8990  -10.0850 c3        1 MZ1      0.223100
     35 C15         1.1380   -1.5220  -10.0640 cc        1 MZ1     -0.269400
     36 C18        -0.0470   -0.8750   -9.7300 cd        1 MZ1     -0.163000
     37 C14        -1.1750   -1.7210   -9.9210 cd        1 MZ1     -0.154000
     38 C13        -0.7970   -2.9620  -10.4020 cc        1 MZ1     -0.145100
     39 S1          0.8430   -3.0750  -10.6050 ss        1 MZ1      0.146200
     40 H271        3.1290    0.1960    1.6430 hc        1 MZ1      0.142700
     41 H272        2.3240    1.7950    1.2820 hc        1 MZ1      0.142700
     42 H273        1.3400    0.3880    1.9120 hc        1 MZ1      0.142700
     43 HN24        0.5800    1.6920   -0.6350 hn        1 MZ1      0.484800
     44 H22         0.1510   -0.3930   -1.9630 hx        1 MZ1      0.146700
     45 H231       -1.0800    1.7630   -2.3980 hc        1 MZ1      0.107700
     46 H232        0.2870    2.3770   -3.4340 hc        1 MZ1      0.107700
     47 H233       -0.6780    0.9230   -3.9450 hc        1 MZ1      0.107700
     48 HN20        0.5990   -1.0090   -4.5810 hn        1 MZ1      0.495800
     49 H19         3.5530   -1.1440   -4.8540 hx        1 MZ1      0.130700
     50 H321        1.5780   -3.1300   -6.2070 hc        1 MZ1      0.094700
     51 H322        3.3980   -3.1260   -6.2120 hc        1 MZ1      0.094700
     52 H37         0.3600   -4.1140   -4.3870 ha        1 MZ1      0.137500
     53 H36         0.4070   -5.6630   -2.4420 ha        1 MZ1      0.170000
     54 H35         2.5840   -6.2770   -1.3810 ha        1 MZ1      0.176000
     55 H34         4.7160   -5.3030   -2.2520 ha        1 MZ1      0.170000
     56 H33         4.6750   -3.7310   -4.1810 ha        1 MZ1      0.137500
     57 H17         2.4830    0.5530   -6.2100 h1        1 MZ1      0.090700
     58 HO18        0.6100   -1.1080   -7.4450 ho        1 MZ1      0.461000
     59 H161        4.1470   -0.8980   -7.4250 h1        1 MZ1      0.095700
     60 H162        2.8080   -2.0320   -7.9380 h1        1 MZ1      0.095700
     61 H6          3.8720    2.9300  -11.3820 ha        1 MZ1      0.202000
     62 H3          7.0480   -0.4630  -13.3050 ha        1 MZ1      0.228000
     63 H121        3.2630   -1.6950  -10.2530 h1        1 MZ1      0.074700
     64 H122        2.5230   -0.1750  -10.9540 h1        1 MZ1      0.074700
     65 H18        -0.1320    0.1630   -9.3990 ha        1 MZ1      0.152000
     66 H14        -2.2070   -1.4080   -9.7330 ha        1 MZ1      0.182000
     67 H13        -1.4880   -3.7740  -10.6470 h4        1 MZ1      0.208000
     68 H242        2.0530    1.8320   -1.4020 hn        1 MZ1      0.484800
     69 H202        1.5070   -1.9510   -3.5100 hn        1 MZ1      0.495800
     70 H111        2.1470    0.5640   -8.7160 hn        1 MZ1      0.397800
@<TRIPOS>BOND
     1    1    2 2   
     2    2    3 1   
     3    2    4 1   
     4    3   40 1   
     5    3   41 1   
     6    3   42 1   
     7    4    5 1   
     8    4   43 1   
     9    4   68 1   
    10    5    6 1   
    11    5    7 1   
    12    5   44 1   
    13    6   45 1   
    14    6   46 1   
    15    6   47 1   
    16    7    8 2   
    17    7    9 1   
    18    9   10 1   
    19    9   48 1   
    20    9   69 1   
    21   10   11 1   
    22   10   18 1   
    23   10   49 1   
    24   11   12 1   
    25   11   50 1   
    26   11   51 1   
    27   12   13 ar  
    28   12   17 ar  
    29   13   14 ar  
    30   13   52 1   
    31   14   15 ar  
    32   14   53 1   
    33   15   16 ar  
    34   15   54 1   
    35   16   17 ar  
    36   16   55 1   
    37   17   56 1   
    38   18   19 1   
    39   18   20 1   
    40   18   57 1   
    41   19   58 1   
    42   20   21 1   
    43   20   59 1   
    44   20   60 1   
    45   21   34 1   
    46   21   70 1   
    47   22   23 1   
    48   22   24 1   
    49   22   25 1   
    50   25   26 ar  
    51   25   29 ar  
    52   26   27 ar  
    53   26   61 1   
    54   27   28 1   
    55   27   32 ar  
    56   29   30 1   
    57   29   31 ar  
    58   31   32 ar  
    59   31   62 1   
    60   32   33 1   
    61   34   35 1   
    62   34   63 1   
    63   34   64 1   
    64   35   36 2   
    65   35   39 1   
    66   36   37 1   
    67   36   65 1   
    68   37   38 2   
    69   37   66 1   
    70   38   39 1   
    71   38   67 1   
@<TRIPOS>SUBSTRUCTURE
     1 MZ1         1 TEMP              0 ****  ****    0 ROOT
