@<TRIPOS>MOLECULE
MZ2
   66    67     1     0     0
SMALL
bcc


@<TRIPOS>ATOM
      1 F26         1.0910    0.1170    1.0360 f         1 MZ2     -0.203300
      2 C25         2.4350    0.3790    1.0790 c3        1 MZ2      0.660100
      3 F28         2.7600    0.4010    2.4080 f         1 MZ2     -0.203300
      4 F27         3.0390   -0.7340    0.5590 f         1 MZ2     -0.203300
      5 C23         2.8610    1.6830    0.3430 c2        1 MZ2      0.039600
      6 C24         4.3030    1.9480    0.4160 c3        1 MZ2     -0.128900
      7 C22         1.9030    2.4120   -0.2660 ce        1 MZ2     -0.295200
      8 C21         2.1580    3.6550   -0.9790 c         1 MZ2      0.578300
      9 O22         3.1730    4.3370   -1.0480 o         1 MZ2     -0.443100
     10 N20         0.9510    4.1750   -1.7450 ny        1 MZ2     -0.679800
     11 C19         1.2420    5.3290   -2.6680 c3        1 MZ2      0.100500
     12 C32         0.2700    5.3280   -3.8600 c3        1 MZ2     -0.051100
     13 C38         0.1660    3.9930   -4.5050 ca        1 MZ2     -0.176300
     14 C37        -0.9450    3.1750   -4.2560 ca        1 MZ2     -0.132500
     15 C36        -1.0670    1.9440   -4.8980 ca        1 MZ2     -0.110000
     16 C35        -0.0830    1.5220   -5.7940 ca        1 MZ2     -0.088000
     17 C34         1.0230    2.3340   -6.0480 ca        1 MZ2     -0.110000
     18 C33         1.1480    3.5670   -5.4080 ca        1 MZ2     -0.132500
     19 C17         1.1990    6.6600   -1.8710 c3        1 MZ2      0.099100
     20 O18        -0.0220    6.7900   -1.1760 oh        1 MZ2     -0.596800
     21 C16         1.4740    7.8590   -2.7930 c3        1 MZ2      0.092800
     22 N11         1.5360    9.1340   -2.0680 n7        1 MZ2     -0.911200
     23 S8          3.6650    9.4210   -1.0960 s4        1 MZ2      1.670300
     24 O9          3.5050    8.3100   -0.3240 o         1 MZ2     -0.430900
     25 O10         4.3010    9.3810   -2.2920 o         1 MZ2     -0.430900
     26 C5          3.4480   10.8110   -0.3960 ca        1 MZ2     -0.629500
     27 C6          3.0580   10.8050    0.9760 ca        1 MZ2     -0.030000
     28 C7          2.9120   11.9640    1.7170 ca        1 MZ2      0.087900
     29 F1          2.5450   11.9180    3.0130 f         1 MZ2     -0.070900
     30 C4          3.6630   12.0970   -0.9860 ca        1 MZ2      0.334900
     31 F3          4.0000   12.1710   -2.2860 f         1 MZ2     -0.076900
     32 C3          3.5310   13.2840   -0.2550 ca        1 MZ2     -0.227000
     33 C2          3.1620   13.2420    1.0970 ca        1 MZ2      0.296900
     34 F2          3.0350   14.3630    1.8070 f         1 MZ2     -0.036900
     35 C12         1.2310   10.2800   -2.9420 c3        1 MZ2      0.226100
     36 C15        -0.1890   10.4280   -3.3150 cc        1 MZ2     -0.261400
     37 C18        -1.2510   10.4840   -2.4200 cd        1 MZ2     -0.140000
     38 C14        -2.4880   10.7020   -3.0890 cd        1 MZ2     -0.150000
     39 C13        -2.3060   10.8130   -4.4560 cc        1 MZ2     -0.143100
     40 S1         -0.7140   10.6560   -4.8860 ss        1 MZ2      0.132200
     41 H241        4.6160    2.8370   -0.1830 hc        1 MZ2      0.106700
     42 H242        4.5970    2.1150    1.4900 hc        1 MZ2      0.106700
     43 H243        4.8720    1.0480    0.0530 hc        1 MZ2      0.106700
     44 H22         0.8530    2.0600   -0.2250 ha        1 MZ2      0.184000
     45 HN20        0.2410    4.4760   -1.0620 hn        1 MZ2      0.477300
     46 H19         2.2950    5.1860   -3.0610 hx        1 MZ2      0.127700
     47 H321        0.6620    6.0700   -4.6090 hc        1 MZ2      0.081700
     48 H322       -0.7430    5.6800   -3.5260 hc        1 MZ2      0.081700
     49 H37        -1.7490    3.5200   -3.5870 ha        1 MZ2      0.135500
     50 H36        -1.9500    1.3110   -4.7120 ha        1 MZ2      0.163500
     51 H35        -0.1860    0.5530   -6.3110 ha        1 MZ2      0.168000
     52 H34         1.7930    2.0090   -6.7670 ha        1 MZ2      0.163500
     53 H33         2.0100    4.2130   -5.6310 ha        1 MZ2      0.135500
     54 H17         1.9800    6.6130   -1.0480 h1        1 MZ2      0.124700
     55 HO18       -0.7160    7.0420   -1.8030 ho        1 MZ2      0.431000
     56 H161        0.6660    7.9050   -3.5820 h1        1 MZ2      0.093200
     57 H162        2.4630    7.7100   -3.3150 h1        1 MZ2      0.093200
     58 H6          2.8770    9.8340    1.4830 ha        1 MZ2      0.197000
     59 H3          3.7230   14.2590   -0.7460 ha        1 MZ2      0.223000
     60 H121        1.5610   11.2010   -2.3710 h1        1 MZ2      0.077700
     61 H122        1.8750   10.1980   -3.8670 h1        1 MZ2      0.077700
     62 H18        -1.1720   10.3960   -1.3340 ha        1 MZ2      0.148000
     63 H14        -3.4490   10.7840   -2.5740 ha        1 MZ2      0.181000
     64 H13        -3.1050   10.9970   -5.1790 h4        1 MZ2      0.203000
     65 H202        0.5600    3.3970   -2.3040 hn        1 MZ2      0.477300
     66 H111        0.8590    9.1070   -1.3140 hn        1 MZ2      0.407800
@<TRIPOS>BOND
     1    1    2 1   
     2    2    3 1   
     3    2    4 1   
     4    2    5 1   
     5    5    6 1   
     6    5    7 2   
     7    6   41 1   
     8    6   42 1   
     9    6   43 1   
    10    7    8 1   
    11    7   44 1   
    12    8    9 2   
    13    8   10 1   
    14   10   11 1   
    15   10   45 1   
    16   10   65 1   
    17   11   12 1   
    18   11   19 1   
    19   11   46 1   
    20   12   13 1   
    21   12   47 1   
    22   12   48 1   
    23   13   14 ar  
    24   13   18 ar  
    25   14   15 ar  
    26   14   49 1   
    27   15   16 ar  
    28   15   50 1   
    29   16   17 ar  
    30   16   51 1   
    31   17   18 ar  
    32   17   52 1   
    33   18   53 1   
    34   19   20 1   
    35   19   21 1   
    36   19   54 1   
    37   20   55 1   
    38   21   22 1   
    39   21   56 1   
    40   21   57 1   
    41   22   35 1   
    42   22   66 1   
    43   23   24 1   
    44   23   25 1   
    45   23   26 1   
    46   26   27 ar  
    47   26   30 ar  
    48   27   28 ar  
    49   27   58 1   
    50   28   29 1   
    51   28   33 ar  
    52   30   31 1   
    53   30   32 ar  
    54   32   33 ar  
    55   32   59 1   
    56   33   34 1   
    57   35   36 1   
    58   35   60 1   
    59   35   61 1   
    60   36   37 2   
    61   36   40 1   
    62   37   38 1   
    63   37   62 1   
    64   38   39 2   
    65   38   63 1   
    66   39   40 1   
    67   39   64 1   
@<TRIPOS>SUBSTRUCTURE
     1 MZ2         1 TEMP              0 ****  ****    0 ROOT
