@<TRIPOS>MOLECULE
MZ2
   64    66     1     0     0
SMALL
bcc


@<TRIPOS>ATOM
      1 F26        -6.0520    1.5120   -3.8070 f         1 MZ2     -0.234633
      2 C25        -6.4920    1.9370   -2.5780 c3        1 MZ2      0.664100
      3 F28        -6.9880    3.1960   -2.8130 f         1 MZ2     -0.234633
      4 F27        -7.6080    1.1710   -2.3380 f         1 MZ2     -0.234633
      5 C23        -5.4530    1.8790   -1.4500 c2        1 MZ2     -0.110400
      6 C24        -5.9690    2.3340   -0.1420 c3        1 MZ2     -0.080900
      7 C22        -4.2160    1.4420   -1.7050 ce        1 MZ2     -0.173200
      8 C21        -3.1440    1.3660   -0.6690 c         1 MZ2      0.668300
      9 O22        -2.7990    2.3570    0.0050 o         1 MZ2     -0.597100
     10 N20        -2.5510    0.1310   -0.5070 n         1 MZ2     -0.556900
     11 C19        -1.4540   -0.0920    0.4030 c3        1 MZ2      0.083700
     12 C32        -1.7430   -1.2470    1.3830 c3        1 MZ2     -0.053100
     13 C38        -2.8570   -0.9450    2.3200 ca        1 MZ2     -0.080300
     14 C37        -4.0400   -1.6910    2.2740 ca        1 MZ2     -0.123500
     15 C36        -5.0750   -1.4240    3.1700 ca        1 MZ2     -0.127000
     16 C35        -4.9360   -0.4110    4.1190 ca        1 MZ2     -0.129000
     17 C34        -3.7590    0.3350    4.1700 ca        1 MZ2     -0.127000
     18 C33        -2.7230    0.0690    3.2760 ca        1 MZ2     -0.123500
     19 C17        -0.1340   -0.3820   -0.3720 c3        1 MZ2      0.082100
     20 O18        -0.0870   -1.7190   -0.8200 oh        1 MZ2     -0.591800
     21 C16         1.0670    0.0320    0.5090 c3        1 MZ2      0.191800
     22 N11         2.3520   -0.4500    0.0720 n3        1 MZ2     -0.804500
     23 S8          2.9660   -0.0820   -1.3930 sy        1 MZ2      1.511200
     24 O9          3.4940   -1.2290   -2.0160 o         1 MZ2     -0.638800
     25 O10         2.0560    0.6870   -2.1370 o         1 MZ2     -0.638800
     26 C5          4.3060    0.9150   -0.9840 ca        1 MZ2     -0.383500
     27 C6          5.5780    0.4720   -1.3610 ca        1 MZ2     -0.031000
     28 C7          6.7240    1.2390   -1.1290 ca        1 MZ2      0.057900
     29 F1          7.9420    0.7880   -1.5020 f         1 MZ2     -0.114900
     30 C4          4.2040    2.1690   -0.3480 ca        1 MZ2      0.255900
     31 F3          2.9990    2.6350    0.0510 f         1 MZ2     -0.117900
     32 C3          5.3370    2.9670   -0.1050 ca        1 MZ2     -0.216000
     33 C2          6.6000    2.5090   -0.4940 ca        1 MZ2      0.179900
     34 F2          7.6950    3.2600   -0.2680 f         1 MZ2     -0.107900
     35 C12         3.0750   -1.3040    0.9830 c3        1 MZ2      0.313100
     36 C15         2.5620   -2.6910    1.1210 cc        1 MZ2     -0.174400
     37 C18         2.3610   -3.5860    0.0870 cd        1 MZ2     -0.129000
     38 C14         1.9200   -4.8570    0.5700 cd        1 MZ2     -0.158000
     39 C13         1.8120   -4.8690    1.9430 cc        1 MZ2     -0.158100
     40 S1          2.2260   -3.3950    2.6110 ss        1 MZ2      0.011200
     41 H241       -5.1510    2.3790    0.6200 hc        1 MZ2      0.071700
     42 H242       -6.4150    3.3560   -0.2470 hc        1 MZ2      0.071700
     43 H243       -6.7670    1.6360    0.2150 hc        1 MZ2      0.071700
     44 H22        -3.9090    1.1340   -2.7200 ha        1 MZ2      0.163000
     45 HN20       -2.8020   -0.6220   -1.1010 hn        1 MZ2      0.322500
     46 H19        -1.3040    0.8580    1.0010 h1        1 MZ2      0.094700
     47 H321       -1.9660   -2.1830    0.8030 hc        1 MZ2      0.056200
     48 H322       -0.8080   -1.4370    1.9760 hc        1 MZ2      0.056200
     49 H37        -4.1560   -2.4910    1.5290 ha        1 MZ2      0.130500
     50 H36        -6.0020   -2.0140    3.1270 ha        1 MZ2      0.133500
     51 H35        -5.7530   -0.2010    4.8250 ha        1 MZ2      0.133000
     52 H34        -3.6470    1.1360    4.9150 ha        1 MZ2      0.133500
     53 H33        -1.7980    0.6630    3.3170 ha        1 MZ2      0.130500
     54 H17        -0.1050    0.2220   -1.3310 h1        1 MZ2      0.117700
     55 HO18        0.1740   -2.2800   -0.0760 ho        1 MZ2      0.408000
     56 H161        1.0920    1.1630    0.5190 h1        1 MZ2      0.064700
     57 H162        0.8830   -0.3150    1.5650 h1        1 MZ2      0.064700
     58 H6          5.6890   -0.5100   -1.8650 ha        1 MZ2      0.194000
     59 H3          5.2290    3.9470    0.3850 ha        1 MZ2      0.179000
     60 H121        4.1450   -1.3630    0.6120 h1        1 MZ2      0.057700
     61 H122        3.0960   -0.8170    2.0030 h1        1 MZ2      0.057700
     62 H18         2.5230   -3.3600   -0.9740 ha        1 MZ2      0.184000
     63 H14         1.7050   -5.7020   -0.0880 ha        1 MZ2      0.161000
     64 H13         1.5020   -5.7210    2.5470 h4        1 MZ2      0.175000
@<TRIPOS>BOND
     1    1    2 1   
     2    2    3 1   
     3    2    4 1   
     4    2    5 1   
     5    5    6 1   
     6    5    7 2   
     7    6   41 1   
     8    6   42 1   
     9    6   43 1   
    10    7    8 1   
    11    7   44 1   
    12    8    9 2   
    13    8   10 1   
    14   10   11 1   
    15   10   45 1   
    16   11   12 1   
    17   11   19 1   
    18   11   46 1   
    19   12   13 1   
    20   12   47 1   
    21   12   48 1   
    22   13   14 ar  
    23   13   18 ar  
    24   14   15 ar  
    25   14   49 1   
    26   15   16 ar  
    27   15   50 1   
    28   16   17 ar  
    29   16   51 1   
    30   17   18 ar  
    31   17   52 1   
    32   18   53 1   
    33   19   20 1   
    34   19   21 1   
    35   19   54 1   
    36   20   55 1   
    37   21   22 1   
    38   21   56 1   
    39   21   57 1   
    40   22   23 1   
    41   22   35 1   
    42   23   24 2   
    43   23   25 2   
    44   23   26 1   
    45   26   27 ar  
    46   26   30 ar  
    47   27   28 ar  
    48   27   58 1   
    49   28   29 1   
    50   28   33 ar  
    51   30   31 1   
    52   30   32 ar  
    53   32   33 ar  
    54   32   59 1   
    55   33   34 1   
    56   35   36 1   
    57   35   60 1   
    58   35   61 1   
    59   36   37 2   
    60   36   40 1   
    61   37   38 1   
    62   37   62 1   
    63   38   39 2   
    64   38   63 1   
    65   39   40 1   
    66   39   64 1   
@<TRIPOS>SUBSTRUCTURE
     1 MZ2         1 TEMP              0 ****  ****    0 ROOT
