@<TRIPOS>MOLECULE
MZ2
   66    67     1     0     0
SMALL
bcc


@<TRIPOS>ATOM
      1 F26        -0.3460   -0.4560   -0.6110 f         1 MZ2     -0.203633
      2 C25         0.6660   -0.2160    0.2810 c3        1 MZ2      0.660100
      3 F28         0.1250   -0.4460    1.5160 f         1 MZ2     -0.203633
      4 F27         1.5770   -1.2170    0.0730 f         1 MZ2     -0.203633
      5 C23         1.3040    1.1990    0.1660 c2        1 MZ2      0.038600
      6 C24         2.3730    1.4360    1.1450 c3        1 MZ2     -0.128900
      7 C22         0.8320    2.0350   -0.7820 ce        1 MZ2     -0.295200
      8 C21         1.3270    3.3880   -0.9950 c         1 MZ2      0.577300
      9 O22         2.1210    4.0520   -0.3380 o         1 MZ2     -0.451100
     10 N20         0.7470    4.0650   -2.2220 n4        1 MZ2     -0.678800
     11 C19         1.4460    5.3360   -2.6310 c3        1 MZ2      0.142500
     12 C32         1.2290    5.6070   -4.1290 c3        1 MZ2     -0.052100
     13 C38         1.5160    4.4120   -4.9670 ca        1 MZ2     -0.175300
     14 C37         0.4620    3.6480   -5.4860 ca        1 MZ2     -0.133000
     15 C36         0.7290    2.5560   -6.3100 ca        1 MZ2     -0.112000
     16 C35         2.0470    2.2190   -6.6220 ca        1 MZ2     -0.090000
     17 C34         3.1000    2.9800   -6.1100 ca        1 MZ2     -0.112000
     18 C33         2.8370    4.0740   -5.2870 ca        1 MZ2     -0.133000
     19 C17         0.9610    6.5290   -1.7620 c3        1 MZ2      0.110100
     20 O18        -0.4490    6.5540   -1.8830 oh        1 MZ2     -0.620800
     21 C16         1.6050    7.8400   -2.2570 c3        1 MZ2      0.094800
     22 N11         1.5990    8.9490   -1.3060 n3        1 MZ2     -0.911200
     23 S8          3.8390    9.9240   -0.9980 s4        1 MZ2      1.674300
     24 O9          3.7450    9.5970    0.3160 o         1 MZ2     -0.418900
     25 O10         4.3560    9.0850   -1.9270 o         1 MZ2     -0.418900
     26 C5          3.6260   11.4280   -1.3820 ca        1 MZ2     -0.636500
     27 C6          3.2730   12.3330   -0.3360 ca        1 MZ2     -0.029000
     28 C7          3.1390   13.6950   -0.5400 ca        1 MZ2      0.088900
     29 F1          2.8080   14.5200    0.4730 f         1 MZ2     -0.066900
     30 C4          3.8120   12.0030   -2.6800 ca        1 MZ2      0.337900
     31 F3          4.1140   11.1970   -3.7140 f         1 MZ2     -0.076900
     32 C3          3.6890   13.3780   -2.9100 ca        1 MZ2     -0.231000
     33 C2          3.3590   14.2430   -1.8560 ca        1 MZ2      0.298900
     34 F2          3.2440   15.5540   -2.0590 f         1 MZ2     -0.035900
     35 C12         0.5860    9.9810   -1.5570 c3        1 MZ2      0.229100
     36 C15        -0.7660    9.7160   -1.0230 cc        1 MZ2     -0.266400
     37 C18        -1.0560    9.2470    0.2540 cd        1 MZ2     -0.154000
     38 C14        -2.4590    9.1930    0.4850 cd        1 MZ2     -0.149000
     39 C13        -3.1670    9.6350   -0.6190 cc        1 MZ2     -0.145100
     40 S1         -2.1670   10.0830   -1.8600 ss        1 MZ2      0.137200
     41 H241        3.1370    0.6130    1.0760 hc        1 MZ2      0.106367
     42 H242        2.8860    2.4180    1.0020 hc        1 MZ2      0.106367
     43 H243        1.9410    1.4010    2.1830 hc        1 MZ2      0.106367
     44 H22         0.0130    1.6880   -1.4430 ha        1 MZ2      0.184000
     45 HN20       -0.2430    4.2860   -2.0370 hn        1 MZ2      0.480300
     46 H19         2.5500    5.1840   -2.4330 hx        1 MZ2      0.118700
     47 H321        1.9240    6.4410   -4.4200 hc        1 MZ2      0.089200
     48 H322        0.1760    5.9650   -4.2920 hc        1 MZ2      0.089200
     49 H37        -0.5820    3.9340   -5.2820 ha        1 MZ2      0.136500
     50 H36        -0.1040    1.9680   -6.7290 ha        1 MZ2      0.162000
     51 H35         2.2560    1.3610   -7.2820 ha        1 MZ2      0.166000
     52 H34         4.1400    2.7240   -6.3670 ha        1 MZ2      0.162000
     53 H33         3.6700    4.6840   -4.9060 ha        1 MZ2      0.136500
     54 H17         1.2490    6.3310   -0.6870 h1        1 MZ2      0.071700
     55 HO18       -0.7840    7.3020   -1.3620 ho        1 MZ2      0.453000
     56 H161        2.6880    7.6250   -2.5010 h1        1 MZ2      0.096200
     57 H162        1.0850    8.1440   -3.2120 h1        1 MZ2      0.096200
     58 H6          3.1140   11.9390    0.6910 ha        1 MZ2      0.203000
     59 H3          3.8590   13.7860   -3.9260 ha        1 MZ2      0.222000
     60 H121        0.5270   10.1740   -2.6680 h1        1 MZ2      0.069200
     61 H122        0.9850   10.9220   -1.0660 h1        1 MZ2      0.069200
     62 H18        -0.3220    8.9780    1.0170 ha        1 MZ2      0.152000
     63 H14        -2.9050    8.8580    1.4260 ha        1 MZ2      0.182000
     64 H13        -4.2570    9.6980   -0.6770 h4        1 MZ2      0.204000
     65 H202        0.7870    3.4040   -3.0170 hn        1 MZ2      0.480300
     66 H111        1.4660    8.5890   -0.3680 hn        1 MZ2      0.399800
@<TRIPOS>BOND
     1    1    2 1   
     2    2    3 1   
     3    2    4 1   
     4    2    5 1   
     5    5    6 1   
     6    5    7 2   
     7    6   41 1   
     8    6   42 1   
     9    6   43 1   
    10    7    8 1   
    11    7   44 1   
    12    8    9 2   
    13    8   10 1   
    14   10   11 1   
    15   10   45 1   
    16   10   65 1   
    17   11   12 1   
    18   11   19 1   
    19   11   46 1   
    20   12   13 1   
    21   12   47 1   
    22   12   48 1   
    23   13   14 ar  
    24   13   18 ar  
    25   14   15 ar  
    26   14   49 1   
    27   15   16 ar  
    28   15   50 1   
    29   16   17 ar  
    30   16   51 1   
    31   17   18 ar  
    32   17   52 1   
    33   18   53 1   
    34   19   20 1   
    35   19   21 1   
    36   19   54 1   
    37   20   55 1   
    38   21   22 1   
    39   21   56 1   
    40   21   57 1   
    41   22   35 1   
    42   22   66 1   
    43   23   24 1   
    44   23   25 1   
    45   23   26 1   
    46   26   27 ar  
    47   26   30 ar  
    48   27   28 ar  
    49   27   58 1   
    50   28   29 1   
    51   28   33 ar  
    52   30   31 1   
    53   30   32 ar  
    54   32   33 ar  
    55   32   59 1   
    56   33   34 1   
    57   35   36 1   
    58   35   60 1   
    59   35   61 1   
    60   36   37 2   
    61   36   40 1   
    62   37   38 1   
    63   37   62 1   
    64   38   39 2   
    65   38   63 1   
    66   39   40 1   
    67   39   64 1   
@<TRIPOS>SUBSTRUCTURE
     1 MZ2         1 TEMP              0 ****  ****    0 ROOT
