@<TRIPOS>MOLECULE
MZ2
   64    57     1     0     0
SMALL
bcc


@<TRIPOS>ATOM
      1 F26         3.2460   -2.6240    3.8520 f         1 MZ2     -0.162667
      2 C25         4.4150   -2.0850    3.5050 c3        1 MZ2      0.452000
      3 F28         5.0920   -1.7140    4.6220 f         1 MZ2     -0.162667
      4 F27         5.1370   -2.9870    2.8240 f         1 MZ2     -0.162667
      5 C23         4.1700   -0.8540    2.6240 c2        1 MZ2     -0.113000
      6 C24         4.9360    0.4290    2.8860 c3        1 MZ2     -0.198000
      7 C22         3.2460   -0.9120    1.5880 c1        1 MZ2     -0.146000
      8 C21         2.4680   -2.2100    1.3230 c1        1 MZ2      0.329000
      9 O22         3.0550   -3.2000    0.9370 o         1 MZ2     -0.338000
     10 N20         1.0170   -2.2150    1.4100 n3        1 MZ2     -0.379000
     11 C19         0.2280   -1.9430    0.2440 c3        1 MZ2      0.001000
     12 C32        -0.6640   -3.1390   -0.0560 c3        1 MZ2     -0.134000
     13 C38         0.0030   -4.0260   -1.1230 c2        1 MZ2     -0.085000
     14 C37         0.4830   -5.2830   -0.7800 c2        1 MZ2     -0.126000
     15 C36         1.0460   -6.1030   -1.7530 c1        1 MZ2     -0.121000
     16 C35         1.1280   -5.6650   -3.0640 c1        1 MZ2     -0.122500
     17 C34         0.6480   -4.4050   -3.4080 c1        1 MZ2     -0.122500
     18 C33         0.0860   -3.5870   -2.4380 c1        1 MZ2     -0.124000
     19 C17        -0.6290   -0.7240    0.4880 c3        1 MZ2     -0.003000
     20 O18        -1.8530   -1.1170    1.0180 oh        1 MZ2     -0.323000
     21 C16        -0.8600    0.0160   -0.8450 c3        1 MZ2     -0.013000
     22 N11        -1.5140    1.3120   -0.5840 n3        1 MZ2     -0.825000
     23 S8         -0.6560    2.5410    0.1520 s4        1 MZ2      2.059800
     24 O9         -1.2730    2.9400    1.3880 o         1 MZ2     -0.538900
     25 O10         0.6270    2.0780    0.6170 o         1 MZ2     -0.538900
     26 C5         -0.4800    3.9310   -0.9650 c1        1 MZ2     -0.828000
     27 C6         -1.4720    4.8980   -1.0250 c2        1 MZ2     -0.031000
     28 C7         -1.2790    6.0460   -1.7780 c1        1 MZ2      0.026000
     29 F1         -2.2600    6.9570   -1.8760 f         1 MZ2     -0.082000
     30 C4          0.7070    4.1120   -1.6580 c1        1 MZ2      0.220000
     31 F3          1.6760    3.2000   -1.5690 f         1 MZ2     -0.082000
     32 C3          0.9020    5.2620   -2.4130 c2        1 MZ2     -0.215000
     33 C2         -0.0900    6.2280   -2.4730 c2        1 MZ2      0.148000
     34 F2          0.0480    7.2780   -3.2940 f         1 MZ2     -0.070000
     35 C12        -2.8410    1.5840   -1.1410 c3        1 MZ2      0.074000
     36 C15        -3.8460    1.8060    0.0100 c2        1 MZ2     -0.433000
     37 C18        -4.2880    3.0930    0.5220 c1        1 MZ2     -0.134000
     38 C14        -5.3900    2.8330    1.6450 c1        1 MZ2     -0.159000
     39 C13        -5.5810    1.4010    1.7760 c1        1 MZ2     -0.436000
     40 S1         -4.6300    0.6960    0.7660 ss        1 MZ2      0.586000
     41 H241        4.4310    0.9880    3.5090 hc        1 MZ2      0.106333
     42 H242        5.8040    0.2150    3.2720 hc        1 MZ2      0.106333
     43 H243        5.0630    0.9130    2.0420 hc        1 MZ2      0.106333
     44 H22         3.0920   -0.1310    1.0310 ha        1 MZ2      0.187000
     45 HN20        0.6070   -2.4390    2.1970 hn        1 MZ2      0.236000
     46 H19         0.8190   -1.7790   -0.5170 h1        1 MZ2      0.110000
     47 H321       -1.5340   -2.8240   -0.3900 hc        1 MZ2      0.102000
     48 H322       -0.7990   -3.6620    0.7660 hc        1 MZ2      0.102000
     49 H37         0.4240   -5.5930    0.1470 ha        1 MZ2      0.129000
     50 H36         1.3840   -6.9890   -1.5110 ha        1 MZ2      0.135000
     51 H35         1.5240   -6.2410   -3.7480 ha        1 MZ2      0.134000
     52 H34         0.7050   -4.0980   -4.3290 ha        1 MZ2      0.134000
     53 H33        -0.2520   -2.7010   -2.6800 ha        1 MZ2      0.127000
     54 H17        -0.1800   -0.1320    1.1140 h1        1 MZ2      0.094000
     55 HO18       -1.9080   -0.8500    1.8700 ho        1 MZ2      0.213000
     56 H161        0.0050    0.1690   -1.2890 h1        1 MZ2      0.109000
     57 H162       -1.4390   -0.5320   -1.4310 h1        1 MZ2      0.109000
     58 H6         -2.2930    4.7840   -0.5120 ha        1 MZ2      0.194000
     59 H3          1.7350    5.3890   -2.8990 ha        1 MZ2      0.180000
     60 H121       -2.8020    2.3840   -1.6980 h1        1 MZ2      0.095500
     61 H122       -3.1270    0.8280   -1.6780 h1        1 MZ2      0.095500
     62 H18        -3.9630    3.9710    0.2290 DU        1 MZ2      0.169667
     63 H14        -5.8590    3.5230    2.1580 DU        1 MZ2      0.169667
     64 H13        -6.1970    0.9580    2.3910 DU        1 MZ2      0.169667
@<TRIPOS>BOND
     1    1    2 1   
     2    2    3 1   
     3    2    4 1   
     4    2    5 1   
     5    5    6 1   
     6    5    7 1   
     7    6   41 1   
     8    6   42 1   
     9    6   43 1   
    10    7   44 1   
    11    8    9 1   
    12    8   10 1   
    13   10   11 1   
    14   10   45 1   
    15   11   12 1   
    16   11   19 1   
    17   11   46 1   
    18   12   13 1   
    19   12   47 1   
    20   12   48 1   
    21   13   14 1   
    22   13   18 1   
    23   14   15 1   
    24   14   49 1   
    25   15   50 1   
    26   16   17 1   
    27   16   51 1   
    28   17   52 1   
    29   18   53 1   
    30   19   20 1   
    31   19   21 1   
    32   19   54 1   
    33   20   55 1   
    34   21   22 1   
    35   21   56 1   
    36   21   57 1   
    37   22   23 1   
    38   22   35 1   
    39   23   24 1   
    40   23   25 1   
    41   26   27 1   
    42   26   30 1   
    43   27   28 1   
    44   27   58 1   
    45   28   33 1   
    46   30   32 1   
    47   32   33 1   
    48   32   59 1   
    49   33   34 1   
    50   35   36 1   
    51   35   60 1   
    52   35   61 1   
    53   36   37 1   
    54   36   40 1   
    55   37   38 1   
    56   38   39 1   
    57   39   40 1   
@<TRIPOS>SUBSTRUCTURE
     1 MZ2         1 TEMP              0 ****  ****    0 ROOT
