@<TRIPOS>MOLECULE
MZ2
   66    67     1     0     0
SMALL
bcc


@<TRIPOS>ATOM
      1 F26         1.2390    0.0270    0.8460 f         1 MZ2     -0.203300
      2 C25         2.5840    0.2870    0.8270 c3        1 MZ2      0.660100
      3 F28         2.9770    0.2690    2.1370 f         1 MZ2     -0.203300
      4 F27         3.1580   -0.8090    0.2430 f         1 MZ2     -0.203300
      5 C23         2.9720    1.6140    0.1110 c2        1 MZ2      0.039600
      6 C24         4.4170    1.8760    0.1160 c3        1 MZ2     -0.128900
      7 C22         1.9850    2.3610   -0.4250 ce        1 MZ2     -0.295200
      8 C21         2.2040    3.6260   -1.1120 c         1 MZ2      0.578300
      9 O22         3.2150    4.3090   -1.2130 o         1 MZ2     -0.443100
     10 N20         0.9590    4.1690   -1.7960 n4        1 MZ2     -0.679800
     11 C19         1.2020    5.3510   -2.6980 c3        1 MZ2      0.100500
     12 C32         0.1680    5.3860   -3.8350 c3        1 MZ2     -0.051100
     13 C38         0.0270    4.0710   -4.5150 ca        1 MZ2     -0.176300
     14 C37        -1.0700    3.2470   -4.2320 ca        1 MZ2     -0.132500
     15 C36        -1.2280    2.0360   -4.9050 ca        1 MZ2     -0.110000
     16 C35        -0.2930    1.6410   -5.8640 ca        1 MZ2     -0.088000
     17 C34         0.7990    2.4610   -6.1510 ca        1 MZ2     -0.110000
     18 C33         0.9600    3.6730   -5.4810 ca        1 MZ2     -0.132500
     19 C17         1.2040    6.6560   -1.8590 c3        1 MZ2      0.099100
     20 O18         0.0220    6.7650   -1.0960 oh        1 MZ2     -0.596800
     21 C16         1.4310    7.8830   -2.7580 c3        1 MZ2      0.091800
     22 N11         1.5340    9.1350   -1.9980 n3        1 MZ2     -0.911200
     23 S8          3.7140    9.3920   -1.1360 s4        1 MZ2      1.670300
     24 O9          3.5930    8.2590   -0.3890 o         1 MZ2     -0.430900
     25 O10         4.2840    9.3850   -2.3660 o         1 MZ2     -0.430900
     26 C5          3.5400   10.7610   -0.3860 ca        1 MZ2     -0.629500
     27 C6          3.2260   10.7160    1.0050 ca        1 MZ2     -0.030000
     28 C7          3.1250   11.8540    1.7860 ca        1 MZ2      0.087900
     29 F1          2.8290   11.7710    3.0980 f         1 MZ2     -0.070900
     30 C4          3.7250   12.0640   -0.9500 ca        1 MZ2      0.334900
     31 F3          3.9900   12.1750   -2.2640 f         1 MZ2     -0.076900
     32 C3          3.6380   13.2300   -0.1790 ca        1 MZ2     -0.227000
     33 C2          3.3430   13.1490    1.1900 ca        1 MZ2      0.296900
     34 F2          3.2590   14.2490    1.9380 f         1 MZ2     -0.036900
     35 C12         1.1830   10.3080   -2.8180 c3        1 MZ2      0.226100
     36 C15        -0.2540   10.4670   -3.1080 cc        1 MZ2     -0.261400
     37 C18        -1.2660   10.4960   -2.1550 cd        1 MZ2     -0.140000
     38 C14        -2.5370   10.7340   -2.7480 cd        1 MZ2     -0.150000
     39 C13        -2.4310   10.8860   -4.1190 cc        1 MZ2     -0.143100
     40 S1         -0.8650   10.7430   -4.6400 ss        1 MZ2      0.132200
     41 H241        4.6980    2.7850   -0.4710 hc        1 MZ2      0.106700
     42 H242        4.7670    2.0100    1.1770 hc        1 MZ2      0.106700
     43 H243        4.9650    0.9880   -0.3050 hc        1 MZ2      0.106700
     44 H22         0.9380    2.0080   -0.3390 ha        1 MZ2      0.184000
     45 HN20        0.2860    4.4490   -1.0680 hn        1 MZ2      0.477300
     46 H19         2.2320    5.2200   -3.1500 hx        1 MZ2      0.127700
     47 H321       -0.8250    5.7280   -3.4380 hc        1 MZ2      0.081700
     48 H322        0.5210    6.1510   -4.5810 hc        1 MZ2      0.081700
     49 H37        -1.8370    3.5710   -3.5120 ha        1 MZ2      0.135500
     50 H36        -2.1010    1.3980   -4.6920 ha        1 MZ2      0.163500
     51 H35        -0.4250    0.6890   -6.4040 ha        1 MZ2      0.168000
     52 H34         1.5300    2.1580   -6.9190 ha        1 MZ2      0.163500
     53 H33         1.8100    4.3260   -5.7290 ha        1 MZ2      0.135500
     54 H17         2.0280    6.5850   -1.0810 h1        1 MZ2      0.124700
     55 HO18       -0.7040    7.0360   -1.6770 ho        1 MZ2      0.431000
     56 H161        2.3900    7.7510   -3.3370 h1        1 MZ2      0.093200
     57 H162        0.5820    7.9530   -3.5000 h1        1 MZ2      0.093200
     58 H6          3.0700    9.7310    1.4920 ha        1 MZ2      0.197000
     59 H3          3.8050   14.2170   -0.6510 ha        1 MZ2      0.223000
     60 H121        1.5460   11.2110   -2.2390 h1        1 MZ2      0.077700
     61 H122        1.7750   10.2540   -3.7800 h1        1 MZ2      0.077700
     62 H18        -1.1270   10.3740   -1.0780 ha        1 MZ2      0.148000
     63 H14        -3.4690   10.8000   -2.1780 ha        1 MZ2      0.181000
     64 H13        -3.2680   11.0920   -4.7910 h4        1 MZ2      0.203000
     65 H202        0.5370    3.4090   -2.3570 hn        1 MZ2      0.477300
     66 H111        0.8990    9.0850   -1.2100 hn        1 MZ2      0.407800
@<TRIPOS>BOND
     1    1    2 1   
     2    2    3 1   
     3    2    4 1   
     4    2    5 1   
     5    5    6 1   
     6    5    7 2   
     7    6   41 1   
     8    6   42 1   
     9    6   43 1   
    10    7    8 1   
    11    7   44 1   
    12    8    9 2   
    13    8   10 1   
    14   10   11 1   
    15   10   45 1   
    16   10   65 1   
    17   11   12 1   
    18   11   19 1   
    19   11   46 1   
    20   12   13 1   
    21   12   47 1   
    22   12   48 1   
    23   13   14 ar  
    24   13   18 ar  
    25   14   15 ar  
    26   14   49 1   
    27   15   16 ar  
    28   15   50 1   
    29   16   17 ar  
    30   16   51 1   
    31   17   18 ar  
    32   17   52 1   
    33   18   53 1   
    34   19   20 1   
    35   19   21 1   
    36   19   54 1   
    37   20   55 1   
    38   21   22 1   
    39   21   56 1   
    40   21   57 1   
    41   22   35 1   
    42   22   66 1   
    43   23   24 1   
    44   23   25 1   
    45   23   26 1   
    46   26   27 ar  
    47   26   30 ar  
    48   27   28 ar  
    49   27   58 1   
    50   28   29 1   
    51   28   33 ar  
    52   30   31 1   
    53   30   32 ar  
    54   32   33 ar  
    55   32   59 1   
    56   33   34 1   
    57   35   36 1   
    58   35   60 1   
    59   35   61 1   
    60   36   37 2   
    61   36   40 1   
    62   37   38 1   
    63   37   62 1   
    64   38   39 2   
    65   38   63 1   
    66   39   40 1   
    67   39   64 1   
@<TRIPOS>SUBSTRUCTURE
     1 MZ2         1 TEMP              0 ****  ****    0 ROOT
