@<TRIPOS>MOLECULE
MZ3
   71    74     1     0     0
SMALL
bcc


@<TRIPOS>ATOM
      1 F29        -7.8920    0.7290    2.1610 f         1 MZ3     -0.137900
      2 C26        -6.6310    1.1940    1.9850 ca        1 MZ3      0.114900
      3 C25        -6.3510    2.5370    2.2930 ca        1 MZ3     -0.146000
      4 C24        -5.0630    3.0300    2.1160 ca        1 MZ3     -0.118000
      5 C23        -4.0550    2.1980    1.6320 ca        1 MZ3     -0.120000
      6 C27        -5.6180    0.3320    1.5000 ca        1 MZ3     -0.052300
      7 C28        -5.9240   -1.0800    1.1780 c3        1 MZ3     -0.074800
      8 C22        -4.3320    0.8620    1.3310 ca        1 MZ3     -0.118600
      9 C21        -3.2160   -0.0090    0.8450 c         1 MZ3      0.677700
     10 O22        -2.8380   -1.0230    1.4650 o         1 MZ3     -0.606100
     11 N20        -2.6200    0.3780   -0.3370 n         1 MZ3     -0.556900
     12 C19        -1.5060   -0.3360   -0.9150 c3        1 MZ3      0.084700
     13 C32        -1.6120   -0.4120   -2.4500 c3        1 MZ3     -0.053100
     14 C38        -2.8080   -1.1690   -2.9030 ca        1 MZ3     -0.078300
     15 C37        -3.8380   -0.5190   -3.5930 ca        1 MZ3     -0.124000
     16 C36        -4.9490   -1.2360   -4.0370 ca        1 MZ3     -0.126500
     17 C35        -5.0410   -2.6060   -3.7960 ca        1 MZ3     -0.130000
     18 C34        -4.0170   -3.2600   -3.1100 ca        1 MZ3     -0.126500
     19 C33        -2.9060   -2.5460   -2.6670 ca        1 MZ3     -0.124000
     20 C17        -0.1460    0.3020   -0.5050 c3        1 MZ3      0.098100
     21 O18         0.0800    1.5140   -1.1960 oh        1 MZ3     -0.617800
     22 C16         0.9910   -0.7220   -0.7080 c3        1 MZ3      0.190800
     23 N11         2.2830   -0.2800   -0.2530 n3        1 MZ3     -0.801500
     24 C12         2.6550   -0.6450    1.0900 c3        1 MZ3      0.312100
     25 C15         3.0810   -2.0570    1.2690 cc        1 MZ3     -0.169400
     26 C18         4.1000   -2.6890    0.5820 cd        1 MZ3     -0.134000
     27 C14         4.2760   -4.0370    1.0240 cd        1 MZ3     -0.157000
     28 C13         3.3850   -4.3630    2.0240 cc        1 MZ3     -0.165100
     29 S1          2.3780   -3.0860    2.3960 ss        1 MZ3      0.023200
     30 S8          3.2870    0.5150   -1.2700 sy        1 MZ3      1.510200
     31 O9          4.4550   -0.2360   -1.5140 o         1 MZ3     -0.658800
     32 O10         2.5460    0.8880   -2.4190 o         1 MZ3     -0.658800
     33 C5          3.7170    1.8950   -0.3960 ca        1 MZ3     -0.349500
     34 C6          4.9800    1.9950    0.1900 ca        1 MZ3     -0.047000
     35 C7          5.3440    3.1670    0.8750 ca        1 MZ3      0.096100
     36 O19         6.6140    3.1480    1.4210 os        1 MZ3     -0.322900
     37 C20         7.0380    4.3430    2.0650 c3        1 MZ3      0.111700
     38 C2          4.4510    4.2410    0.9750 ca        1 MZ3     -0.140000
     39 C3          3.1910    4.1320    0.3860 ca        1 MZ3     -0.124000
     40 C4          2.8270    2.9710   -0.2900 ca        1 MZ3     -0.049000
     41 H25        -7.1570    3.1830    2.6730 ha        1 MZ3      0.151000
     42 H24        -4.8410    4.0800    2.3590 ha        1 MZ3      0.141000
     43 H23        -3.0370    2.5930    1.4980 ha        1 MZ3      0.142000
     44 H281       -6.0470   -1.2010    0.0710 hc        1 MZ3      0.065033
     45 H282       -5.0920   -1.7490    1.5160 hc        1 MZ3      0.065033
     46 H283       -6.8710   -1.4080    1.6740 hc        1 MZ3      0.065033
     47 HN20       -2.8880    1.2300   -0.7680 hn        1 MZ3      0.320500
     48 H19        -1.5260   -1.3890   -0.4980 h1        1 MZ3      0.089700
     49 H321       -1.6220    0.6260   -2.8790 hc        1 MZ3      0.060700
     50 H322       -0.6890   -0.9240   -2.8350 hc        1 MZ3      0.060700
     51 H37        -3.7710    0.5610   -3.7890 ha        1 MZ3      0.131000
     52 H36        -5.7530   -0.7170   -4.5790 ha        1 MZ3      0.132500
     53 H35        -5.9170   -3.1700   -4.1470 ha        1 MZ3      0.132000
     54 H34        -4.0860   -4.3410   -2.9190 ha        1 MZ3      0.132500
     55 H33        -2.1000   -3.0660   -2.1260 ha        1 MZ3      0.131000
     56 H17        -0.1880    0.6070    0.5810 h1        1 MZ3      0.084700
     57 HO18        0.3900    1.3010   -2.0910 ho        1 MZ3      0.430000
     58 H161        0.7080   -1.6680   -0.1650 h1        1 MZ3      0.068700
     59 H162        1.0670   -0.9630   -1.8090 h1        1 MZ3      0.068700
     60 H121        3.5120    0.0270    1.4040 h1        1 MZ3      0.058700
     61 H122        1.7860   -0.4310    1.7810 h1        1 MZ3      0.058700
     62 H18         4.7040   -2.2270   -0.2080 ha        1 MZ3      0.183000
     63 H14         5.0310   -4.7070    0.6080 ha        1 MZ3      0.156000
     64 H13         3.3220   -5.3270    2.5260 h4        1 MZ3      0.171000
     65 H6          5.7070    1.1670    0.1080 ha        1 MZ3      0.176000
     66 H201        6.3910    4.5640    2.9490 h1        1 MZ3      0.047033
     67 H202        8.0820    4.1050    2.3900 h1        1 MZ3      0.047033
     68 H203        7.0330    5.2020    1.3510 h1        1 MZ3      0.047033
     69 H2          4.7290    5.1620    1.5070 ha        1 MZ3      0.142000
     70 H3          2.4830    4.9710    0.4570 ha        1 MZ3      0.142000
     71 H4          1.8260    2.8930   -0.7560 ha        1 MZ3      0.170000
@<TRIPOS>BOND
     1    1    2 1   
     2    2    3 ar  
     3    2    6 ar  
     4    3    4 ar  
     5    3   41 1   
     6    4    5 ar  
     7    4   42 1   
     8    5    8 ar  
     9    5   43 1   
    10    6    7 1   
    11    6    8 ar  
    12    7   44 1   
    13    7   45 1   
    14    7   46 1   
    15    8    9 1   
    16    9   10 2   
    17    9   11 1   
    18   11   12 1   
    19   11   47 1   
    20   12   13 1   
    21   12   20 1   
    22   12   48 1   
    23   13   14 1   
    24   13   49 1   
    25   13   50 1   
    26   14   15 ar  
    27   14   19 ar  
    28   15   16 ar  
    29   15   51 1   
    30   16   17 ar  
    31   16   52 1   
    32   17   18 ar  
    33   17   53 1   
    34   18   19 ar  
    35   18   54 1   
    36   19   55 1   
    37   20   21 1   
    38   20   22 1   
    39   20   56 1   
    40   21   57 1   
    41   22   23 1   
    42   22   58 1   
    43   22   59 1   
    44   23   24 1   
    45   23   30 1   
    46   24   25 1   
    47   24   60 1   
    48   24   61 1   
    49   25   26 2   
    50   25   29 1   
    51   26   27 1   
    52   26   62 1   
    53   27   28 2   
    54   27   63 1   
    55   28   29 1   
    56   28   64 1   
    57   30   31 2   
    58   30   32 2   
    59   30   33 1   
    60   33   34 ar  
    61   33   40 ar  
    62   34   35 ar  
    63   34   65 1   
    64   35   36 1   
    65   35   38 ar  
    66   36   37 1   
    67   37   66 1   
    68   37   67 1   
    69   37   68 1   
    70   38   39 ar  
    71   38   69 1   
    72   39   40 ar  
    73   39   70 1   
    74   40   71 1   
@<TRIPOS>SUBSTRUCTURE
     1 MZ3         1 TEMP              0 ****  ****    0 ROOT
