@<TRIPOS>MOLECULE
MZ3
   73    75     1     0     0
SMALL
bcc


@<TRIPOS>ATOM
      1 F29        -0.4500   -2.7050   -1.6830 f         1 MZ3     -0.099900
      2 C26         0.3000   -1.5960   -1.5060 ca        1 MZ3      0.137900
      3 C25        -0.3050   -0.4260   -1.0130 ca        1 MZ3     -0.085000
      4 C24         0.4620    0.7230   -0.8240 ca        1 MZ3     -0.097000
      5 C23         1.8160    0.7220   -1.1310 ca        1 MZ3     -0.114000
      6 C27         1.6840   -1.6240   -1.8150 ca        1 MZ3     -0.015300
      7 C28         2.3080   -2.8720   -2.3070 c3        1 MZ3     -0.084800
      8 C22         2.4270   -0.4420   -1.6280 ca        1 MZ3     -0.194600
      9 C21         3.8600   -0.4680   -1.9280 c         1 MZ3      0.587700
     10 O22         4.6570   -1.3920   -1.8250 o         1 MZ3     -0.448100
     11 N20         4.4290    0.8370   -2.4590 n4        1 MZ3     -0.682800
     12 C19         5.7470    0.7020   -3.1770 c3        1 MZ3      0.145500
     13 C32         5.9400    1.8670   -4.1630 c3        1 MZ3     -0.054100
     14 C38         4.7550    2.0690   -5.0380 ca        1 MZ3     -0.170300
     15 C37         3.8760    3.1340   -4.7970 ca        1 MZ3     -0.132000
     16 C36         2.7920    3.3520   -5.6460 ca        1 MZ3     -0.113000
     17 C35         2.5780    2.5110   -6.7390 ca        1 MZ3     -0.092000
     18 C34         3.4530    1.4520   -6.9850 ca        1 MZ3     -0.113000
     19 C33         4.5390    1.2320   -6.1390 ca        1 MZ3     -0.132000
     20 C17         6.9200    0.6190   -2.1640 c3        1 MZ3      0.100100
     21 O18         6.8040    1.7650   -1.3340 oh        1 MZ3     -0.613800
     22 C16         8.2670    0.6070   -2.9120 c3        1 MZ3      0.095800
     23 N11         9.4240    0.1690   -2.1440 n3        1 MZ3     -0.897200
     24 C12         9.5490   -1.2800   -1.9530 c3        1 MZ3      0.222100
     25 C15         9.4380   -2.1250   -3.1610 cc        1 MZ3     -0.218400
     26 C18         9.7820   -1.8150   -4.4690 cd        1 MZ3     -0.161000
     27 C14         9.5890   -2.9250   -5.3430 cd        1 MZ3     -0.150000
     28 C13         9.1140   -4.0270   -4.6600 cc        1 MZ3     -0.147100
     29 S1          8.9100   -3.7140   -3.0440 ss        1 MZ3      0.112200
     30 S8         11.4300    1.3380   -3.0390 s4        1 MZ3      1.678300
     31 O9         10.9340    1.2830   -4.2990 o         1 MZ3     -0.429900
     32 O10        11.1190    2.3490   -2.1860 o         1 MZ3     -0.429900
     33 C5         12.6030    0.3940   -2.6460 ca        1 MZ3     -0.576500
     34 C6         13.0440   -0.6300   -3.5180 ca        1 MZ3     -0.010000
     35 C7         14.1530   -1.4220   -3.1900 ca        1 MZ3      0.121100
     36 O19        14.4710   -2.3760   -4.1210 os        1 MZ3     -0.304900
     37 C20        15.6500   -3.1500   -3.8770 c3        1 MZ3      0.100700
     38 C2         14.8420   -1.2110   -1.9820 ca        1 MZ3     -0.050000
     39 C3         14.4060   -0.2100   -1.1100 ca        1 MZ3     -0.110000
     40 C4         13.3100    0.5760   -1.4270 ca        1 MZ3     -0.018000
     41 H25        -1.3840   -0.4320   -0.7740 ha        1 MZ3      0.189000
     42 H24        -0.0140    1.6350   -0.4230 ha        1 MZ3      0.175000
     43 H23         2.3950    1.6390   -0.9420 ha        1 MZ3      0.132000
     44 H281        2.9690   -2.6720   -3.1880 hc        1 MZ3      0.076367
     45 H282        2.9370   -3.3250   -1.4960 hc        1 MZ3      0.076367
     46 H283        1.5340   -3.6220   -2.6100 hc        1 MZ3      0.076367
     47 HN20        3.7420    1.2530   -3.1100 hn        1 MZ3      0.476300
     48 H19         5.7130   -0.2730   -3.7500 hx        1 MZ3      0.118700
     49 H321        6.8340    1.6220   -4.7990 hc        1 MZ3      0.090700
     50 H322        6.1770    2.8040   -3.5880 hc        1 MZ3      0.090700
     51 H37         4.0620    3.8270   -3.9620 ha        1 MZ3      0.136000
     52 H36         2.1130    4.2000   -5.4620 ha        1 MZ3      0.159500
     53 H35         1.7270    2.6920   -7.4160 ha        1 MZ3      0.164000
     54 H34         3.2940    0.7960   -7.8560 ha        1 MZ3      0.159500
     55 H33         5.2400    0.4090   -6.3520 ha        1 MZ3      0.136000
     56 H17         6.8040   -0.3200   -1.5470 h1        1 MZ3      0.077700
     57 HO18        7.4440    1.6860   -0.6160 ho        1 MZ3      0.436000
     58 H161        8.1680   -0.0480   -3.8260 h1        1 MZ3      0.100700
     59 H162        8.4820    1.6650   -3.2510 h1        1 MZ3      0.100700
     60 H121        8.7830   -1.6370   -1.1990 h1        1 MZ3      0.065700
     61 H122       10.5700   -1.4410   -1.4890 h1        1 MZ3      0.065700
     62 H18        10.1480   -0.8490   -4.8270 ha        1 MZ3      0.152000
     63 H14         9.8020   -2.8900   -6.4150 ha        1 MZ3      0.178000
     64 H13         8.8980   -4.9990   -5.1100 h4        1 MZ3      0.200000
     65 H6         12.5190   -0.8170   -4.4750 ha        1 MZ3      0.190000
     66 H201       16.5470   -2.4870   -3.8120 h1        1 MZ3      0.070700
     67 H202       15.7050   -3.8070   -4.7840 h1        1 MZ3      0.070700
     68 H203       15.5290   -3.7610   -2.9500 h1        1 MZ3      0.070700
     69 H2         15.7220   -1.8250   -1.7200 ha        1 MZ3      0.185000
     70 H3         14.9470   -0.0420   -0.1610 ha        1 MZ3      0.186000
     71 H4         12.9890    1.3730   -0.7300 ha        1 MZ3      0.174000
     72 H204        4.5590    1.4860   -1.6700 hn        1 MZ3      0.476300
     73 H111        9.3860    0.5960   -1.2280 hn        1 MZ3      0.383800
@<TRIPOS>BOND
     1    1    2 1   
     2    2    3 ar  
     3    2    6 ar  
     4    3    4 ar  
     5    3   41 1   
     6    4    5 ar  
     7    4   42 1   
     8    5    8 ar  
     9    5   43 1   
    10    6    7 1   
    11    6    8 ar  
    12    7   44 1   
    13    7   45 1   
    14    7   46 1   
    15    8    9 1   
    16    9   10 2   
    17    9   11 1   
    18   11   12 1   
    19   11   47 1   
    20   11   72 1   
    21   12   13 1   
    22   12   20 1   
    23   12   48 1   
    24   13   14 1   
    25   13   49 1   
    26   13   50 1   
    27   14   15 ar  
    28   14   19 ar  
    29   15   16 ar  
    30   15   51 1   
    31   16   17 ar  
    32   16   52 1   
    33   17   18 ar  
    34   17   53 1   
    35   18   19 ar  
    36   18   54 1   
    37   19   55 1   
    38   20   21 1   
    39   20   22 1   
    40   20   56 1   
    41   21   57 1   
    42   22   23 1   
    43   22   58 1   
    44   22   59 1   
    45   23   24 1   
    46   23   73 1   
    47   24   25 1   
    48   24   60 1   
    49   24   61 1   
    50   25   26 2   
    51   25   29 1   
    52   26   27 1   
    53   26   62 1   
    54   27   28 2   
    55   27   63 1   
    56   28   29 1   
    57   28   64 1   
    58   30   31 1   
    59   30   32 1   
    60   30   33 1   
    61   33   34 ar  
    62   33   40 ar  
    63   34   35 ar  
    64   34   65 1   
    65   35   36 1   
    66   35   38 ar  
    67   36   37 1   
    68   37   66 1   
    69   37   67 1   
    70   37   68 1   
    71   38   39 ar  
    72   38   69 1   
    73   39   40 ar  
    74   39   70 1   
    75   40   71 1   
@<TRIPOS>SUBSTRUCTURE
     1 MZ3         1 TEMP              0 ****  ****    0 ROOT
