@<TRIPOS>MOLECULE
MZ3
   73    75     1     0     0
SMALL
bcc


@<TRIPOS>ATOM
      1 F29        -0.4640   -2.7030   -1.6480 f         1 MZ3     -0.099900
      2 C26         0.2890   -1.5950   -1.4730 ca        1 MZ3      0.137900
      3 C25        -0.3120   -0.4260   -0.9740 ca        1 MZ3     -0.085000
      4 C24         0.4580    0.7210   -0.7860 ca        1 MZ3     -0.097000
      5 C23         1.8110    0.7190   -1.0980 ca        1 MZ3     -0.114000
      6 C27         1.6720   -1.6260   -1.7880 ca        1 MZ3     -0.015300
      7 C28         2.2910   -2.8740   -2.2850 c3        1 MZ3     -0.084800
      8 C22         2.4170   -0.4450   -1.6010 ca        1 MZ3     -0.194600
      9 C21         3.8490   -0.4730   -1.9080 c         1 MZ3      0.587700
     10 O22         4.6450   -1.3990   -1.8100 o         1 MZ3     -0.448100
     11 N20         4.4180    0.8320   -2.4380 n4        1 MZ3     -0.682800
     12 C19         5.7330    0.6970   -3.1610 c3        1 MZ3      0.145500
     13 C32         5.9240    1.8630   -4.1450 c3        1 MZ3     -0.054100
     14 C38         4.7370    2.0670   -5.0180 ca        1 MZ3     -0.170300
     15 C37         3.8590    3.1310   -4.7720 ca        1 MZ3     -0.132000
     16 C36         2.7720    3.3520   -5.6180 ca        1 MZ3     -0.113000
     17 C35         2.5550    2.5120   -6.7120 ca        1 MZ3     -0.092000
     18 C34         3.4290    1.4520   -6.9610 ca        1 MZ3     -0.113000
     19 C33         4.5180    1.2310   -6.1190 ca        1 MZ3     -0.132000
     20 C17         6.9100    0.6100   -2.1520 c3        1 MZ3      0.100100
     21 O18         6.7980    1.7550   -1.3210 oh        1 MZ3     -0.613800
     22 C16         8.2540    0.5970   -2.9060 c3        1 MZ3      0.095800
     23 N11         9.4120    0.1490   -2.1440 n3        1 MZ3     -0.897200
     24 C12         9.5370   -1.3030   -1.9740 c3        1 MZ3      0.222100
     25 C15         9.4390   -2.1280   -3.1970 cc        1 MZ3     -0.218400
     26 C18         9.7800   -1.7920   -4.4990 cd        1 MZ3     -0.162000
     27 C14         9.6010   -2.8880   -5.3920 cd        1 MZ3     -0.150000
     28 C13         9.1380   -4.0070   -4.7280 cc        1 MZ3     -0.147100
     29 S1          8.9290   -3.7250   -3.1070 ss        1 MZ3      0.112200
     30 S8         11.4190    1.3370   -3.0150 s4        1 MZ3      1.679300
     31 O9         10.9200    1.3100   -4.2750 o         1 MZ3     -0.429900
     32 O10        11.1090    2.3270   -2.1390 o         1 MZ3     -0.429900
     33 C5         12.5940    0.3850   -2.6480 ca        1 MZ3     -0.576500
     34 C6         13.0360   -0.6160   -3.5450 ca        1 MZ3     -0.010000
     35 C7         14.1460   -1.4140   -3.2380 ca        1 MZ3      0.121100
     36 O19        14.4650   -2.3450   -4.1920 os        1 MZ3     -0.304900
     37 C20        15.6460   -3.1220   -3.9690 c3        1 MZ3      0.100700
     38 C2         14.8370   -1.2320   -2.0260 ca        1 MZ3     -0.050000
     39 C3         14.4000   -0.2530   -1.1290 ca        1 MZ3     -0.110000
     40 C4         13.3030    0.5390   -1.4260 ca        1 MZ3     -0.018000
     41 H25        -1.3890   -0.4300   -0.7310 ha        1 MZ3      0.189000
     42 H24        -0.0140    1.6330   -0.3810 ha        1 MZ3      0.175000
     43 H23         2.3930    1.6340   -0.9100 ha        1 MZ3      0.132000
     44 H281        1.5140   -3.6210   -2.5860 hc        1 MZ3      0.076700
     45 H282        2.9490   -2.6730   -3.1680 hc        1 MZ3      0.076700
     46 H283        2.9230   -3.3300   -1.4780 hc        1 MZ3      0.076700
     47 HN20        4.5510    1.4800   -1.6490 hn        1 MZ3      0.476300
     48 H19         5.6950   -0.2770   -3.7360 hx        1 MZ3      0.117700
     49 H321        6.1630    2.7990   -3.5700 hc        1 MZ3      0.091200
     50 H322        6.8160    1.6190   -4.7850 hc        1 MZ3      0.091200
     51 H37         4.0480    3.8240   -3.9370 ha        1 MZ3      0.136000
     52 H36         2.0940    4.2000   -5.4310 ha        1 MZ3      0.159500
     53 H35         1.7020    2.6940   -7.3850 ha        1 MZ3      0.164000
     54 H34         3.2670    0.7980   -7.8330 ha        1 MZ3      0.159500
     55 H33         5.2170    0.4090   -6.3350 ha        1 MZ3      0.136000
     56 H17         6.7940   -0.3300   -1.5360 h1        1 MZ3      0.077700
     57 HO18        7.4450    1.6780   -0.6090 ho        1 MZ3      0.436000
     58 H161        8.1490   -0.0530   -3.8230 h1        1 MZ3      0.100700
     59 H162        8.4730    1.6550   -3.2400 h1        1 MZ3      0.100700
     60 H121        8.7650   -1.6730   -1.2330 h1        1 MZ3      0.065700
     61 H122       10.5550   -1.4690   -1.5040 h1        1 MZ3      0.065700
     62 H18        10.1350   -0.8150   -4.8400 ha        1 MZ3      0.152000
     63 H14         9.8140   -2.8330   -6.4630 ha        1 MZ3      0.178000
     64 H13         8.9330   -4.9740   -5.1960 h4        1 MZ3      0.200000
     65 H6         12.5090   -0.7800   -4.5050 ha        1 MZ3      0.190000
     66 H201       15.5270   -3.7560   -3.0580 h1        1 MZ3      0.070700
     67 H202       15.7000   -3.7560   -4.8930 h1        1 MZ3      0.070700
     68 H203       16.5420   -2.4590   -3.8890 h1        1 MZ3      0.070700
     69 H2         15.7180   -1.8500   -1.7800 ha        1 MZ3      0.185000
     70 H3         14.9430   -0.1070   -0.1770 ha        1 MZ3      0.186000
     71 H4         12.9810    1.3180   -0.7090 ha        1 MZ3      0.174000
     72 H204        3.7290    1.2500   -3.0860 hn        1 MZ3      0.476300
     73 H111        9.3730    0.5630   -1.2220 hn        1 MZ3      0.383800
@<TRIPOS>BOND
     1    1    2 1   
     2    2    3 ar  
     3    2    6 ar  
     4    3    4 ar  
     5    3   41 1   
     6    4    5 ar  
     7    4   42 1   
     8    5    8 ar  
     9    5   43 1   
    10    6    7 1   
    11    6    8 ar  
    12    7   44 1   
    13    7   45 1   
    14    7   46 1   
    15    8    9 1   
    16    9   10 2   
    17    9   11 1   
    18   11   12 1   
    19   11   47 1   
    20   11   72 1   
    21   12   13 1   
    22   12   20 1   
    23   12   48 1   
    24   13   14 1   
    25   13   49 1   
    26   13   50 1   
    27   14   15 ar  
    28   14   19 ar  
    29   15   16 ar  
    30   15   51 1   
    31   16   17 ar  
    32   16   52 1   
    33   17   18 ar  
    34   17   53 1   
    35   18   19 ar  
    36   18   54 1   
    37   19   55 1   
    38   20   21 1   
    39   20   22 1   
    40   20   56 1   
    41   21   57 1   
    42   22   23 1   
    43   22   58 1   
    44   22   59 1   
    45   23   24 1   
    46   23   73 1   
    47   24   25 1   
    48   24   60 1   
    49   24   61 1   
    50   25   26 2   
    51   25   29 1   
    52   26   27 1   
    53   26   62 1   
    54   27   28 2   
    55   27   63 1   
    56   28   29 1   
    57   28   64 1   
    58   30   31 1   
    59   30   32 1   
    60   30   33 1   
    61   33   34 ar  
    62   33   40 ar  
    63   34   35 ar  
    64   34   65 1   
    65   35   36 1   
    66   35   38 ar  
    67   36   37 1   
    68   37   66 1   
    69   37   67 1   
    70   37   68 1   
    71   38   39 ar  
    72   38   69 1   
    73   39   40 ar  
    74   39   70 1   
    75   40   71 1   
@<TRIPOS>SUBSTRUCTURE
     1 MZ3         1 TEMP              0 ****  ****    0 ROOT
