@<TRIPOS>MOLECULE
MZ3
   73    75     1     0     0
SMALL
bcc


@<TRIPOS>ATOM
      1 F29        -0.4610   -2.6210   -1.5200 f         1 MZ3     -0.099900
      2 C26         0.2970   -1.5110   -1.3850 ca        1 MZ3      0.137900
      3 C25        -0.2970   -0.3240   -0.9210 ca        1 MZ3     -0.085000
      4 C24         0.4790    0.8260   -0.7740 ca        1 MZ3     -0.097000
      5 C23         1.8300    0.8080   -1.0950 ca        1 MZ3     -0.114000
      6 C27         1.6770   -1.5580   -1.7070 ca        1 MZ3     -0.015300
      7 C28         2.2890   -2.8230   -2.1680 c3        1 MZ3     -0.084800
      8 C22         2.4280   -0.3740   -1.5640 ca        1 MZ3     -0.194600
      9 C21         3.8580   -0.4180   -1.8780 c         1 MZ3      0.587700
     10 O22         4.6510   -1.3430   -1.7560 o         1 MZ3     -0.448100
     11 N20         4.4290    0.8670   -2.4550 ny        1 MZ3     -0.682800
     12 C19         5.7380    0.7030   -3.1820 c3        1 MZ3      0.145500
     13 C32         5.9260    1.8370   -4.2050 c3        1 MZ3     -0.054100
     14 C38         4.7340    2.0170   -5.0740 ca        1 MZ3     -0.170300
     15 C37         3.8620    3.0920   -4.8580 ca        1 MZ3     -0.132000
     16 C36         2.7700    3.2900   -5.7020 ca        1 MZ3     -0.113000
     17 C35         2.5410    2.4160   -6.7660 ca        1 MZ3     -0.092000
     18 C34         3.4090    1.3450   -6.9880 ca        1 MZ3     -0.113000
     19 C33         4.5030    1.1470   -6.1470 ca        1 MZ3     -0.132000
     20 C17         6.9210    0.6440   -2.1790 c3        1 MZ3      0.100100
     21 O18         6.8200    1.8160   -1.3850 oh        1 MZ3     -0.613800
     22 C16         8.2590    0.6010   -2.9410 c3        1 MZ3      0.095800
     23 N11         9.4210    0.1750   -2.1730 n7        1 MZ3     -0.897200
     24 C12         9.5420   -1.2710   -1.9540 c3        1 MZ3      0.222100
     25 C15         9.4280   -2.1380   -3.1460 cc        1 MZ3     -0.218400
     26 C18         9.7620   -1.8500   -4.4610 cd        1 MZ3     -0.162000
     27 C14         9.5690   -2.9760   -5.3130 cd        1 MZ3     -0.150000
     28 C13         9.1030   -4.0680   -4.6070 cc        1 MZ3     -0.147100
     29 S1          8.9100   -3.7270   -2.9950 ss        1 MZ3      0.112200
     30 S8         11.4270    1.3210   -3.1020 s4        1 MZ3      1.678300
     31 O9         10.9180    1.2520   -4.3560 o         1 MZ3     -0.429900
     32 O10        11.1270    2.3440   -2.2590 o         1 MZ3     -0.429900
     33 C5         12.6000    0.3790   -2.7080 ca        1 MZ3     -0.576500
     34 C6         13.0310   -0.6570   -3.5700 ca        1 MZ3     -0.010000
     35 C7         14.1400   -1.4480   -3.2420 ca        1 MZ3      0.121100
     36 O19        14.4470   -2.4150   -4.1640 os        1 MZ3     -0.304900
     37 C20        15.6270   -3.1880   -3.9210 c3        1 MZ3      0.100700
     38 C2         14.8400   -1.2250   -2.0430 ca        1 MZ3     -0.050000
     39 C3         14.4150   -0.2120   -1.1800 ca        1 MZ3     -0.110000
     40 C4         13.3190    0.5740   -1.4980 ca        1 MZ3     -0.018000
     41 H25        -1.3730   -0.3160   -0.6710 ha        1 MZ3      0.189000
     42 H24         0.0130    1.7520   -0.3960 ha        1 MZ3      0.175000
     43 H23         2.4160    1.7260   -0.9400 ha        1 MZ3      0.132000
     44 H281        2.9240   -3.2560   -1.3510 hc        1 MZ3      0.076700
     45 H282        2.9410   -2.6540   -3.0610 hc        1 MZ3      0.076700
     46 H283        1.5070   -3.5770   -2.4400 hc        1 MZ3      0.076700
     47 HN20        4.5700    1.5390   -1.6870 hn        1 MZ3      0.476300
     48 H19         5.6920   -0.2890   -3.7240 hx        1 MZ3      0.117700
     49 H321        6.1730    2.7890   -3.6620 hc        1 MZ3      0.090700
     50 H322        6.8130    1.5680   -4.8420 hc        1 MZ3      0.090700
     51 H37         4.0600    3.8100   -4.0470 ha        1 MZ3      0.136000
     52 H36         2.0970    4.1460   -5.5380 ha        1 MZ3      0.159500
     53 H35         1.6840    2.5800   -7.4400 ha        1 MZ3      0.164000
     54 H34         3.2380    0.6640   -7.8370 ha        1 MZ3      0.159500
     55 H33         5.1970    0.3150   -6.3400 ha        1 MZ3      0.136000
     56 H17         6.8060   -0.2740   -1.5320 h1        1 MZ3      0.077700
     57 HO18        7.4710    1.7580   -0.6740 ho        1 MZ3      0.436000
     58 H161        8.4800    1.6470   -3.3110 h1        1 MZ3      0.100700
     59 H162        8.1460   -0.0780   -3.8350 h1        1 MZ3      0.100700
     60 H121        8.7760   -1.6110   -1.1920 h1        1 MZ3      0.065700
     61 H122       10.5630   -1.4250   -1.4870 h1        1 MZ3      0.065700
     62 H18        10.1200   -0.8880   -4.8390 ha        1 MZ3      0.152000
     63 H14         9.7730   -2.9610   -6.3870 ha        1 MZ3      0.178000
     64 H13         8.8890   -5.0490   -5.0380 h4        1 MZ3      0.200000
     65 H6         12.4960   -0.8540   -4.5200 ha        1 MZ3      0.190000
     66 H201       15.5120   -3.7880   -2.9870 h1        1 MZ3      0.070700
     67 H202       15.6720   -3.8570   -4.8210 h1        1 MZ3      0.070700
     68 H203       16.5260   -2.5280   -3.8720 h1        1 MZ3      0.070700
     69 H2         15.7210   -1.8380   -1.7810 ha        1 MZ3      0.185000
     70 H3         14.9640   -0.0330   -0.2380 ha        1 MZ3      0.186000
     71 H4         13.0060    1.3800   -0.8080 ha        1 MZ3      0.174000
     72 H204        3.7370    1.2670   -3.1110 hn        1 MZ3      0.476300
     73 H111        9.3920    0.6210   -1.2650 hn        1 MZ3      0.383800
@<TRIPOS>BOND
     1    1    2 1   
     2    2    3 ar  
     3    2    6 ar  
     4    3    4 ar  
     5    3   41 1   
     6    4    5 ar  
     7    4   42 1   
     8    5    8 ar  
     9    5   43 1   
    10    6    7 1   
    11    6    8 ar  
    12    7   44 1   
    13    7   45 1   
    14    7   46 1   
    15    8    9 1   
    16    9   10 2   
    17    9   11 1   
    18   11   12 1   
    19   11   47 1   
    20   11   72 1   
    21   12   13 1   
    22   12   20 1   
    23   12   48 1   
    24   13   14 1   
    25   13   49 1   
    26   13   50 1   
    27   14   15 ar  
    28   14   19 ar  
    29   15   16 ar  
    30   15   51 1   
    31   16   17 ar  
    32   16   52 1   
    33   17   18 ar  
    34   17   53 1   
    35   18   19 ar  
    36   18   54 1   
    37   19   55 1   
    38   20   21 1   
    39   20   22 1   
    40   20   56 1   
    41   21   57 1   
    42   22   23 1   
    43   22   58 1   
    44   22   59 1   
    45   23   24 1   
    46   23   73 1   
    47   24   25 1   
    48   24   60 1   
    49   24   61 1   
    50   25   26 2   
    51   25   29 1   
    52   26   27 1   
    53   26   62 1   
    54   27   28 2   
    55   27   63 1   
    56   28   29 1   
    57   28   64 1   
    58   30   31 1   
    59   30   32 1   
    60   30   33 1   
    61   33   34 ar  
    62   33   40 ar  
    63   34   35 ar  
    64   34   65 1   
    65   35   36 1   
    66   35   38 ar  
    67   36   37 1   
    68   37   66 1   
    69   37   67 1   
    70   37   68 1   
    71   38   39 ar  
    72   38   69 1   
    73   39   40 ar  
    74   39   70 1   
    75   40   71 1   
@<TRIPOS>SUBSTRUCTURE
     1 MZ3         1 TEMP              0 ****  ****    0 ROOT
