@<TRIPOS>MOLECULE
MZ3
   71    64     1     0     0
SMALL
bcc


@<TRIPOS>ATOM
      1 F29        -6.4010   -3.3620    0.6170 f         1 MZ3     -0.106000
      2 C26        -5.4720   -2.6200    1.2740 c2        1 MZ3      0.071000
      3 C25        -5.1050   -2.9550    2.5590 c2        1 MZ3     -0.146000
      4 C24        -4.1020   -2.2370    3.2040 c1        1 MZ3     -0.121000
      5 C23        -3.4730   -1.1860    2.5550 c1        1 MZ3     -0.115000
      6 C27        -4.8330   -1.5540    0.6180 c1        1 MZ3     -0.050000
      7 C28        -5.2060   -1.2110   -0.8110 c3        1 MZ3     -0.198000
      8 C22        -3.8400   -0.8470    1.2610 c1        1 MZ3     -0.106000
      9 C21        -3.1280    0.3910    0.5340 c2        1 MZ3      0.368000
     10 O22        -3.4410    0.6920   -0.5930 o         1 MZ3     -0.398000
     11 N20        -2.2330    1.2360    1.2820 n         1 MZ3     -0.358000
     12 C19        -1.2470    1.9830    0.6070 c3        1 MZ3      0.006000
     13 C32        -1.2290    3.3950    1.1430 c3        1 MZ3     -0.139000
     14 C38        -2.1050    4.2860    0.2500 c2        1 MZ3     -0.071000
     15 C37        -3.3040    4.8060    0.7440 c2        1 MZ3     -0.128000
     16 C36        -4.0330    5.7200   -0.0160 c1        1 MZ3     -0.127000
     17 C35        -3.5660    6.1130   -1.2640 c1        1 MZ3     -0.128500
     18 C34        -2.3670    5.5920   -1.7570 c1        1 MZ3     -0.128500
     19 C33        -1.6400    4.6790   -0.9970 c1        1 MZ3     -0.122000
     20 C17         0.1290    1.3310    0.8170 c3        1 MZ3     -0.007000
     21 O18         0.8620    2.0740    1.7310 oh        1 MZ3     -0.324000
     22 C16         0.8780    1.2820   -0.5170 c3        1 MZ3     -0.022000
     23 N11         1.9060    0.1990   -0.4730 n3        1 MZ3     -0.818000
     24 C12         3.2970    0.5320   -0.4510 c3        1 MZ3      0.073000
     25 C15         3.8830    0.1730    0.8970 c2        1 MZ3     -0.420000
     26 C18         5.3180    0.0100    1.1950 c1        1 MZ3     -0.142000
     27 C14         5.4910   -0.1410    2.7810 c1        1 MZ3     -0.160000
     28 C13         4.1670   -0.0660    3.4000 c1        1 MZ3     -0.446000
     29 S1          3.1060    0.1340    2.2530 ss        1 MZ3      0.576000
     30 S8          1.4320   -1.3980   -0.5580 s4        1 MZ3      2.060800
     31 O9          1.5300   -2.0500    0.7450 o         1 MZ3     -0.552400
     32 O10        -0.0080   -1.5070   -0.8250 o         1 MZ3     -0.552400
     33 C5          2.4000   -2.2840   -1.8130 c1        1 MZ3     -0.796000
     34 C6          3.5920   -2.9020   -1.4630 c2        1 MZ3     -0.106000
     35 C7          4.2940   -3.6650   -2.4130 c1        1 MZ3      0.053000
     36 O19         5.5790   -4.1680   -2.1010 o         1 MZ3     -0.210000
     37 C20         5.5850   -5.5290   -1.6640 c3        1 MZ3     -0.079000
     38 C2          3.7890   -3.7990   -3.7140 c2        1 MZ3     -0.091000
     39 C3          2.5910   -3.1760   -4.0630 c1        1 MZ3     -0.125000
     40 C4          1.8950   -2.4180   -3.1160 c1        1 MZ3     -0.042000
     41 H25        -5.5450   -3.6880    3.0120 ha        1 MZ3      0.148000
     42 H24        -3.8430   -2.4710    4.1070 ha        1 MZ3      0.143000
     43 H23        -2.7520   -0.6710    3.0190 ha        1 MZ3      0.184000
     44 H281       -4.4080   -1.2430   -1.3740 hc        1 MZ3      0.101333
     45 H282       -5.6000   -0.2910   -0.8420 hc        1 MZ3      0.101333
     46 H283       -5.8680   -1.8640   -1.1430 hc        1 MZ3      0.101333
     47 HN20       -2.2710    1.2470    2.2100 hn        1 MZ3      0.234000
     48 H19        -1.4610    2.0020   -0.3800 h1        1 MZ3      0.131000
     49 H321       -1.5730    3.4020    2.0380 hc        1 MZ3      0.097500
     50 H322       -0.2930    3.7410    1.1430 hc        1 MZ3      0.097500
     51 H37        -3.6360    4.5280    1.6300 ha        1 MZ3      0.128000
     52 H36        -4.8870    6.0900    0.3340 ha        1 MZ3      0.132000
     53 H35        -4.0890    6.7700   -1.8110 ha        1 MZ3      0.132500
     54 H34        -2.0300    5.8770   -2.6590 ha        1 MZ3      0.132500
     55 H33        -0.8040    4.3160   -1.3440 ha        1 MZ3      0.135000
     56 H17         0.0140    0.4390    1.1490 h1        1 MZ3      0.096000
     57 HO18        0.7040    1.7570    2.5810 ho        1 MZ3      0.203000
     58 H161        1.3310    2.1770   -0.6850 h1        1 MZ3      0.117000
     59 H162        0.2450    1.0990   -1.2360 h1        1 MZ3      0.117000
     60 H121        3.7660    0.0270   -1.1580 h1        1 MZ3      0.096500
     61 H122        3.4090    1.5120   -0.6120 h1        1 MZ3      0.096500
     62 H18         6.0050   -0.0040    0.5710 DU        1 MZ3      0.168667
     63 H14         6.3500   -0.2640    3.2620 DU        1 MZ3      0.168667
     64 H13         3.9780   -0.1270    4.3440 DU        1 MZ3      0.168667
     65 H6          3.9610   -2.7920   -0.5330 ha        1 MZ3      0.161000
     66 H201        4.9780   -5.6320   -0.8980 h1        1 MZ3      0.087333
     67 H202        5.2880   -6.1100   -2.3960 h1        1 MZ3      0.087333
     68 H203        6.4750   -5.7750   -1.4020 h1        1 MZ3      0.087333
     69 H2          4.2930   -4.3470   -4.3990 ha        1 MZ3      0.154000
     70 H3          2.2150   -3.2740   -5.0260 ha        1 MZ3      0.149000
     71 H4          1.0570   -1.9830   -3.3590 ha        1 MZ3      0.169000
@<TRIPOS>BOND
     1    1    2 1   
     2    2    3 1   
     3    2    6 1   
     4    3    4 1   
     5    3   41 1   
     6    4   42 1   
     7    5    8 1   
     8    5   43 1   
     9    6    7 1   
    10    7   44 1   
    11    7   45 1   
    12    7   46 1   
    13    8    9 1   
    14    9   10 1   
    15    9   11 1   
    16   11   12 1   
    17   11   47 1   
    18   12   13 1   
    19   12   20 1   
    20   12   48 1   
    21   13   14 1   
    22   13   49 1   
    23   13   50 1   
    24   14   15 1   
    25   14   19 1   
    26   15   16 1   
    27   15   51 1   
    28   16   52 1   
    29   17   18 1   
    30   17   53 1   
    31   18   54 1   
    32   19   55 1   
    33   20   21 1   
    34   20   22 1   
    35   20   56 1   
    36   21   57 1   
    37   22   23 1   
    38   22   58 1   
    39   22   59 1   
    40   23   24 1   
    41   23   30 1   
    42   24   25 1   
    43   24   60 1   
    44   24   61 1   
    45   25   26 1   
    46   25   29 1   
    47   26   27 1   
    48   27   28 1   
    49   28   29 1   
    50   30   31 1   
    51   30   32 1   
    52   33   34 1   
    53   33   40 1   
    54   34   35 1   
    55   34   65 1   
    56   35   38 1   
    57   36   37 1   
    58   37   66 1   
    59   37   67 1   
    60   37   68 1   
    61   38   39 1   
    62   38   69 1   
    63   39   70 1   
    64   40   71 1   
@<TRIPOS>SUBSTRUCTURE
     1 MZ3         1 TEMP              0 ****  ****    0 ROOT
