@<TRIPOS>MOLECULE
MZ4
   70    73     1     0     0
SMALL
bcc


@<TRIPOS>ATOM
      1 O10        -4.9510   -1.3970    0.7630 o         1 MZ4     -0.648800
      2 S8         -3.6150   -1.0550    1.0640 sy        1 MZ4      1.500200
      3 O9         -3.3690   -0.5340    2.3530 o         1 MZ4     -0.648800
      4 C5         -2.6460   -2.4220    0.8420 ca        1 MZ4     -0.349500
      5 C4         -2.8760   -3.2860   -0.2380 ca        1 MZ4     -0.058000
      6 C3         -2.1050   -4.4300   -0.4120 ca        1 MZ4     -0.120000
      7 C2         -1.0890   -4.7410    0.4930 ca        1 MZ4     -0.142000
      8 C7         -0.8630   -3.8900    1.5800 ca        1 MZ4      0.106100
      9 O19         0.0840   -4.1070    2.5620 os        1 MZ4     -0.316900
     10 C20         1.0260   -5.1430    2.3070 c3        1 MZ4      0.112700
     11 C6         -1.6370   -2.7280    1.7540 ca        1 MZ4     -0.041000
     12 N11        -3.0590   -0.0090   -0.0660 n3        1 MZ4     -0.804500
     13 C12        -3.6820    0.1170   -1.3620 c3        1 MZ4      0.293100
     14 C15        -4.3680    1.4130   -1.6160 cc        1 MZ4     -0.159400
     15 S1         -5.8430    1.8640   -0.9580 ss        1 MZ4      0.086200
     16 C13        -5.8850    3.3220   -1.7550 cc        1 MZ4     -0.180100
     17 C14        -4.7730    3.5060   -2.5520 cd        1 MZ4     -0.162000
     18 C18        -3.8860    2.3910   -2.4700 cd        1 MZ4     -0.156000
     19 C16        -1.9390    0.8540    0.1900 c3        1 MZ4      0.191800
     20 C17        -0.6700    0.5390   -0.6310 c3        1 MZ4      0.093100
     21 O18        -0.7760    1.0020   -1.9650 oh        1 MZ4     -0.600800
     22 C19         0.5900    1.1300    0.0680 c3        1 MZ4      0.078700
     23 C32         0.4650    2.6620    0.1800 c3        1 MZ4     -0.052100
     24 C38         1.5850    3.2790    0.9390 ca        1 MZ4     -0.079300
     25 C33         1.7220    3.0380    2.3120 ca        1 MZ4     -0.121000
     26 C34         2.7570    3.6330    3.0300 ca        1 MZ4     -0.127500
     27 C35         3.6620    4.4760    2.3850 ca        1 MZ4     -0.130000
     28 C36         3.5300    4.7210    1.0190 ca        1 MZ4     -0.127500
     29 C37         2.4960    4.1250    0.2980 ca        1 MZ4     -0.121000
     30 N20         1.7940    0.7320   -0.6200 n         1 MZ4     -0.556900
     31 C21         2.6850   -0.1850   -0.1030 c         1 MZ4      0.679700
     32 O22         2.5340   -0.6710    1.0370 o         1 MZ4     -0.610100
     33 C22         3.8600   -0.5420   -0.9500 ca        1 MZ4     -0.141600
     34 C23         3.7530   -0.7270   -2.3310 ca        1 MZ4     -0.101000
     35 C24         4.8700   -1.0770   -3.0870 ca        1 MZ4     -0.145000
     36 C27         5.0910   -0.7160   -0.3070 ca        1 MZ4     -0.119000
     37 C26         6.2140   -1.0620   -1.0590 ca        1 MZ4      0.031100
     38 O29         7.4690   -1.2460   -0.5140 oh        1 MZ4     -0.516100
     39 C25         6.1110   -1.2420   -2.4570 ca        1 MZ4      0.132100
     40 O28         7.1810   -1.5800   -3.2450 oh        1 MZ4     -0.490100
     41 H4         -3.6910   -3.0590   -0.9460 ha        1 MZ4      0.144000
     42 H3         -2.2960   -5.0980   -1.2650 ha        1 MZ4      0.141000
     43 H2         -0.4820   -5.6460    0.3460 ha        1 MZ4      0.143000
     44 H201        1.7390   -5.0600    3.1660 h1        1 MZ4      0.047367
     45 H202        0.5190   -6.1390    2.3090 h1        1 MZ4      0.047367
     46 H203        1.5530   -4.9720    1.3370 h1        1 MZ4      0.047367
     47 H6         -1.4450   -2.0760    2.6250 ha        1 MZ4      0.177000
     48 H121       -2.8870   -0.0190   -2.1580 h1        1 MZ4      0.073700
     49 H122       -4.4350   -0.7220   -1.4710 h1        1 MZ4      0.073700
     50 H13        -6.7040    4.0320   -1.6480 h4        1 MZ4      0.173000
     51 H14        -4.5800    4.3810   -3.1740 ha        1 MZ4      0.153000
     52 H18        -2.9510    2.3210   -3.0300 ha        1 MZ4      0.150000
     53 H161       -2.2480    1.9180   -0.0350 h1        1 MZ4      0.069200
     54 H162       -1.6810    0.7890    1.2880 h1        1 MZ4      0.069200
     55 H17        -0.5360   -0.5760   -0.7440 h1        1 MZ4      0.093700
     56 HO18       -1.0520    1.9270   -1.9340 ho        1 MZ4      0.401000
     57 H19         0.6320    0.7000    1.1160 h1        1 MZ4      0.100700
     58 H321        0.4030    3.1120   -0.8470 hc        1 MZ4      0.052700
     59 H322       -0.4990    2.8910    0.7100 hc        1 MZ4      0.052700
     60 H33         1.0120    2.3700    2.8240 ha        1 MZ4      0.131500
     61 H34         2.8590    3.4370    4.1080 ha        1 MZ4      0.132500
     62 H35         4.4780    4.9470    2.9530 ha        1 MZ4      0.131000
     63 H36         4.2410    5.3860    0.5070 ha        1 MZ4      0.132500
     64 H37         2.3970    4.3230   -0.7800 ha        1 MZ4      0.131500
     65 HN20        1.9000    1.0530   -1.5530 hn        1 MZ4      0.318500
     66 H23         2.7830   -0.6160   -2.8390 ha        1 MZ4      0.142000
     67 H24         4.7960   -1.2280   -4.1730 ha        1 MZ4      0.158000
     68 H27         5.1590   -0.5910    0.7850 ha        1 MZ4      0.160000
     69 HO29        7.3960   -1.1290    0.4440 ho        1 MZ4      0.434000
     70 HO28        7.9610   -1.6680   -2.6730 ho        1 MZ4      0.441000
@<TRIPOS>BOND
     1    1    2 2   
     2    2    3 2   
     3    2    4 1   
     4    2   12 1   
     5    4    5 ar  
     6    4   11 ar  
     7    5    6 ar  
     8    5   41 1   
     9    6    7 ar  
    10    6   42 1   
    11    7    8 ar  
    12    7   43 1   
    13    8    9 1   
    14    8   11 ar  
    15    9   10 1   
    16   10   44 1   
    17   10   45 1   
    18   10   46 1   
    19   11   47 1   
    20   12   13 1   
    21   12   19 1   
    22   13   14 1   
    23   13   48 1   
    24   13   49 1   
    25   14   15 1   
    26   14   18 2   
    27   15   16 1   
    28   16   17 2   
    29   16   50 1   
    30   17   18 1   
    31   17   51 1   
    32   18   52 1   
    33   19   20 1   
    34   19   53 1   
    35   19   54 1   
    36   20   21 1   
    37   20   22 1   
    38   20   55 1   
    39   21   56 1   
    40   22   23 1   
    41   22   30 1   
    42   22   57 1   
    43   23   24 1   
    44   23   58 1   
    45   23   59 1   
    46   24   25 ar  
    47   24   29 ar  
    48   25   26 ar  
    49   25   60 1   
    50   26   27 ar  
    51   26   61 1   
    52   27   28 ar  
    53   27   62 1   
    54   28   29 ar  
    55   28   63 1   
    56   29   64 1   
    57   30   31 1   
    58   30   65 1   
    59   31   32 2   
    60   31   33 1   
    61   33   34 ar  
    62   33   36 ar  
    63   34   35 ar  
    64   34   66 1   
    65   35   39 ar  
    66   35   67 1   
    67   36   37 ar  
    68   36   68 1   
    69   37   38 1   
    70   37   39 ar  
    71   38   69 1   
    72   39   40 1   
    73   40   70 1   
@<TRIPOS>SUBSTRUCTURE
     1 MZ4         1 TEMP              0 ****  ****    0 ROOT
