@<TRIPOS>MOLECULE
MZ4
   72    74     1     0     0
SMALL
bcc


@<TRIPOS>ATOM
      1 O10         0.8540    0.2600    0.9430 o         1 MZ4     -0.430400
      2 S8          1.7630   -0.7160    0.6970 s4        1 MZ4      1.672300
      3 O9          2.9970   -0.7260    1.2660 o         1 MZ4     -0.430400
      4 C5          1.2680   -2.0150   -0.0160 ca        1 MZ4     -0.570500
      5 C4         -0.0600   -2.1220   -0.5020 ca        1 MZ4     -0.015000
      6 C3         -0.5230   -3.2980   -1.0720 ca        1 MZ4     -0.108000
      7 C2          0.3130   -4.4100   -1.1880 ca        1 MZ4     -0.053000
      8 C7          1.6400   -4.3270   -0.7250 ca        1 MZ4      0.124100
      9 O19         2.5630   -5.3380   -0.8000 os        1 MZ4     -0.307900
     10 C20         2.0960   -6.6060   -1.2710 c3        1 MZ4      0.101700
     11 C6          2.1120   -3.1430   -0.1420 ca        1 MZ4     -0.031000
     12 N11         2.6470    0.3190   -1.3010 n3        1 MZ4     -0.907200
     13 C12         1.5800    0.8930   -2.1430 c3        1 MZ4      0.227100
     14 C15         1.3350    2.3470   -2.0540 cc        1 MZ4     -0.241400
     15 S1          0.6360    3.1560   -0.7600 ss        1 MZ4      0.116200
     16 C13         0.5940    4.6180   -1.5410 cc        1 MZ4     -0.141100
     17 C14         1.0940    4.5340   -2.8270 cd        1 MZ4     -0.157000
     18 C18         1.5210    3.2110   -3.1300 cd        1 MZ4     -0.139000
     19 C16         3.7600    1.1980   -0.9670 c3        1 MZ4      0.093800
     20 C17         4.8820    1.2600   -2.0180 c3        1 MZ4      0.103100
     21 O18         4.4570    1.7730   -3.2610 oh        1 MZ4     -0.605800
     22 C19         6.0880    2.0800   -1.4810 c3        1 MZ4      0.103500
     23 C32         5.6800    3.4990   -1.0580 c3        1 MZ4     -0.052100
     24 C38         6.8520    4.3480   -0.7120 ca        1 MZ4     -0.169300
     25 C33         7.4890    4.1990    0.5260 ca        1 MZ4     -0.131500
     26 C34         8.5590    5.0250    0.8670 ca        1 MZ4     -0.112500
     27 C35         8.9970    6.0070   -0.0240 ca        1 MZ4     -0.092000
     28 C36         8.3630    6.1610   -1.2570 ca        1 MZ4     -0.112500
     29 C37         7.2940    5.3350   -1.6030 ca        1 MZ4     -0.131500
     30 N20         7.1770    2.1260   -2.5190 n4        1 MZ4     -0.677800
     31 C21         8.0560    0.8860   -2.5580 c         1 MZ4      0.589700
     32 O22         7.6110   -0.0950   -1.9730 o         1 MZ4     -0.461100
     33 C22         9.3210    1.0150   -3.2700 ca        1 MZ4     -0.216600
     34 C23         9.6100    2.0510   -4.1710 ca        1 MZ4     -0.080000
     35 C24        10.8370    2.0920   -4.8200 ca        1 MZ4     -0.178000
     36 C27        10.2700    0.0030   -3.0220 ca        1 MZ4     -0.058000
     37 C26        11.5080    0.0420   -3.6660 ca        1 MZ4      0.119100
     38 O29        12.3900   -0.9620   -3.3780 oh        1 MZ4     -0.465100
     39 C25        11.7940    1.0970   -4.5730 ca        1 MZ4      0.137100
     40 O28        13.0250    1.0570   -5.1580 oh        1 MZ4     -0.477100
     41 H4         -0.7410   -1.2540   -0.4090 ha        1 MZ4      0.175000
     42 H3         -1.5660   -3.3610   -1.4320 ha        1 MZ4      0.187000
     43 H2         -0.0700   -5.3440   -1.6360 ha        1 MZ4      0.185000
     44 H201        1.7690   -6.5270   -2.3350 h1        1 MZ4      0.071033
     45 H202        1.2740   -6.9880   -0.6200 h1        1 MZ4      0.071033
     46 H203        3.0090   -7.2520   -1.1800 h1        1 MZ4      0.071033
     47 H6          3.1510   -3.1130    0.2350 ha        1 MZ4      0.186000
     48 H121        0.6390    0.3390   -1.8430 h1        1 MZ4      0.072200
     49 H122        1.7890    0.6450   -3.2280 h1        1 MZ4      0.072200
     50 H13         0.1990    5.5270   -1.0810 h4        1 MZ4      0.201000
     51 H14         1.1430    5.3640   -3.5380 ha        1 MZ4      0.180000
     52 H18         1.9060    2.9180   -4.1110 ha        1 MZ4      0.161000
     53 H161        3.3620    2.2390   -0.7820 h1        1 MZ4      0.100200
     54 H162        4.2160    0.8150   -0.0060 h1        1 MZ4      0.100200
     55 H17         5.2470    0.2130   -2.2560 h1        1 MZ4      0.107700
     56 HO18        3.8320    2.4980   -3.1030 ho        1 MZ4      0.437000
     57 H19         6.5120    1.5370   -0.5820 hx        1 MZ4      0.124700
     58 H321        5.0180    3.4000   -0.1540 hc        1 MZ4      0.080700
     59 H322        5.0760    3.9780   -1.8750 hc        1 MZ4      0.080700
     60 H33         7.1330    3.4420    1.2420 ha        1 MZ4      0.135000
     61 H34         9.0500    4.9110    1.8470 ha        1 MZ4      0.160500
     62 H35         9.8350    6.6680    0.2530 ha        1 MZ4      0.164000
     63 H36         8.6960    6.9480   -1.9530 ha        1 MZ4      0.160500
     64 H37         6.7740    5.4910   -2.5600 ha        1 MZ4      0.135000
     65 HN20        6.7370    2.2410   -3.4430 hn        1 MZ4      0.472800
     66 H23         8.8790    2.8400   -4.4060 ha        1 MZ4      0.129000
     67 H24        11.0610    2.9030   -5.5320 ha        1 MZ4      0.170000
     68 H27        10.0500   -0.8250   -2.3250 ha        1 MZ4      0.188000
     69 HO29       13.2040   -0.8250   -3.8960 ho        1 MZ4      0.463000
     70 HO28       13.1190    1.8100   -5.7660 ho        1 MZ4      0.461000
     71 H111        3.0130   -0.4860   -1.7940 hn        1 MZ4      0.391800
     72 H204        7.7750    2.9470   -2.3340 hn        1 MZ4      0.472800
@<TRIPOS>BOND
     1    1    2 1   
     2    2    3 1   
     3    2    4 1   
     4    4    5 ar  
     5    4   11 ar  
     6    5    6 ar  
     7    5   41 1   
     8    6    7 ar  
     9    6   42 1   
    10    7    8 ar  
    11    7   43 1   
    12    8    9 1   
    13    8   11 ar  
    14    9   10 1   
    15   10   44 1   
    16   10   45 1   
    17   10   46 1   
    18   11   47 1   
    19   12   13 1   
    20   12   19 1   
    21   12   71 1   
    22   13   14 1   
    23   13   48 1   
    24   13   49 1   
    25   14   15 1   
    26   14   18 2   
    27   15   16 1   
    28   16   17 2   
    29   16   50 1   
    30   17   18 1   
    31   17   51 1   
    32   18   52 1   
    33   19   20 1   
    34   19   53 1   
    35   19   54 1   
    36   20   21 1   
    37   20   22 1   
    38   20   55 1   
    39   21   56 1   
    40   22   23 1   
    41   22   30 1   
    42   22   57 1   
    43   23   24 1   
    44   23   58 1   
    45   23   59 1   
    46   24   25 ar  
    47   24   29 ar  
    48   25   26 ar  
    49   25   60 1   
    50   26   27 ar  
    51   26   61 1   
    52   27   28 ar  
    53   27   62 1   
    54   28   29 ar  
    55   28   63 1   
    56   29   64 1   
    57   30   31 1   
    58   30   65 1   
    59   30   72 1   
    60   31   32 2   
    61   31   33 1   
    62   33   34 ar  
    63   33   36 ar  
    64   34   35 ar  
    65   34   66 1   
    66   35   39 ar  
    67   35   67 1   
    68   36   37 ar  
    69   36   68 1   
    70   37   38 1   
    71   37   39 ar  
    72   38   69 1   
    73   39   40 1   
    74   40   70 1   
@<TRIPOS>SUBSTRUCTURE
     1 MZ4         1 TEMP              0 ****  ****    0 ROOT
