@<TRIPOS>MOLECULE
MZ4
   72    74     1     0     0
SMALL
bcc


@<TRIPOS>ATOM
      1 O10         0.9580    0.1930    1.0420 o         1 MZ4     -0.430400
      2 S8          1.8620   -0.7730    0.7510 s4        1 MZ4      1.673300
      3 O9          3.1130   -0.7880    1.2810 o         1 MZ4     -0.430400
      4 C5          1.3500   -2.0630    0.0320 ca        1 MZ4     -0.570500
      5 C4          0.0080   -2.1670   -0.4140 ca        1 MZ4     -0.015000
      6 C3         -0.4680   -3.3360   -0.9900 ca        1 MZ4     -0.108000
      7 C2          0.3690   -4.4420   -1.1510 ca        1 MZ4     -0.053000
      8 C7          1.7090   -4.3610   -0.7270 ca        1 MZ4      0.124100
      9 O19         2.6330   -5.3660   -0.8480 os        1 MZ4     -0.307900
     10 C20         2.1570   -6.6280   -1.3270 c3        1 MZ4      0.101700
     11 C6          2.1940   -3.1850   -0.1400 ca        1 MZ4     -0.030000
     12 N11         2.6790    0.2990   -1.2550 n3        1 MZ4     -0.907200
     13 C12         1.5850    0.8720   -2.0620 c3        1 MZ4      0.227100
     14 C15         1.3240    2.3210   -1.9450 cc        1 MZ4     -0.241400
     15 S1          0.6510    3.1020   -0.6210 ss        1 MZ4      0.115200
     16 C13         0.5680    4.5740   -1.3780 cc        1 MZ4     -0.141100
     17 C14         1.0330    4.5160   -2.6790 cd        1 MZ4     -0.157000
     18 C18         1.4690    3.2030   -3.0120 cd        1 MZ4     -0.139000
     19 C16         3.7910    1.1880   -0.9380 c3        1 MZ4      0.093800
     20 C17         4.8840    1.2800   -2.0170 c3        1 MZ4      0.103100
     21 O18         4.4190    1.8050   -3.2400 oh        1 MZ4     -0.605800
     22 C19         6.0930    2.1060   -1.5000 c3        1 MZ4      0.103500
     23 C32         5.6800    3.5140   -1.0450 c3        1 MZ4     -0.052100
     24 C38         6.8500    4.3720   -0.7180 ca        1 MZ4     -0.169300
     25 C33         7.5210    4.2130    0.5010 ca        1 MZ4     -0.131500
     26 C34         8.5900    5.0470    0.8260 ca        1 MZ4     -0.112500
     27 C35         8.9920    6.0470   -0.0610 ca        1 MZ4     -0.092000
     28 C36         8.3230    6.2120   -1.2750 ca        1 MZ4     -0.112500
     29 C37         7.2560    5.3780   -1.6040 ca        1 MZ4     -0.131500
     30 N20         7.1530    2.1820   -2.5670 n4        1 MZ4     -0.677800
     31 C21         8.0460    0.9540   -2.6480 c         1 MZ4      0.589700
     32 O22         7.6290   -0.0420   -2.0660 o         1 MZ4     -0.461100
     33 C22         9.2900    1.1100   -3.3900 ca        1 MZ4     -0.216600
     34 C23         9.5420    2.1630   -4.2830 ca        1 MZ4     -0.080000
     35 C24        10.7520    2.2300   -4.9620 ca        1 MZ4     -0.178000
     36 C27        10.2590    0.1070   -3.1820 ca        1 MZ4     -0.058000
     37 C26        11.4790    0.1720   -3.8570 ca        1 MZ4      0.119100
     38 O29        12.3810   -0.8240   -3.6070 oh        1 MZ4     -0.465100
     39 C25        11.7280    1.2440   -4.7550 ca        1 MZ4      0.137100
     40 O28        12.9440    1.2290   -5.3730 oh        1 MZ4     -0.477100
     41 H4         -0.6730   -1.3050   -0.2860 ha        1 MZ4      0.175000
     42 H3         -1.5210   -3.3970   -1.3190 ha        1 MZ4      0.187000
     43 H2         -0.0240   -5.3700   -1.6020 ha        1 MZ4      0.185000
     44 H201        1.7970   -6.5320   -2.3790 h1        1 MZ4      0.071033
     45 H202        3.0750   -7.2720   -1.2760 h1        1 MZ4      0.071033
     46 H203        1.3570   -7.0250   -0.6580 h1        1 MZ4      0.071033
     47 H6          3.2450   -3.1560    0.2050 ha        1 MZ4      0.186000
     48 H121        1.7710    0.6430   -3.1560 h1        1 MZ4      0.072200
     49 H122        0.6590    0.3010   -1.7480 h1        1 MZ4      0.072200
     50 H13         0.1740    5.4720   -0.8940 h4        1 MZ4      0.201000
     51 H14         1.0530    5.3560   -3.3790 ha        1 MZ4      0.180000
     52 H18         1.8310    2.9290   -4.0080 ha        1 MZ4      0.161000
     53 H161        4.2770    0.7960    0.0050 h1        1 MZ4      0.100200
     54 H162        3.3850    2.2200   -0.7260 h1        1 MZ4      0.100200
     55 H17         5.2540    0.2410   -2.2810 h1        1 MZ4      0.107700
     56 HO18        3.7890    2.5200   -3.0550 ho        1 MZ4      0.437000
     57 H19         6.5480    1.5560   -0.6210 hx        1 MZ4      0.124700
     58 H321        5.0480    3.9970   -1.8380 hc        1 MZ4      0.080700
     59 H322        5.0430    3.3930   -0.1260 hc        1 MZ4      0.080700
     60 H33         7.1940    3.4400    1.2140 ha        1 MZ4      0.135000
     61 H34         9.1080    4.9250    1.7900 ha        1 MZ4      0.160500
     62 H35         9.8290    6.7150    0.2030 ha        1 MZ4      0.164000
     63 H36         8.6270    7.0140   -1.9670 ha        1 MZ4      0.160500
     64 H37         6.7070    5.5420   -2.5450 ha        1 MZ4      0.135000
     65 HN20        6.6870    2.3040   -3.4760 hn        1 MZ4      0.472300
     66 H23         8.7960    2.9450   -4.4870 ha        1 MZ4      0.129000
     67 H24        10.9460    3.0540   -5.6680 ha        1 MZ4      0.170000
     68 H27        10.0680   -0.7330   -2.4920 ha        1 MZ4      0.188000
     69 HO29       13.1790   -0.6690   -4.1430 ho        1 MZ4      0.463000
     70 HO28       13.0120    1.9920   -5.9720 ho        1 MZ4      0.461000
     71 H111        3.0430   -0.4940   -1.7690 hn        1 MZ4      0.391800
     72 H204        7.7460    3.0080   -2.3850 hn        1 MZ4      0.472300
@<TRIPOS>BOND
     1    1    2 1   
     2    2    3 1   
     3    2    4 1   
     4    4    5 ar  
     5    4   11 ar  
     6    5    6 ar  
     7    5   41 1   
     8    6    7 ar  
     9    6   42 1   
    10    7    8 ar  
    11    7   43 1   
    12    8    9 1   
    13    8   11 ar  
    14    9   10 1   
    15   10   44 1   
    16   10   45 1   
    17   10   46 1   
    18   11   47 1   
    19   12   13 1   
    20   12   19 1   
    21   12   71 1   
    22   13   14 1   
    23   13   48 1   
    24   13   49 1   
    25   14   15 1   
    26   14   18 2   
    27   15   16 1   
    28   16   17 2   
    29   16   50 1   
    30   17   18 1   
    31   17   51 1   
    32   18   52 1   
    33   19   20 1   
    34   19   53 1   
    35   19   54 1   
    36   20   21 1   
    37   20   22 1   
    38   20   55 1   
    39   21   56 1   
    40   22   23 1   
    41   22   30 1   
    42   22   57 1   
    43   23   24 1   
    44   23   58 1   
    45   23   59 1   
    46   24   25 ar  
    47   24   29 ar  
    48   25   26 ar  
    49   25   60 1   
    50   26   27 ar  
    51   26   61 1   
    52   27   28 ar  
    53   27   62 1   
    54   28   29 ar  
    55   28   63 1   
    56   29   64 1   
    57   30   31 1   
    58   30   65 1   
    59   30   72 1   
    60   31   32 2   
    61   31   33 1   
    62   33   34 ar  
    63   33   36 ar  
    64   34   35 ar  
    65   34   66 1   
    66   35   39 ar  
    67   35   67 1   
    68   36   37 ar  
    69   36   68 1   
    70   37   38 1   
    71   37   39 ar  
    72   38   69 1   
    73   39   40 1   
    74   40   70 1   
@<TRIPOS>SUBSTRUCTURE
     1 MZ4         1 TEMP              0 ****  ****    0 ROOT
