@<TRIPOS>MOLECULE
MZ4
   72    74     1     0     0
SMALL
bcc


@<TRIPOS>ATOM
      1 O10         0.9070    0.1970    0.9760 o         1 MZ4     -0.430400
      2 S8          1.8200   -0.7670    0.7030 s4        1 MZ4      1.672300
      3 O9          3.0620   -0.7760    1.2550 o         1 MZ4     -0.430400
      4 C5          1.3260   -2.0600   -0.0220 ca        1 MZ4     -0.570500
      5 C4         -0.0080   -2.1700   -0.4910 ca        1 MZ4     -0.015000
      6 C3         -0.4700   -3.3420   -1.0720 ca        1 MZ4     -0.108000
      7 C2          0.3730   -4.4450   -1.2160 ca        1 MZ4     -0.053000
      8 C7          1.7050   -4.3580   -0.7700 ca        1 MZ4      0.124100
      9 O19         2.6350   -5.3600   -0.8730 os        1 MZ4     -0.307900
     10 C20         2.1720   -6.6250   -1.3570 c3        1 MZ4      0.101700
     11 C6          2.1760   -3.1790   -0.1770 ca        1 MZ4     -0.030000
     12 N11         2.6680    0.3040   -1.2910 n7        1 MZ4     -0.907200
     13 C12         1.5850    0.8780   -2.1130 c3        1 MZ4      0.227100
     14 C15         1.3240    2.3280   -2.0010 cc        1 MZ4     -0.241400
     15 S1          0.6330    3.1110   -0.6880 ss        1 MZ4      0.115200
     16 C13         0.5650    4.5820   -1.4470 cc        1 MZ4     -0.141100
     17 C14         1.0480    4.5220   -2.7400 cd        1 MZ4     -0.157000
     18 C18         1.4870    3.2080   -3.0660 cd        1 MZ4     -0.139000
     19 C16         3.7760    1.1920   -0.9590 c3        1 MZ4      0.093800
     20 C17         4.8840    1.2810   -2.0220 c3        1 MZ4      0.103100
     21 O18         4.4380    1.8060   -3.2520 oh        1 MZ4     -0.605800
     22 C19         6.0870    2.1070   -1.4880 c3        1 MZ4      0.103500
     23 C32         5.6690    3.5150   -1.0400 c3        1 MZ4     -0.052100
     24 C38         6.8350    4.3710   -0.6960 ca        1 MZ4     -0.169300
     25 C33         7.4880    4.2130    0.5320 ca        1 MZ4     -0.131500
     26 C34         8.5530    5.0460    0.8720 ca        1 MZ4     -0.112500
     27 C35         8.9690    6.0450   -0.0090 ca        1 MZ4     -0.092000
     28 C36         8.3190    6.2090   -1.2330 ca        1 MZ4     -0.112500
     29 C37         7.2550    5.3760   -1.5770 ca        1 MZ4     -0.131500
     30 N20         7.1620    2.1800   -2.5390 ny        1 MZ4     -0.677800
     31 C21         8.0540    0.9510   -2.6060 c         1 MZ4      0.589700
     32 O22         7.6280   -0.0440   -2.0300 o         1 MZ4     -0.461100
     33 C22         9.3090    1.1040   -3.3310 ca        1 MZ4     -0.216600
     34 C23         9.5750    2.1560   -4.2210 ca        1 MZ4     -0.080000
     35 C24        10.7950    2.2210   -4.8830 ca        1 MZ4     -0.178000
     36 C27        10.2730    0.1000   -3.1080 ca        1 MZ4     -0.058000
     37 C26        11.5030    0.1630   -3.7660 ca        1 MZ4      0.119100
     38 O29        12.4000   -0.8350   -3.5030 oh        1 MZ4     -0.465100
     39 C25        11.7660    1.2340   -4.6610 ca        1 MZ4      0.137100
     40 O28        12.9910    1.2160   -5.2610 oh        1 MZ4     -0.477100
     41 H4         -0.6950   -1.3100   -0.3760 ha        1 MZ4      0.175000
     42 H3         -1.5180   -3.4070   -1.4190 ha        1 MZ4      0.187000
     43 H2         -0.0090   -5.3760   -1.6720 ha        1 MZ4      0.185000
     44 H201        1.8300   -6.5330   -2.4150 h1        1 MZ4      0.071033
     45 H202        1.3610   -7.0230   -0.7000 h1        1 MZ4      0.071033
     46 H203        3.0910   -7.2650   -1.2880 h1        1 MZ4      0.071033
     47 H6          3.2210   -3.1460    0.1860 ha        1 MZ4      0.186000
     48 H121        0.6540    0.3090   -1.8100 h1        1 MZ4      0.072200
     49 H122        1.7850    0.6470   -3.2040 h1        1 MZ4      0.072200
     50 H13         0.1640    5.4810   -0.9690 h4        1 MZ4      0.201000
     51 H14         1.0800    5.3620   -3.4410 ha        1 MZ4      0.180000
     52 H18         1.8630    2.9330   -4.0560 ha        1 MZ4      0.161000
     53 H161        4.2470    0.8000   -0.0080 h1        1 MZ4      0.100200
     54 H162        3.3680    2.2240   -0.7540 h1        1 MZ4      0.100200
     55 H17         5.2570    0.2410   -2.2790 h1        1 MZ4      0.107700
     56 HO18        3.8070    2.5220   -3.0760 ho        1 MZ4      0.437000
     57 H19         6.5280    1.5560   -0.6020 hx        1 MZ4      0.124700
     58 H321        5.0490    3.9990   -1.8430 hc        1 MZ4      0.080700
     59 H322        5.0190    3.3960   -0.1300 hc        1 MZ4      0.080700
     60 H33         7.1490    3.4420    1.2410 ha        1 MZ4      0.135000
     61 H34         9.0570    4.9240    1.8450 ha        1 MZ4      0.160500
     62 H35         9.8030    6.7110    0.2660 ha        1 MZ4      0.164000
     63 H36         8.6350    7.0100   -1.9220 ha        1 MZ4      0.160500
     64 H37         6.7210    5.5400   -2.5260 ha        1 MZ4      0.135000
     65 HN20        6.7090    2.3020   -3.4550 hn        1 MZ4      0.472800
     66 H23         8.8330    2.9390   -4.4360 ha        1 MZ4      0.129000
     67 H24        11.0010    3.0440   -5.5860 ha        1 MZ4      0.170000
     68 H27        10.0710   -0.7400   -2.4210 ha        1 MZ4      0.188000
     69 HO29       13.2060   -0.6810   -4.0270 ho        1 MZ4      0.463000
     70 HO28       13.0690    1.9780   -5.8600 ho        1 MZ4      0.461000
     71 H111        3.0370   -0.4900   -1.8000 hn        1 MZ4      0.391800
     72 H204        7.7530    3.0050   -2.3490 hn        1 MZ4      0.472800
@<TRIPOS>BOND
     1    1    2 1   
     2    2    3 1   
     3    2    4 1   
     4    4    5 ar  
     5    4   11 ar  
     6    5    6 ar  
     7    5   41 1   
     8    6    7 ar  
     9    6   42 1   
    10    7    8 ar  
    11    7   43 1   
    12    8    9 1   
    13    8   11 ar  
    14    9   10 1   
    15   10   44 1   
    16   10   45 1   
    17   10   46 1   
    18   11   47 1   
    19   12   13 1   
    20   12   19 1   
    21   12   71 1   
    22   13   14 1   
    23   13   48 1   
    24   13   49 1   
    25   14   15 1   
    26   14   18 2   
    27   15   16 1   
    28   16   17 2   
    29   16   50 1   
    30   17   18 1   
    31   17   51 1   
    32   18   52 1   
    33   19   20 1   
    34   19   53 1   
    35   19   54 1   
    36   20   21 1   
    37   20   22 1   
    38   20   55 1   
    39   21   56 1   
    40   22   23 1   
    41   22   30 1   
    42   22   57 1   
    43   23   24 1   
    44   23   58 1   
    45   23   59 1   
    46   24   25 ar  
    47   24   29 ar  
    48   25   26 ar  
    49   25   60 1   
    50   26   27 ar  
    51   26   61 1   
    52   27   28 ar  
    53   27   62 1   
    54   28   29 ar  
    55   28   63 1   
    56   29   64 1   
    57   30   31 1   
    58   30   65 1   
    59   30   72 1   
    60   31   32 2   
    61   31   33 1   
    62   33   34 ar  
    63   33   36 ar  
    64   34   35 ar  
    65   34   66 1   
    66   35   39 ar  
    67   35   67 1   
    68   36   37 ar  
    69   36   68 1   
    70   37   38 1   
    71   37   39 ar  
    72   38   69 1   
    73   39   40 1   
    74   40   70 1   
@<TRIPOS>SUBSTRUCTURE
     1 MZ4         1 TEMP              0 ****  ****    0 ROOT
