@<TRIPOS>MOLECULE
MZ5
   74    76     1     0     0
SMALL
bcc


@<TRIPOS>ATOM
      1 O22         1.8330   -0.6660   -1.8440 o         1 MZ5     -0.631100
      2 C21         2.8170   -0.2730   -1.1810 c         1 MZ5      0.630100
      3 C22         4.0450    0.3040   -1.9020 c3        1 MZ5      0.087100
      4 C24         3.9870    1.8380   -1.8830 c3        1 MZ5     -0.092700
      5 C26         5.2950    2.3980   -2.3980 c3        1 MZ5     -0.098100
      6 C25         2.8230    2.3660   -2.6940 c3        1 MZ5     -0.098100
      7 O23         4.1050   -0.2210   -3.2090 oh        1 MZ5     -0.579800
      8 N20         2.8160   -0.2870    0.1980 n         1 MZ5     -0.554900
      9 C19         1.7470   -0.9030    0.9470 c3        1 MZ5      0.072700
     10 C32         2.2520   -1.6690    2.1830 c3        1 MZ5     -0.052100
     11 C38         3.1860   -2.7700    1.8300 ca        1 MZ5     -0.089300
     12 C37         4.5440   -2.6790    2.1560 ca        1 MZ5     -0.127000
     13 C36         5.4150   -3.7190    1.8360 ca        1 MZ5     -0.125000
     14 C35         4.9390   -4.8570    1.1860 ca        1 MZ5     -0.126000
     15 C34         3.5860   -4.9540    0.8590 ca        1 MZ5     -0.125000
     16 C33         2.7120   -3.9170    1.1810 ca        1 MZ5     -0.127000
     17 C17         0.6540    0.0980    1.4410 c3        1 MZ5      0.119100
     18 O18        -0.4920   -0.6520    1.7960 oh        1 MZ5     -0.590800
     19 C16         0.3800    1.1930    0.3920 c3        1 MZ5      0.187800
     20 N11        -0.8930    1.8540    0.4590 n3        1 MZ5     -0.804500
     21 C12        -1.3360    2.3300    1.7420 c3        1 MZ5      0.213800
     22 C13        -0.4880    3.4560    2.3640 c3        1 MZ5     -0.080700
     23 C14        -0.4410    4.6700    1.4620 c3        1 MZ5     -0.099100
     24 C15        -1.0800    3.8040    3.7240 c3        1 MZ5     -0.078400
     25 C18        -0.0950    4.5210    4.6100 c3        1 MZ5     -0.092100
     26 S8         -1.7160    2.1510   -0.9210 sy        1 MZ5      1.503200
     27 O10        -2.7770    3.0510   -0.6690 o         1 MZ5     -0.651300
     28 O9         -0.8110    2.5100   -1.9430 o         1 MZ5     -0.651300
     29 C5         -2.3810    0.6410   -1.3050 ca        1 MZ5     -0.373500
     30 C4         -3.6900    0.3420   -0.9380 ca        1 MZ5      0.037000
     31 C3         -4.2520   -0.8830   -1.2860 ca        1 MZ5     -0.130100
     32 S1         -5.7950   -1.5140   -0.9830 ss        1 MZ5     -0.005100
     33 C1         -5.3810   -2.9650   -1.8100 cc        1 MZ5      0.363100
     34 N1         -4.1650   -3.0360   -2.3120 nd        1 MZ5     -0.525100
     35 C2         -3.4790   -1.8430   -2.0290 ca        1 MZ5      0.131400
     36 C7         -2.1590   -1.5290   -2.4050 ca        1 MZ5     -0.099000
     37 C6         -1.6330   -0.3020   -2.0420 ca        1 MZ5     -0.037000
     38 H22         4.9990   -0.0530   -1.4180 h1        1 MZ5      0.086700
     39 H24         3.8520    2.1590   -0.8110 hc        1 MZ5      0.047700
     40 H261        5.5080    1.9960   -3.4190 hc        1 MZ5      0.045533
     41 H262        5.2420    3.5120   -2.4540 hc        1 MZ5      0.045533
     42 H263        6.1380    2.1140   -1.7230 hc        1 MZ5      0.045533
     43 H251        2.9650    2.1350   -3.7780 hc        1 MZ5      0.045533
     44 H252        1.8590    1.9090   -2.3550 hc        1 MZ5      0.045533
     45 H253        2.7470    3.4740   -2.5800 hc        1 MZ5      0.045533
     46 HO23        3.2350   -0.0930   -3.6180 ho        1 MZ5      0.426000
     47 HN20        3.6580   -0.0910    0.6840 hn        1 MZ5      0.315500
     48 H19         1.2260   -1.6430    0.2620 h1        1 MZ5      0.082700
     49 H321        2.7430   -0.9560    2.8980 hc        1 MZ5      0.066700
     50 H322        1.3440   -2.0890    2.6980 hc        1 MZ5      0.066700
     51 H37         4.9250   -1.7870    2.6750 ha        1 MZ5      0.130500
     52 H36         6.4810   -3.6410    2.0980 ha        1 MZ5      0.133500
     53 H35         5.6270   -5.6760    0.9310 ha        1 MZ5      0.134000
     54 H34         3.2060   -5.8500    0.3470 ha        1 MZ5      0.133500
     55 H33         1.6450   -3.9960    0.9230 ha        1 MZ5      0.130500
     56 H17         0.9760    0.5770    2.4090 h1        1 MZ5      0.076700
     57 HO18       -0.9140   -0.9470    0.9790 ho        1 MZ5      0.409000
     58 H161        1.2010    1.9620    0.4990 h1        1 MZ5      0.063700
     59 H162        0.4680    0.7350   -0.6400 h1        1 MZ5      0.063700
     60 H121       -2.3950    2.7100    1.6320 h1        1 MZ5      0.065200
     61 H122       -1.3490    1.4600    2.4630 h1        1 MZ5      0.065200
     62 H13         0.5600    3.0730    2.5150 hc        1 MZ5      0.044700
     63 H141       -1.4710    4.9600    1.1380 hc        1 MZ5      0.041700
     64 H142        0.0190    5.5350    1.9960 hc        1 MZ5      0.041700
     65 H143        0.1700    4.4590    0.5510 hc        1 MZ5      0.041700
     66 H151       -1.9920    4.4410    3.5770 hc        1 MZ5      0.043200
     67 H152       -1.4130    2.8620    4.2380 hc        1 MZ5      0.043200
     68 H181        0.2340    5.4830    4.1480 hc        1 MZ5      0.033700
     69 H182       -0.5630    4.7490    5.5980 hc        1 MZ5      0.033700
     70 H183        0.8100    3.8910    4.7870 hc        1 MZ5      0.033700
     71 H4         -4.2870    1.0890   -0.3830 ha        1 MZ5      0.163000
     72 H1         -6.0930   -3.7920   -1.9170 h5        1 MZ5      0.066800
     73 H7         -1.5610   -2.2520   -2.9820 ha        1 MZ5      0.165000
     74 H6         -0.5990   -0.0490   -2.3490 ha        1 MZ5      0.174000
@<TRIPOS>BOND
     1    1    2 2   
     2    2    3 1   
     3    2    8 1   
     4    3    4 1   
     5    3    7 1   
     6    3   38 1   
     7    4    5 1   
     8    4    6 1   
     9    4   39 1   
    10    5   40 1   
    11    5   41 1   
    12    5   42 1   
    13    6   43 1   
    14    6   44 1   
    15    6   45 1   
    16    7   46 1   
    17    8    9 1   
    18    8   47 1   
    19    9   10 1   
    20    9   17 1   
    21    9   48 1   
    22   10   11 1   
    23   10   49 1   
    24   10   50 1   
    25   11   12 ar  
    26   11   16 ar  
    27   12   13 ar  
    28   12   51 1   
    29   13   14 ar  
    30   13   52 1   
    31   14   15 ar  
    32   14   53 1   
    33   15   16 ar  
    34   15   54 1   
    35   16   55 1   
    36   17   18 1   
    37   17   19 1   
    38   17   56 1   
    39   18   57 1   
    40   19   20 1   
    41   19   58 1   
    42   19   59 1   
    43   20   21 1   
    44   20   26 1   
    45   21   22 1   
    46   21   60 1   
    47   21   61 1   
    48   22   23 1   
    49   22   24 1   
    50   22   62 1   
    51   23   63 1   
    52   23   64 1   
    53   23   65 1   
    54   24   25 1   
    55   24   66 1   
    56   24   67 1   
    57   25   68 1   
    58   25   69 1   
    59   25   70 1   
    60   26   27 2   
    61   26   28 2   
    62   26   29 1   
    63   29   30 ar  
    64   29   37 ar  
    65   30   31 ar  
    66   30   71 1   
    67   31   32 1   
    68   31   35 ar  
    69   32   33 1   
    70   33   34 2   
    71   33   72 1   
    72   34   35 1   
    73   35   36 ar  
    74   36   37 ar  
    75   36   73 1   
    76   37   74 1   
@<TRIPOS>SUBSTRUCTURE
     1 MZ5         1 TEMP              0 ****  ****    0 ROOT
