@<TRIPOS>MOLECULE
MZ5
   76    77     1     0     0
SMALL
bcc


@<TRIPOS>ATOM
      1 O22        -0.3740   -0.9200    0.1180 o         1 MZ5     -0.418100
      2 C21         0.7050   -0.4770    0.4760 c         1 MZ5      0.493100
      3 C22         1.1810   -0.3900    1.9390 c3        1 MZ5      0.105100
      4 C24         2.6930   -0.5950    2.1240 c3        1 MZ5     -0.066700
      5 C26         3.0390   -0.3480    3.5820 c3        1 MZ5     -0.102600
      6 C25         3.1260   -1.9850    1.7130 c3        1 MZ5     -0.102600
      7 O23         0.5160   -1.4160    2.6270 oh        1 MZ5     -0.538800
      8 N20         1.6390    0.0440   -0.5910 ny        1 MZ5     -0.678800
      9 C19         1.0970    0.0560   -1.9920 c3        1 MZ5      0.078500
     10 C32         1.6050    1.2870   -2.7650 c3        1 MZ5     -0.054100
     11 C38         1.4530    2.5490   -1.9940 ca        1 MZ5     -0.174300
     12 C37         2.5690    3.1420   -1.3870 ca        1 MZ5     -0.133500
     13 C36         2.4360    4.3520   -0.7090 ca        1 MZ5     -0.112500
     14 C35         1.1900    4.9790   -0.6320 ca        1 MZ5     -0.090000
     15 C34         0.0770    4.3920   -1.2380 ca        1 MZ5     -0.112500
     16 C33         0.2070    3.1820   -1.9180 ca        1 MZ5     -0.133500
     17 C17         1.4500   -1.2400   -2.7830 c3        1 MZ5      0.138100
     18 O18         1.0040   -1.0850   -4.1150 oh        1 MZ5     -0.588800
     19 C16         0.7100   -2.4490   -2.1750 c3        1 MZ5      0.126800
     20 N11         0.6680   -3.6650   -2.9820 n7        1 MZ5     -0.891200
     21 C12         1.9250   -4.0390   -3.6200 c3        1 MZ5      0.124800
     22 C13         3.0880   -4.4050   -2.6850 c3        1 MZ5     -0.084700
     23 C14         2.7080   -5.5390   -1.7570 c3        1 MZ5     -0.108100
     24 C15         4.2990   -4.7720   -3.5350 c3        1 MZ5     -0.078400
     25 C18         5.5900   -4.6630   -2.7650 c3        1 MZ5     -0.097100
     26 S8         -1.3570   -3.6830   -4.4330 s4        1 MZ5      1.685300
     27 O10        -1.6910   -4.8570   -3.8340 o         1 MZ5     -0.434900
     28 O9         -1.7420   -2.4870   -3.9220 o         1 MZ5     -0.434900
     29 C5         -0.8100   -3.7540   -5.8780 ca        1 MZ5     -0.629500
     30 C4         -0.7130   -4.9760   -6.5870 ca        1 MZ5      0.130000
     31 C3         -0.3020   -5.0060   -7.9030 ca        1 MZ5     -0.201100
     32 S1         -0.1290   -6.2960   -8.9850 ss        1 MZ5      0.175900
     33 C1          0.3780   -5.2330  -10.2090 cc        1 MZ5      0.394100
     34 N1          0.4420   -3.9370   -9.8990 nd        1 MZ5     -0.514100
     35 C2          0.0530   -3.7680   -8.5810 ca        1 MZ5      0.214400
     36 C7         -0.0250   -2.5420   -7.8710 ca        1 MZ5     -0.091000
     37 C6         -0.4400   -2.5500   -6.5670 ca        1 MZ5     -0.016000
     38 H22         0.8800    0.6360    2.3030 h1        1 MZ5      0.103700
     39 H24         3.2330    0.1770    1.5070 hc        1 MZ5      0.034700
     40 H261        4.1330   -0.5060    3.7420 hc        1 MZ5      0.060700
     41 H262        2.7830    0.6980    3.8760 hc        1 MZ5      0.060700
     42 H263        2.4760   -1.0560    4.2390 hc        1 MZ5      0.060700
     43 H251        2.8650   -2.1970    0.6470 hc        1 MZ5      0.060700
     44 H252        2.6200   -2.7500    2.3550 hc        1 MZ5      0.060700
     45 H253        4.2310   -2.0950    1.8400 hc        1 MZ5      0.060700
     46 HO23       -0.3830   -1.1180    2.8360 ho        1 MZ5      0.445000
     47 HN20        1.8860    1.0180   -0.3340 hn        1 MZ5      0.469300
     48 H19        -0.0330    0.1300   -1.9170 hx        1 MZ5      0.141700
     49 H321        0.9930    1.3550   -3.7080 hc        1 MZ5      0.086200
     50 H322        2.6770    1.1330   -3.0610 hc        1 MZ5      0.086200
     51 H37         3.5640    2.6810   -1.4850 ha        1 MZ5      0.138000
     52 H36         3.3190    4.8260   -0.2500 ha        1 MZ5      0.163000
     53 H35         1.0890    5.9440   -0.1080 ha        1 MZ5      0.167000
     54 H34        -0.9030    4.8940   -1.1930 ha        1 MZ5      0.163000
     55 H33        -0.6690    2.7370   -2.4150 ha        1 MZ5      0.138000
     56 H17         2.5640   -1.4120   -2.7620 h1        1 MZ5      0.059700
     57 HO18        1.6500   -0.5350   -4.5810 ho        1 MZ5      0.434000
     58 H161        1.1950   -2.6530   -1.1750 h1        1 MZ5      0.075200
     59 H162       -0.3660   -2.1490   -1.9900 h1        1 MZ5      0.075200
     60 H121        2.2430   -3.1910   -4.2910 h1        1 MZ5      0.069200
     61 H122        1.7070   -4.9350   -4.2710 h1        1 MZ5      0.069200
     62 H13         3.3470   -3.5010   -2.0640 hc        1 MZ5      0.029700
     63 H141        1.9710   -5.2010   -0.9880 hc        1 MZ5      0.050700
     64 H142        2.2650   -6.3900   -2.3290 hc        1 MZ5      0.050700
     65 H143        3.6130   -5.9170   -1.2210 hc        1 MZ5      0.050700
     66 H151        4.3480   -4.0950   -4.4290 hc        1 MZ5      0.050200
     67 H152        4.1760   -5.8200   -3.9180 hc        1 MZ5      0.050200
     68 H181        6.4500   -4.9360   -3.4260 hc        1 MZ5      0.046033
     69 H182        5.7490   -3.6210   -2.3970 hc        1 MZ5      0.046033
     70 H183        5.5950   -5.3530   -1.8870 hc        1 MZ5      0.046033
     71 H4         -0.9900   -5.9180   -6.0710 ha        1 MZ5      0.176000
     72 H1          0.6460   -5.5710  -11.2250 h5        1 MZ5      0.106800
     73 H7          0.2420   -1.6020   -8.3860 ha        1 MZ5      0.193000
     74 H6         -0.4990   -1.5980   -6.0030 ha        1 MZ5      0.169000
     75 H202        2.4990   -0.5180   -0.5560 hn        1 MZ5      0.469300
     76 H111        0.3880   -4.4220   -2.3650 hn        1 MZ5      0.405800
@<TRIPOS>BOND
     1    1    2 2   
     2    2    3 1   
     3    2    8 1   
     4    3    4 1   
     5    3    7 1   
     6    3   38 1   
     7    4    5 1   
     8    4    6 1   
     9    4   39 1   
    10    5   40 1   
    11    5   41 1   
    12    5   42 1   
    13    6   43 1   
    14    6   44 1   
    15    6   45 1   
    16    7   46 1   
    17    8    9 1   
    18    8   47 1   
    19    8   75 1   
    20    9   10 1   
    21    9   17 1   
    22    9   48 1   
    23   10   11 1   
    24   10   49 1   
    25   10   50 1   
    26   11   12 ar  
    27   11   16 ar  
    28   12   13 ar  
    29   12   51 1   
    30   13   14 ar  
    31   13   52 1   
    32   14   15 ar  
    33   14   53 1   
    34   15   16 ar  
    35   15   54 1   
    36   16   55 1   
    37   17   18 1   
    38   17   19 1   
    39   17   56 1   
    40   18   57 1   
    41   19   20 1   
    42   19   58 1   
    43   19   59 1   
    44   20   21 1   
    45   20   76 1   
    46   21   22 1   
    47   21   60 1   
    48   21   61 1   
    49   22   23 1   
    50   22   24 1   
    51   22   62 1   
    52   23   63 1   
    53   23   64 1   
    54   23   65 1   
    55   24   25 1   
    56   24   66 1   
    57   24   67 1   
    58   25   68 1   
    59   25   69 1   
    60   25   70 1   
    61   26   27 1   
    62   26   28 1   
    63   26   29 1   
    64   29   30 ar  
    65   29   37 ar  
    66   30   31 ar  
    67   30   71 1   
    68   31   32 1   
    69   31   35 ar  
    70   32   33 1   
    71   33   34 2   
    72   33   72 1   
    73   34   35 1   
    74   35   36 ar  
    75   36   37 ar  
    76   36   73 1   
    77   37   74 1   
@<TRIPOS>SUBSTRUCTURE
     1 MZ5         1 TEMP              0 ****  ****    0 ROOT
