@<TRIPOS>MOLECULE
MZ5
   76    77     1     0     0
SMALL
bcc


@<TRIPOS>ATOM
      1 O22        -0.0720   -0.9880   -0.6230 o         1 MZ5     -0.419100
      2 C21         0.9390   -0.5730   -0.0790 c         1 MZ5      0.494100
      3 C22         1.2050   -0.6210    1.4390 c3        1 MZ5      0.104100
      4 C24         2.6850   -0.7450    1.8290 c3        1 MZ5     -0.066700
      5 C26         2.7980   -0.5940    3.3370 c3        1 MZ5     -0.103600
      6 C25         3.2780   -2.0660    1.3920 c3        1 MZ5     -0.103600
      7 O23         0.5330   -1.7560    1.9170 oh        1 MZ5     -0.539800
      8 N20         1.9990    0.0520   -0.9540 n4        1 MZ5     -0.679800
      9 C19         1.6170    0.2860   -2.3900 c3        1 MZ5      0.085500
     10 C32         2.1690    1.6350   -2.8870 c3        1 MZ5     -0.055100
     11 C38         1.8630    2.7540   -1.9570 ca        1 MZ5     -0.171300
     12 C37         2.8640    3.2670   -1.1200 ca        1 MZ5     -0.134000
     13 C36         2.5920    4.3510   -0.2860 ca        1 MZ5     -0.112000
     14 C35         1.3210    4.9300   -0.2830 ca        1 MZ5     -0.092000
     15 C34         0.3230    4.4240   -1.1180 ca        1 MZ5     -0.112000
     16 C33         0.5920    3.3410   -1.9540 ca        1 MZ5     -0.134000
     17 C17         2.0950   -0.8600   -3.3250 c3        1 MZ5      0.111100
     18 O18         2.0040   -0.4390   -4.6710 oh        1 MZ5     -0.582800
     19 C16         1.1530   -2.0820   -3.2220 c3        1 MZ5      0.128800
     20 N11         1.4870   -3.1970   -4.0990 n3        1 MZ5     -0.897200
     21 C12         2.7360   -3.9000   -3.7860 c3        1 MZ5      0.114800
     22 C13         3.0430   -4.1680   -2.3060 c3        1 MZ5     -0.060700
     23 C14         2.0100   -5.0740   -1.6750 c3        1 MZ5     -0.110100
     24 C15         4.4370   -4.7840   -2.2160 c3        1 MZ5     -0.082400
     25 C18         4.9460   -4.8390   -0.7990 c3        1 MZ5     -0.097100
     26 S8         -0.4030   -4.7200   -4.2780 s4        1 MZ5      1.681300
     27 O10         0.3370   -5.8340   -4.0390 o         1 MZ5     -0.435400
     28 O9         -1.0670   -4.0480   -3.3010 o         1 MZ5     -0.435400
     29 C5         -0.7320   -4.3910   -5.7560 ca        1 MZ5     -0.636500
     30 C4         -0.2660   -5.1890   -6.8280 ca        1 MZ5      0.130000
     31 C3         -0.6240   -4.9140   -8.1310 ca        1 MZ5     -0.201100
     32 S1         -0.2410   -5.7010   -9.5800 ss        1 MZ5      0.174900
     33 C1         -1.1660   -4.5820  -10.4610 cc        1 MZ5      0.394100
     34 N1         -1.7760   -3.6190   -9.7680 nd        1 MZ5     -0.512100
     35 C2         -1.4900   -3.7810   -8.4230 ca        1 MZ5      0.212400
     36 C7         -1.9590   -2.9740   -7.3540 ca        1 MZ5     -0.082000
     37 C6         -1.5860   -3.2810   -6.0730 ca        1 MZ5     -0.026000
     38 H22         0.7740    0.3380    1.8520 h1        1 MZ5      0.103700
     39 H24         3.2510    0.1070    1.3570 hc        1 MZ5      0.034700
     40 H261        3.8660   -0.6980    3.6470 hc        1 MZ5      0.060867
     41 H262        2.1980   -1.3860    3.8500 hc        1 MZ5      0.060867
     42 H263        2.4280    0.4070    3.6620 hc        1 MZ5      0.060867
     43 H251        4.3580   -2.1160    1.6790 hc        1 MZ5      0.060867
     44 H252        3.1970   -2.2080    0.2870 hc        1 MZ5      0.060867
     45 H253        2.7410   -2.9110    1.8930 hc        1 MZ5      0.060867
     46 HO23       -0.4080   -1.5410    2.0130 ho        1 MZ5      0.445000
     47 HN20        2.8330   -0.5470   -0.9060 hn        1 MZ5      0.469300
     48 H19         0.4850    0.3360   -2.4300 hx        1 MZ5      0.132700
     49 H321        1.6850    1.8370   -3.8840 hc        1 MZ5      0.089700
     50 H322        3.2760    1.5540   -3.0530 hc        1 MZ5      0.089700
     51 H37         3.8830    2.8510   -1.1530 ha        1 MZ5      0.137000
     52 H36         3.3870    4.7640    0.3550 ha        1 MZ5      0.162000
     53 H35         1.1120    5.7970    0.3650 ha        1 MZ5      0.167000
     54 H34        -0.6750    4.8930   -1.1300 ha        1 MZ5      0.162000
     55 H33        -0.1910    2.9640   -2.6300 ha        1 MZ5      0.137000
     56 H17         3.1540   -1.1530   -3.0770 h1        1 MZ5      0.057700
     57 HO18        2.7670    0.1230   -4.8680 ho        1 MZ5      0.438000
     58 H161        0.1100   -1.7420   -3.4950 h1        1 MZ5      0.090200
     59 H162        1.1250   -2.4380   -2.1550 h1        1 MZ5      0.090200
     60 H121        3.6100   -3.3330   -4.2230 h1        1 MZ5      0.072200
     61 H122        2.6760   -4.8980   -4.3140 h1        1 MZ5      0.072200
     62 H13         3.0640   -3.1870   -1.7520 hc        1 MZ5      0.014700
     63 H141        0.9920   -4.6130   -1.7140 hc        1 MZ5      0.052367
     64 H142        2.2660   -5.2640   -0.6040 hc        1 MZ5      0.052367
     65 H143        1.9700   -6.0580   -2.2060 hc        1 MZ5      0.052367
     66 H151        4.4130   -5.8200   -2.6470 hc        1 MZ5      0.056200
     67 H152        5.1490   -4.1800   -2.8400 hc        1 MZ5      0.056200
     68 H181        6.0230   -5.1390   -0.7940 hc        1 MZ5      0.045033
     69 H182        4.8550   -3.8430   -0.3000 hc        1 MZ5      0.045033
     70 H183        4.3760   -5.5870   -0.1960 hc        1 MZ5      0.045033
     71 H4          0.3870   -6.0580   -6.6050 ha        1 MZ5      0.174000
     72 H1         -1.2780   -4.6270  -11.5580 h5        1 MZ5      0.106800
     73 H7         -2.6250   -2.1200   -7.5720 ha        1 MZ5      0.197000
     74 H6         -1.9660   -2.6660   -5.2350 ha        1 MZ5      0.165000
     75 H202        2.2410    0.9680   -0.5320 hn        1 MZ5      0.469300
     76 H111        1.5710   -2.8320   -5.0410 hn        1 MZ5      0.402800
@<TRIPOS>BOND
     1    1    2 2   
     2    2    3 1   
     3    2    8 1   
     4    3    4 1   
     5    3    7 1   
     6    3   38 1   
     7    4    5 1   
     8    4    6 1   
     9    4   39 1   
    10    5   40 1   
    11    5   41 1   
    12    5   42 1   
    13    6   43 1   
    14    6   44 1   
    15    6   45 1   
    16    7   46 1   
    17    8    9 1   
    18    8   47 1   
    19    8   75 1   
    20    9   10 1   
    21    9   17 1   
    22    9   48 1   
    23   10   11 1   
    24   10   49 1   
    25   10   50 1   
    26   11   12 ar  
    27   11   16 ar  
    28   12   13 ar  
    29   12   51 1   
    30   13   14 ar  
    31   13   52 1   
    32   14   15 ar  
    33   14   53 1   
    34   15   16 ar  
    35   15   54 1   
    36   16   55 1   
    37   17   18 1   
    38   17   19 1   
    39   17   56 1   
    40   18   57 1   
    41   19   20 1   
    42   19   58 1   
    43   19   59 1   
    44   20   21 1   
    45   20   76 1   
    46   21   22 1   
    47   21   60 1   
    48   21   61 1   
    49   22   23 1   
    50   22   24 1   
    51   22   62 1   
    52   23   63 1   
    53   23   64 1   
    54   23   65 1   
    55   24   25 1   
    56   24   66 1   
    57   24   67 1   
    58   25   68 1   
    59   25   69 1   
    60   25   70 1   
    61   26   27 1   
    62   26   28 1   
    63   26   29 1   
    64   29   30 ar  
    65   29   37 ar  
    66   30   31 ar  
    67   30   71 1   
    68   31   32 1   
    69   31   35 ar  
    70   32   33 1   
    71   33   34 2   
    72   33   72 1   
    73   34   35 1   
    74   35   36 ar  
    75   36   37 ar  
    76   36   73 1   
    77   37   74 1   
@<TRIPOS>SUBSTRUCTURE
     1 MZ5         1 TEMP              0 ****  ****    0 ROOT
