@<TRIPOS>MOLECULE
MZ5
   76    77     1     0     0
SMALL
bcc


@<TRIPOS>ATOM
      1 O22        -0.0730   -0.9770   -0.6300 o         1 MZ5     -0.419100
      2 C21         0.9390   -0.5600   -0.0910 c         1 MZ5      0.494100
      3 C22         1.2090   -0.6010    1.4260 c3        1 MZ5      0.104100
      4 C24         2.6910   -0.7210    1.8130 c3        1 MZ5     -0.066700
      5 C26         2.8070   -0.5640    3.3190 c3        1 MZ5     -0.103600
      6 C25         3.2840   -2.0440    1.3810 c3        1 MZ5     -0.103600
      7 O23         0.5390   -1.7340    1.9110 oh        1 MZ5     -0.539800
      8 N20         1.9970    0.0600   -0.9720 n4        1 MZ5     -0.679800
      9 C19         1.6130    0.2830   -2.4100 c3        1 MZ5      0.085500
     10 C32         2.1660    1.6280   -2.9180 c3        1 MZ5     -0.055100
     11 C38         1.8600    2.7540   -1.9970 ca        1 MZ5     -0.171300
     12 C37         2.8610    3.2740   -1.1640 ca        1 MZ5     -0.134000
     13 C36         2.5890    4.3650   -0.3400 ca        1 MZ5     -0.112000
     14 C35         1.3180    4.9440   -0.3420 ca        1 MZ5     -0.092000
     15 C34         0.3200    4.4310   -1.1720 ca        1 MZ5     -0.112000
     16 C33         0.5890    3.3410   -1.9990 ca        1 MZ5     -0.134000
     17 C17         2.0870   -0.8720   -3.3360 c3        1 MZ5      0.111100
     18 O18         2.0070   -0.4570   -4.6850 oh        1 MZ5     -0.582800
     19 C16         1.1360   -2.0860   -3.2320 c3        1 MZ5      0.128800
     20 N11         1.4650   -3.2080   -4.1010 n3        1 MZ5     -0.897200
     21 C12         2.7050   -3.9210   -3.7780 c3        1 MZ5      0.114800
     22 C13         3.0010   -4.1860   -2.2950 c3        1 MZ5     -0.060700
     23 C14         1.9540   -5.0770   -1.6650 c3        1 MZ5     -0.110100
     24 C15         4.3870   -4.8170   -2.1940 c3        1 MZ5     -0.082400
     25 C18         4.8880   -4.8700   -0.7730 c3        1 MZ5     -0.097100
     26 S8         -0.4380   -4.7130   -4.2870 s4        1 MZ5      1.681300
     27 O10         0.2870   -5.8330   -4.0340 o         1 MZ5     -0.435400
     28 O9         -1.1050   -4.0270   -3.3220 o         1 MZ5     -0.435400
     29 C5         -0.7500   -4.3910   -5.7710 ca        1 MZ5     -0.636500
     30 C4         -0.2820   -5.2020   -6.8330 ca        1 MZ5      0.130000
     31 C3         -0.6250   -4.9330   -8.1410 ca        1 MZ5     -0.201100
     32 S1         -0.2360   -5.7340   -9.5800 ss        1 MZ5      0.174900
     33 C1         -1.1410   -4.6110  -10.4790 cc        1 MZ5      0.394100
     34 N1         -1.7460   -3.6370   -9.7980 nd        1 MZ5     -0.512100
     35 C2         -1.4750   -3.7930   -8.4490 ca        1 MZ5      0.212400
     36 C7         -1.9460   -2.9730   -7.3900 ca        1 MZ5     -0.082000
     37 C6         -1.5890   -3.2750   -6.1040 ca        1 MZ5     -0.026000
     38 H22         0.7790    0.3610    1.8360 h1        1 MZ5      0.103700
     39 H24         3.2540    0.1280    1.3350 hc        1 MZ5      0.034700
     40 H261        3.8770   -0.6650    3.6280 hc        1 MZ5      0.060867
     41 H262        2.2090   -1.3530    3.8380 hc        1 MZ5      0.060867
     42 H263        2.4380    0.4400    3.6410 hc        1 MZ5      0.060867
     43 H251        2.7490   -2.8870    1.8880 hc        1 MZ5      0.060867
     44 H252        4.3640   -2.0920    1.6640 hc        1 MZ5      0.060867
     45 H253        3.1990   -2.1920    0.2770 hc        1 MZ5      0.060867
     46 HO23       -0.4020   -1.5180    2.0100 ho        1 MZ5      0.445000
     47 HN20        2.2390    0.9790   -0.5580 hn        1 MZ5      0.469300
     48 H19         0.4810    0.3340   -2.4480 hx        1 MZ5      0.132700
     49 H321        3.2730    1.5450   -3.0830 hc        1 MZ5      0.089700
     50 H322        1.6830    1.8210   -3.9170 hc        1 MZ5      0.089700
     51 H37         3.8800    2.8580   -1.1940 ha        1 MZ5      0.137000
     52 H36         3.3840    4.7840    0.2980 ha        1 MZ5      0.162000
     53 H35         1.1090    5.8160    0.3000 ha        1 MZ5      0.167000
     54 H34        -0.6780    4.8990   -1.1880 ha        1 MZ5      0.162000
     55 H33        -0.1940    2.9590   -2.6720 ha        1 MZ5      0.137000
     56 H17         3.1430   -1.1710   -3.0810 h1        1 MZ5      0.057700
     57 HO18        2.7750    0.0980   -4.8810 ho        1 MZ5      0.438000
     58 H161        1.1000   -2.4360   -2.1620 h1        1 MZ5      0.090200
     59 H162        0.0970   -1.7400   -3.5110 h1        1 MZ5      0.090200
     60 H121        2.6390   -4.9210   -4.3010 h1        1 MZ5      0.072200
     61 H122        3.5870   -3.3640   -4.2110 h1        1 MZ5      0.072200
     62 H13         3.0290   -3.2020   -1.7450 hc        1 MZ5      0.014700
     63 H141        2.2010   -5.2650   -0.5920 hc        1 MZ5      0.052367
     64 H142        1.9070   -6.0640   -2.1920 hc        1 MZ5      0.052367
     65 H143        0.9410   -4.6060   -1.7120 hc        1 MZ5      0.052367
     66 H151        4.3540   -5.8540   -2.6200 hc        1 MZ5      0.056200
     67 H152        5.1090   -4.2230   -2.8160 hc        1 MZ5      0.056200
     68 H181        5.9610   -5.1840   -0.7620 hc        1 MZ5      0.045367
     69 H182        4.3050   -5.6080   -0.1690 hc        1 MZ5      0.045367
     70 H183        4.8070   -3.8700   -0.2800 hc        1 MZ5      0.045367
     71 H4          0.3590   -6.0760   -6.5970 ha        1 MZ5      0.174000
     72 H1         -1.2430   -4.6630  -11.5760 h5        1 MZ5      0.106800
     73 H7         -2.6000   -2.1130   -7.6210 ha        1 MZ5      0.197000
     74 H6         -1.9700   -2.6490   -5.2740 ha        1 MZ5      0.165000
     75 H202        2.8320   -0.5370   -0.9210 hn        1 MZ5      0.469300
     76 H111        1.5590   -2.8470   -5.0440 hn        1 MZ5      0.402800
@<TRIPOS>BOND
     1    1    2 2   
     2    2    3 1   
     3    2    8 1   
     4    3    4 1   
     5    3    7 1   
     6    3   38 1   
     7    4    5 1   
     8    4    6 1   
     9    4   39 1   
    10    5   40 1   
    11    5   41 1   
    12    5   42 1   
    13    6   43 1   
    14    6   44 1   
    15    6   45 1   
    16    7   46 1   
    17    8    9 1   
    18    8   47 1   
    19    8   75 1   
    20    9   10 1   
    21    9   17 1   
    22    9   48 1   
    23   10   11 1   
    24   10   49 1   
    25   10   50 1   
    26   11   12 ar  
    27   11   16 ar  
    28   12   13 ar  
    29   12   51 1   
    30   13   14 ar  
    31   13   52 1   
    32   14   15 ar  
    33   14   53 1   
    34   15   16 ar  
    35   15   54 1   
    36   16   55 1   
    37   17   18 1   
    38   17   19 1   
    39   17   56 1   
    40   18   57 1   
    41   19   20 1   
    42   19   58 1   
    43   19   59 1   
    44   20   21 1   
    45   20   76 1   
    46   21   22 1   
    47   21   60 1   
    48   21   61 1   
    49   22   23 1   
    50   22   24 1   
    51   22   62 1   
    52   23   63 1   
    53   23   64 1   
    54   23   65 1   
    55   24   25 1   
    56   24   66 1   
    57   24   67 1   
    58   25   68 1   
    59   25   69 1   
    60   25   70 1   
    61   26   27 1   
    62   26   28 1   
    63   26   29 1   
    64   29   30 ar  
    65   29   37 ar  
    66   30   31 ar  
    67   30   71 1   
    68   31   32 1   
    69   31   35 ar  
    70   32   33 1   
    71   33   34 2   
    72   33   72 1   
    73   34   35 1   
    74   35   36 ar  
    75   36   37 ar  
    76   36   73 1   
    77   37   74 1   
@<TRIPOS>SUBSTRUCTURE
     1 MZ5         1 TEMP              0 ****  ****    0 ROOT
