@<TRIPOS>MOLECULE
MZ6
   74    76     1     0     0
SMALL
bcc


@<TRIPOS>ATOM
      1 O22         1.4520   -1.6980   -0.9940 o         1 MZ6     -0.448100
      2 C21         1.5660   -0.6650   -0.3460 c         1 MZ6      0.584700
      3 C22         1.7970   -0.5160    1.0910 ca        1 MZ6     -0.172600
      4 C27         1.4800   -1.6250    1.8870 ca        1 MZ6     -0.078000
      5 C26         1.6860   -1.5470    3.2780 ca        1 MZ6      0.146100
      6 O27         1.3450   -2.6630    3.9900 oh        1 MZ6     -0.467100
      7 C25         2.2090   -0.3820    3.8590 ca        1 MZ6     -0.139000
      8 C24         2.5290    0.7050    3.0450 ca        1 MZ6     -0.075000
      9 C23         2.3270    0.6500    1.6680 ca        1 MZ6     -0.140000
     10 N20         1.4310    0.6270   -1.1340 n4        1 MZ6     -0.679800
     11 C19         0.7350    0.4720   -2.4600 c3        1 MZ6      0.097500
     12 C32         0.0460    1.7830   -2.8690 c3        1 MZ6     -0.053100
     13 C38        -0.7940    2.3460   -1.7770 ca        1 MZ6     -0.171300
     14 C37        -0.3380    3.4410   -1.0310 ca        1 MZ6     -0.131000
     15 C36        -1.1460    3.9980   -0.0420 ca        1 MZ6     -0.111000
     16 C35        -2.4120    3.4660    0.2110 ca        1 MZ6     -0.090000
     17 C34        -2.8700    2.3760   -0.5320 ca        1 MZ6     -0.111000
     18 C33        -2.0660    1.8180   -1.5240 ca        1 MZ6     -0.131000
     19 C17         1.7410   -0.0280   -3.5340 c3        1 MZ6      0.117100
     20 O18         2.8650    0.8220   -3.6000 oh        1 MZ6     -0.616800
     21 C16         1.0210   -0.1940   -4.8820 c3        1 MZ6      0.105800
     22 N11         1.8120   -0.7950   -5.9580 n3        1 MZ6     -0.904200
     23 C12         2.5290   -2.0190   -5.6070 c3        1 MZ6      0.119800
     24 C13         1.6760   -3.2060   -5.1360 c3        1 MZ6     -0.087700
     25 C15         2.6000   -4.3890   -4.8720 c3        1 MZ6     -0.076400
     26 C18         1.9670   -5.4120   -3.9640 c3        1 MZ6     -0.099100
     27 C14         0.6170   -3.5570   -6.1580 c3        1 MZ6     -0.108100
     28 S8          3.1630    0.8570   -7.1180 s4        1 MZ6      1.691300
     29 O10         2.3930    0.7080   -8.2270 o         1 MZ6     -0.449900
     30 O9          2.8630    1.7780   -6.1590 o         1 MZ6     -0.449900
     31 C5          4.5630    0.2050   -7.1120 ca        1 MZ6     -0.636500
     32 C6          5.4070    0.3270   -5.9560 ca        1 MZ6     -0.022000
     33 C7          6.6810   -0.1700   -5.9150 ca        1 MZ6     -0.086000
     34 C2          7.2020   -0.8380   -7.0540 ca        1 MZ6      0.214400
     35 C3          6.3640   -0.9870   -8.2360 ca        1 MZ6     -0.204100
     36 C4          5.0820   -0.4780   -8.2390 ca        1 MZ6      0.134000
     37 N1          8.4650   -1.3870   -7.1840 nc        1 MZ6     -0.513100
     38 C1          8.5840   -1.9200   -8.4020 cd        1 MZ6      0.393100
     39 S1          7.2390   -1.8050   -9.4310 ss        1 MZ6      0.185900
     40 H27         1.0770   -2.5540    1.4490 ha        1 MZ6      0.186000
     41 HO27        1.5360   -2.5080    4.9300 ho        1 MZ6      0.450000
     42 H25         2.3700   -0.3260    4.9480 ha        1 MZ6      0.174000
     43 H24         2.9500    1.6180    3.4990 ha        1 MZ6      0.170000
     44 H23         2.6140    1.5200    1.0620 ha        1 MZ6      0.127000
     45 HN20        0.9040    1.3070   -0.5600 hn        1 MZ6      0.473300
     46 H19        -0.0570   -0.3260   -2.3230 hx        1 MZ6      0.124700
     47 H321       -0.6080    1.5540   -3.7550 hc        1 MZ6      0.082200
     48 H322        0.8150    2.5340   -3.1970 hc        1 MZ6      0.082200
     49 H37         0.6400    3.8950   -1.2530 ha        1 MZ6      0.134500
     50 H36        -0.7920    4.8700    0.5310 ha        1 MZ6      0.161000
     51 H35        -3.0550    3.9150    0.9860 ha        1 MZ6      0.165000
     52 H34        -3.8760    1.9650   -0.3440 ha        1 MZ6      0.161000
     53 H33        -2.4420    0.9740   -2.1220 ha        1 MZ6      0.134500
     54 H17         2.1610   -1.0230   -3.1900 h1        1 MZ6      0.118700
     55 HO18        2.6090    1.6490   -4.0410 ho        1 MZ6      0.443000
     56 H161        0.7110    0.8280   -5.2540 h1        1 MZ6      0.082700
     57 H162        0.0890   -0.8030   -4.6910 h1        1 MZ6      0.082700
     58 H121        3.0940   -2.3390   -6.5310 h1        1 MZ6      0.069200
     59 H122        3.2860   -1.7670   -4.8110 h1        1 MZ6      0.069200
     60 H13         1.1700   -2.9250   -4.1700 hc        1 MZ6      0.050700
     61 H151        2.8750   -4.8690   -5.8480 hc        1 MZ6      0.047200
     62 H152        3.5510   -4.0220   -4.4000 hc        1 MZ6      0.047200
     63 H181        2.6790   -6.2570   -3.7900 hc        1 MZ6      0.048367
     64 H182        1.7070   -4.9620   -2.9760 hc        1 MZ6      0.048367
     65 H183        1.0360   -5.8310   -4.4170 hc        1 MZ6      0.048367
     66 H141        0.1330   -4.5290   -5.8890 hc        1 MZ6      0.050033
     67 H142       -0.1830   -2.7780   -6.1960 hc        1 MZ6      0.050033
     68 H143        1.0640   -3.6640   -7.1760 hc        1 MZ6      0.050033
     69 H6          4.9920    0.8470   -5.0700 ha        1 MZ6      0.167000
     70 H7          7.3150   -0.0560   -5.0180 ha        1 MZ6      0.195000
     71 H4          4.4440   -0.5880   -9.1400 ha        1 MZ6      0.177000
     72 H1          9.5290   -2.4060   -8.6990 h5        1 MZ6      0.107800
     73 H202        2.3730    1.0030   -1.3050 hn        1 MZ6      0.473300
     74 H111        1.1580   -1.0200   -6.7030 hn        1 MZ6      0.408800
@<TRIPOS>BOND
     1    1    2 2   
     2    2    3 1   
     3    2   10 1   
     4    3    4 ar  
     5    3    9 ar  
     6    4    5 ar  
     7    4   40 1   
     8    5    6 1   
     9    5    7 ar  
    10    6   41 1   
    11    7    8 ar  
    12    7   42 1   
    13    8    9 ar  
    14    8   43 1   
    15    9   44 1   
    16   10   11 1   
    17   10   45 1   
    18   10   73 1   
    19   11   12 1   
    20   11   19 1   
    21   11   46 1   
    22   12   13 1   
    23   12   47 1   
    24   12   48 1   
    25   13   14 ar  
    26   13   18 ar  
    27   14   15 ar  
    28   14   49 1   
    29   15   16 ar  
    30   15   50 1   
    31   16   17 ar  
    32   16   51 1   
    33   17   18 ar  
    34   17   52 1   
    35   18   53 1   
    36   19   20 1   
    37   19   21 1   
    38   19   54 1   
    39   20   55 1   
    40   21   22 1   
    41   21   56 1   
    42   21   57 1   
    43   22   23 1   
    44   22   74 1   
    45   23   24 1   
    46   23   58 1   
    47   23   59 1   
    48   24   25 1   
    49   24   27 1   
    50   24   60 1   
    51   25   26 1   
    52   25   61 1   
    53   25   62 1   
    54   26   63 1   
    55   26   64 1   
    56   26   65 1   
    57   27   66 1   
    58   27   67 1   
    59   27   68 1   
    60   28   29 1   
    61   28   30 1   
    62   28   31 1   
    63   31   32 ar  
    64   31   36 ar  
    65   32   33 ar  
    66   32   69 1   
    67   33   34 ar  
    68   33   70 1   
    69   34   35 ar  
    70   34   37 1   
    71   35   36 ar  
    72   35   39 1   
    73   36   71 1   
    74   37   38 2   
    75   38   39 1   
    76   38   72 1   
@<TRIPOS>SUBSTRUCTURE
     1 MZ6         1 TEMP              0 ****  ****    0 ROOT
