@<TRIPOS>MOLECULE
MZ6
   72    75     1     0     0
SMALL
bcc


@<TRIPOS>ATOM
      1 O22         3.4320   -0.9680   -1.5710 o         1 MZ6     -0.613100
      2 C21         3.5310    0.1080   -0.9440 c         1 MZ6      0.674700
      3 C22         4.4480    1.1950   -1.4010 ca        1 MZ6     -0.099600
      4 C27         5.6850    0.8200   -1.9330 ca        1 MZ6     -0.164000
      5 C26         6.5630    1.8150   -2.3810 ca        1 MZ6      0.118100
      6 O27         7.8000    1.5270   -2.9100 oh        1 MZ6     -0.496100
      7 C25         6.2140    3.1740   -2.3070 ca        1 MZ6     -0.138000
      8 C24         4.9740    3.5230   -1.7830 ca        1 MZ6     -0.105000
      9 C23         4.0880    2.5430   -1.3290 ca        1 MZ6     -0.142000
     10 N20         2.8160    0.3320    0.2140 n         1 MZ6     -0.557900
     11 C19         1.9020   -0.6380    0.7630 c3        1 MZ6      0.084700
     12 C32         2.0700   -0.7900    2.2870 c3        1 MZ6     -0.054100
     13 C38         3.4050   -1.3260    2.6630 ca        1 MZ6     -0.079300
     14 C37         4.3090   -0.5330    3.3790 ca        1 MZ6     -0.123000
     15 C36         5.5530   -1.0450    3.7500 ca        1 MZ6     -0.126500
     16 C35         5.9020   -2.3510    3.4100 ca        1 MZ6     -0.129000
     17 C34         5.0050   -3.1460    2.6970 ca        1 MZ6     -0.126500
     18 C33         3.7610   -2.6380    2.3270 ca        1 MZ6     -0.123000
     19 C17         0.4240   -0.2780    0.4250 c3        1 MZ6      0.098100
     20 O18        -0.0470    0.7770    1.2380 oh        1 MZ6     -0.617800
     21 C16        -0.4520   -1.5450    0.5240 c3        1 MZ6      0.187800
     22 N11        -1.8320   -1.3590    0.1570 n3        1 MZ6     -0.804500
     23 C12        -2.1540   -1.5320   -1.2360 c3        1 MZ6      0.229800
     24 C13        -2.2160   -2.9890   -1.7340 c3        1 MZ6     -0.082700
     25 C15        -2.1180   -2.9810   -3.2550 c3        1 MZ6     -0.077400
     26 C18        -1.9600   -4.3670   -3.8260 c3        1 MZ6     -0.092100
     27 C14        -3.4870   -3.6640   -1.2690 c3        1 MZ6     -0.105100
     28 S8         -2.9220   -0.9290    1.2960 sy        1 MZ6      1.511200
     29 O10        -3.8700   -1.9520    1.5010 o         1 MZ6     -0.660300
     30 O9         -2.2140   -0.5150    2.4510 o         1 MZ6     -0.660300
     31 C5         -3.7250    0.3890    0.6110 ca        1 MZ6     -0.376500
     32 C6         -3.0850    1.6440    0.5370 ca        1 MZ6     -0.028000
     33 C7         -3.7210    2.7620    0.0310 ca        1 MZ6     -0.102000
     34 C2         -5.0490    2.6420   -0.4240 ca        1 MZ6      0.137400
     35 C3         -5.7120    1.3670   -0.3490 ca        1 MZ6     -0.132100
     36 C4         -5.0390    0.2630    0.1670 ca        1 MZ6      0.037000
     37 N1         -5.8410    3.6690   -0.9640 nc        1 MZ6     -0.526100
     38 C1         -7.0270    3.1840   -1.2710 cd        1 MZ6      0.365100
     39 S1         -7.2880    1.5140   -0.9510 ss        1 MZ6     -0.002100
     40 H27         5.9480   -0.2470   -2.0070 ha        1 MZ6      0.157000
     41 HO27        7.9010    0.5640   -2.9290 ho        1 MZ6      0.424000
     42 H25         6.9210    3.9360   -2.6650 ha        1 MZ6      0.154000
     43 H24         4.6860    4.5840   -1.7280 ha        1 MZ6      0.139000
     44 H23         3.1070    2.8440   -0.9340 ha        1 MZ6      0.139000
     45 HN20        2.8910    1.2030    0.6810 hn        1 MZ6      0.320500
     46 H19         2.1290   -1.6360    0.2750 h1        1 MZ6      0.091700
     47 H321        1.8940    0.2000    2.7860 hc        1 MZ6      0.060700
     48 H322        1.2760   -1.4940    2.6550 hc        1 MZ6      0.060700
     49 H37         4.0390    0.4970    3.6530 ha        1 MZ6      0.130500
     50 H36         6.2570   -0.4150    4.3130 ha        1 MZ6      0.132500
     51 H35         6.8830   -2.7530    3.7020 ha        1 MZ6      0.132000
     52 H34         5.2770   -4.1770    2.4270 ha        1 MZ6      0.132500
     53 H33         3.0570   -3.2680    1.7640 ha        1 MZ6      0.130500
     54 H17         0.3660    0.1370   -0.6230 h1        1 MZ6      0.085700
     55 HO18       -0.2490    0.4190    2.1170 ho        1 MZ6      0.431000
     56 H161        0.0080   -2.3310   -0.1410 h1        1 MZ6      0.067700
     57 H162       -0.4180   -1.9260    1.5880 h1        1 MZ6      0.067700
     58 H121       -3.1570   -1.0490   -1.4270 h1        1 MZ6      0.049200
     59 H122       -1.3860   -0.9770   -1.8520 h1        1 MZ6      0.049200
     60 H13        -1.3350   -3.5600   -1.3280 hc        1 MZ6      0.055700
     61 H151       -3.0350   -2.4980   -3.6830 hc        1 MZ6      0.040200
     62 H152       -1.2370   -2.3580   -3.5650 hc        1 MZ6      0.040200
     63 H181       -1.0780   -4.8830   -3.3740 hc        1 MZ6      0.035700
     64 H182       -2.8680   -4.9860   -3.6300 hc        1 MZ6      0.035700
     65 H183       -1.8070   -4.3100   -4.9310 hc        1 MZ6      0.035700
     66 H141       -3.6050   -3.5740   -0.1610 hc        1 MZ6      0.044367
     67 H142       -4.3800   -3.2030   -1.7570 hc        1 MZ6      0.044367
     68 H143       -3.4660   -4.7490   -1.5330 hc        1 MZ6      0.044367
     69 H6         -2.0420    1.7290    0.9030 ha        1 MZ6      0.173000
     70 H7         -3.2080    3.7350   -0.0180 ha        1 MZ6      0.162000
     71 H4         -5.5480   -0.7170    0.2380 ha        1 MZ6      0.168000
     72 H1         -7.8080    3.8180   -1.7090 h5        1 MZ6      0.067800
@<TRIPOS>BOND
     1    1    2 2   
     2    2    3 1   
     3    2   10 1   
     4    3    4 ar  
     5    3    9 ar  
     6    4    5 ar  
     7    4   40 1   
     8    5    6 1   
     9    5    7 ar  
    10    6   41 1   
    11    7    8 ar  
    12    7   42 1   
    13    8    9 ar  
    14    8   43 1   
    15    9   44 1   
    16   10   11 1   
    17   10   45 1   
    18   11   12 1   
    19   11   19 1   
    20   11   46 1   
    21   12   13 1   
    22   12   47 1   
    23   12   48 1   
    24   13   14 ar  
    25   13   18 ar  
    26   14   15 ar  
    27   14   49 1   
    28   15   16 ar  
    29   15   50 1   
    30   16   17 ar  
    31   16   51 1   
    32   17   18 ar  
    33   17   52 1   
    34   18   53 1   
    35   19   20 1   
    36   19   21 1   
    37   19   54 1   
    38   20   55 1   
    39   21   22 1   
    40   21   56 1   
    41   21   57 1   
    42   22   23 1   
    43   22   28 1   
    44   23   24 1   
    45   23   58 1   
    46   23   59 1   
    47   24   25 1   
    48   24   27 1   
    49   24   60 1   
    50   25   26 1   
    51   25   61 1   
    52   25   62 1   
    53   26   63 1   
    54   26   64 1   
    55   26   65 1   
    56   27   66 1   
    57   27   67 1   
    58   27   68 1   
    59   28   29 2   
    60   28   30 2   
    61   28   31 1   
    62   31   32 ar  
    63   31   36 ar  
    64   32   33 ar  
    65   32   69 1   
    66   33   34 ar  
    67   33   70 1   
    68   34   35 ar  
    69   34   37 1   
    70   35   36 ar  
    71   35   39 1   
    72   36   71 1   
    73   37   38 2   
    74   38   39 1   
    75   38   72 1   
@<TRIPOS>SUBSTRUCTURE
     1 MZ6         1 TEMP              0 ****  ****    0 ROOT
