@<TRIPOS>MOLECULE
MZ6
   74    76     1     0     0
SMALL
bcc


@<TRIPOS>ATOM
      1 O22         1.4250   -1.7390   -1.0100 o         1 MZ6     -0.448100
      2 C21         1.5430   -0.7140   -0.3510 c         1 MZ6      0.584700
      3 C22         1.7620   -0.5820    1.0890 ca        1 MZ6     -0.172600
      4 C27         1.4250   -1.6950    1.8720 ca        1 MZ6     -0.078000
      5 C26         1.6190   -1.6320    3.2650 ca        1 MZ6      0.146100
      6 O27         1.2590   -2.7520    3.9620 oh        1 MZ6     -0.467100
      7 C25         2.1490   -0.4790    3.8620 ca        1 MZ6     -0.139000
      8 C24         2.4890    0.6120    3.0620 ca        1 MZ6     -0.075000
      9 C23         2.2990    0.5730    1.6830 ca        1 MZ6     -0.140000
     10 N20         1.4270    0.5880   -1.1270 n4        1 MZ6     -0.679800
     11 C19         0.7390    0.4530   -2.4590 c3        1 MZ6      0.097500
     12 C32         0.0660    1.7760   -2.8600 c3        1 MZ6     -0.053100
     13 C38        -0.7760    2.3350   -1.7690 ca        1 MZ6     -0.171300
     14 C37        -0.3160    3.4180   -1.0090 ca        1 MZ6     -0.131000
     15 C36        -1.1260    3.9730   -0.0190 ca        1 MZ6     -0.111000
     16 C35        -2.3980    3.4510    0.2180 ca        1 MZ6     -0.090000
     17 C34        -2.8620    2.3730   -0.5380 ca        1 MZ6     -0.111000
     18 C33        -2.0550    1.8170   -1.5300 ca        1 MZ6     -0.131000
     19 C17         1.7490   -0.0450   -3.5320 c3        1 MZ6      0.117100
     20 O18         2.8800    0.7950   -3.5810 oh        1 MZ6     -0.616800
     21 C16         1.0370   -0.1920   -4.8860 c3        1 MZ6      0.105800
     22 N11         1.8300   -0.7880   -5.9620 n3        1 MZ6     -0.904200
     23 C12         2.5370   -2.0200   -5.6190 c3        1 MZ6      0.119800
     24 C13         1.6720   -3.2060   -5.1660 c3        1 MZ6     -0.087700
     25 C15         2.5870   -4.3980   -4.9060 c3        1 MZ6     -0.076400
     26 C18         1.9400   -5.4260   -4.0130 c3        1 MZ6     -0.099100
     27 C14         0.6180   -3.5400   -6.1990 c3        1 MZ6     -0.108100
     28 S8          3.2000    0.8660   -7.0980 s4        1 MZ6      1.691300
     29 O10         2.4340    0.7340   -8.2120 o         1 MZ6     -0.449900
     30 O9          2.9030    1.7790   -6.1300 o         1 MZ6     -0.449900
     31 C5          4.5940    0.2020   -7.0920 ca        1 MZ6     -0.636500
     32 C6          5.4330    0.3040   -5.9300 ca        1 MZ6     -0.022000
     33 C7          6.7030   -0.2030   -5.8880 ca        1 MZ6     -0.085000
     34 C2          7.2240   -0.8620   -7.0320 ca        1 MZ6      0.214400
     35 C3          6.3920   -0.9910   -8.2190 ca        1 MZ6     -0.204100
     36 C4          5.1150   -0.4720   -8.2240 ca        1 MZ6      0.134000
     37 N1          8.4840   -1.4200   -7.1610 nc        1 MZ6     -0.513100
     38 C1          8.6050   -1.9410   -8.3850 cd        1 MZ6      0.393100
     39 S1          7.2660   -1.8040   -9.4190 ss        1 MZ6      0.185900
     40 H27         1.0160   -2.6150    1.4200 ha        1 MZ6      0.186000
     41 HO27        1.4430   -2.6090    4.9060 ho        1 MZ6      0.450000
     42 H25         2.3010   -0.4360    4.9530 ha        1 MZ6      0.174000
     43 H24         2.9160    1.5160    3.5290 ha        1 MZ6      0.170000
     44 H23         2.6020    1.4460    1.0880 ha        1 MZ6      0.128000
     45 HN20        2.3740    0.9560   -1.2870 hn        1 MZ6      0.473300
     46 H19        -0.0620   -0.3380   -2.3370 hx        1 MZ6      0.124700
     47 H321        0.8450    2.5220   -3.1750 hc        1 MZ6      0.082200
     48 H322       -0.5830    1.5610   -3.7530 hc        1 MZ6      0.082200
     49 H37         0.6680    3.8650   -1.2190 ha        1 MZ6      0.134500
     50 H36        -0.7670    4.8360    0.5650 ha        1 MZ6      0.161000
     51 H35        -3.0420    3.8980    0.9940 ha        1 MZ6      0.165000
     52 H34        -3.8720    1.9690   -0.3620 ha        1 MZ6      0.161000
     53 H33        -2.4350    0.9830   -2.1390 ha        1 MZ6      0.134500
     54 H17         2.1570   -1.0480   -3.1940 h1        1 MZ6      0.118700
     55 HO18        2.6350    1.6280   -4.0150 ho        1 MZ6      0.443000
     56 H161        0.0980   -0.7950   -4.7070 h1        1 MZ6      0.082200
     57 H162        0.7370    0.8360   -5.2500 h1        1 MZ6      0.082200
     58 H121        3.1060   -2.3350   -6.5420 h1        1 MZ6      0.069200
     59 H122        3.2900   -1.7820   -4.8150 h1        1 MZ6      0.069200
     60 H13         1.1610   -2.9310   -4.2000 hc        1 MZ6      0.050700
     61 H151        2.8650   -4.8700   -5.8850 hc        1 MZ6      0.047200
     62 H152        3.5370   -4.0420   -4.4240 hc        1 MZ6      0.047200
     63 H181        2.6450   -6.2760   -3.8420 hc        1 MZ6      0.048367
     64 H182        1.0100   -5.8340   -4.4770 hc        1 MZ6      0.048367
     65 H183        1.6750   -4.9840   -3.0230 hc        1 MZ6      0.048367
     66 H141        1.0720   -3.6400   -7.2140 hc        1 MZ6      0.050033
     67 H142        0.1260   -4.5120   -5.9430 hc        1 MZ6      0.050033
     68 H143       -0.1760   -2.7560   -6.2340 hc        1 MZ6      0.050033
     69 H6          5.0180    0.8180   -5.0400 ha        1 MZ6      0.167000
     70 H7          7.3340   -0.1040   -4.9860 ha        1 MZ6      0.195000
     71 H4          4.4800   -0.5670   -9.1290 ha        1 MZ6      0.177000
     72 H1          9.5480   -2.4310   -8.6830 h5        1 MZ6      0.107800
     73 H202        0.9020    1.2670   -0.5500 hn        1 MZ6      0.473300
     74 H111        1.1800   -1.0010   -6.7140 hn        1 MZ6      0.408800
@<TRIPOS>BOND
     1    1    2 2   
     2    2    3 1   
     3    2   10 1   
     4    3    4 ar  
     5    3    9 ar  
     6    4    5 ar  
     7    4   40 1   
     8    5    6 1   
     9    5    7 ar  
    10    6   41 1   
    11    7    8 ar  
    12    7   42 1   
    13    8    9 ar  
    14    8   43 1   
    15    9   44 1   
    16   10   11 1   
    17   10   45 1   
    18   10   73 1   
    19   11   12 1   
    20   11   19 1   
    21   11   46 1   
    22   12   13 1   
    23   12   47 1   
    24   12   48 1   
    25   13   14 ar  
    26   13   18 ar  
    27   14   15 ar  
    28   14   49 1   
    29   15   16 ar  
    30   15   50 1   
    31   16   17 ar  
    32   16   51 1   
    33   17   18 ar  
    34   17   52 1   
    35   18   53 1   
    36   19   20 1   
    37   19   21 1   
    38   19   54 1   
    39   20   55 1   
    40   21   22 1   
    41   21   56 1   
    42   21   57 1   
    43   22   23 1   
    44   22   74 1   
    45   23   24 1   
    46   23   58 1   
    47   23   59 1   
    48   24   25 1   
    49   24   27 1   
    50   24   60 1   
    51   25   26 1   
    52   25   61 1   
    53   25   62 1   
    54   26   63 1   
    55   26   64 1   
    56   26   65 1   
    57   27   66 1   
    58   27   67 1   
    59   27   68 1   
    60   28   29 1   
    61   28   30 1   
    62   28   31 1   
    63   31   32 ar  
    64   31   36 ar  
    65   32   33 ar  
    66   32   69 1   
    67   33   34 ar  
    68   33   70 1   
    69   34   35 ar  
    70   34   37 1   
    71   35   36 ar  
    72   35   39 1   
    73   36   71 1   
    74   37   38 2   
    75   38   39 1   
    76   38   72 1   
@<TRIPOS>SUBSTRUCTURE
     1 MZ6         1 TEMP              0 ****  ****    0 ROOT
