@<TRIPOS>MOLECULE
MZ6
   72    64     1     0     0
SMALL
bcc


@<TRIPOS>ATOM
      1 O22         4.4780   -0.1680    1.1450 o         1 MZ6     -0.380000
      2 C21         3.7550   -0.3730    2.0860 c1        1 MZ6      0.353000
      3 C22         4.3330   -0.4190    3.4910 c1        1 MZ6     -0.079000
      4 C27         3.5110   -0.7230    4.5670 c2        1 MZ6     -0.189000
      5 C26         4.0610   -0.8880    5.8420 c1        1 MZ6      0.074000
      6 O27         3.2190   -1.1400    6.9480 oh        1 MZ6     -0.249000
      7 C25         5.4300   -0.7490    6.0300 c1        1 MZ6     -0.125750
      8 C24         6.2540   -0.4450    4.9490 c1        1 MZ6     -0.125750
      9 C23         5.7070   -0.2800    3.6810 c1        1 MZ6     -0.113000
     10 N20         2.3640   -0.6410    1.8750 n3        1 MZ6     -0.369000
     11 C19         1.8220   -0.6150    0.5430 c3        1 MZ6      0.041000
     12 C32         2.0430   -1.9640   -0.1200 c3        1 MZ6     -0.136000
     13 C38         3.2870   -1.8840   -1.0710 c2        1 MZ6     -0.074000
     14 C37         3.1140   -1.5550   -2.4160 c2        1 MZ6     -0.127000
     15 C36         4.1910   -1.6170   -3.2890 c1        1 MZ6     -0.127000
     16 C35         5.4420   -2.0070   -2.8240 c1        1 MZ6     -0.125750
     17 C34         5.6140   -2.3340   -1.4870 c1        1 MZ6     -0.125750
     18 C33         4.5330   -2.2720   -0.6090 c1        1 MZ6     -0.131000
     19 C17         0.3470   -0.3220    0.6080 c3        1 MZ6     -0.022000
     20 O18        -0.3760   -1.5270    0.4680 oh        1 MZ6     -0.330000
     21 C16        -0.0300    0.6320   -0.5160 c3        1 MZ6     -0.052000
     22 N11        -1.4950    0.6230   -0.7080 n3        1 MZ6     -0.830000
     23 C12        -2.1060   -0.3480   -1.6330 c3        1 MZ6     -0.019000
     24 C13        -2.3420    0.3190   -3.0000 c3        1 MZ6     -0.124000
     25 C15        -3.4190   -0.4450   -3.7670 c3        1 MZ6     -0.155000
     26 C18        -4.0860    0.4880   -4.7710 c3        1 MZ6     -0.211000
     27 C14        -1.0650    0.3060   -3.7880 c3        1 MZ6     -0.210000
     28 S8         -2.4050    1.8240   -0.0660 s4        1 MZ6      2.056800
     29 O10        -1.9260    2.1990    1.2370 o         1 MZ6     -0.539900
     30 O9         -2.2340    3.0540   -0.7900 o         1 MZ6     -0.539900
     31 C5         -4.1370    1.3340   -0.0110 c1        1 MZ6     -0.823000
     32 C6         -5.0630    0.3860    0.4810 c2        1 MZ6     -0.032000
     33 C7         -6.3100    0.8140    0.9880 c1        1 MZ6     -0.099000
     34 C2         -6.6290    2.1720    1.0020 c1        1 MZ6     -0.183000
     35 C3         -5.6940    3.1310    0.5040 c1        1 MZ6     -0.183000
     36 C4         -4.4580    2.7070    0.0020 c1        1 MZ6      0.041000
     37 N1         -7.9760    2.9280    1.3690 n1        1 MZ6     -0.101000
     38 C1         -7.8080    4.3150    1.0810 c1        1 MZ6     -0.285000
     39 S1         -6.3800    4.5150    0.5280 s         1 MZ6      0.479000
     40 H27         2.5370   -0.7500    4.4470 ha        1 MZ6      0.141000
     41 HO27        2.8980   -0.3710    7.2580 ho        1 MZ6      0.221000
     42 H25         5.8150   -0.8650    6.9200 ha        1 MZ6      0.138750
     43 H24         7.2150   -0.3480    5.0810 ha        1 MZ6      0.138750
     44 H23         6.2910   -0.0650    2.9160 ha        1 MZ6      0.154000
     45 HN20        1.8150   -0.8550    2.5980 hn        1 MZ6      0.238000
     46 H19         2.2760    0.0900    0.0160 h1        1 MZ6      0.126000
     47 H321        1.2420   -2.2090   -0.6450 hc        1 MZ6      0.103500
     48 H322        2.2010   -2.6430    0.5670 hc        1 MZ6      0.103500
     49 H37         2.2430   -1.2830   -2.7410 ha        1 MZ6      0.147000
     50 H36         4.0710   -1.3890   -4.2240 ha        1 MZ6      0.132000
     51 H35         6.2040   -2.0520   -3.4430 ha        1 MZ6      0.138750
     52 H34         6.4890   -2.6070   -1.1620 ha        1 MZ6      0.138750
     53 H33         4.6530   -2.4990    0.3210 ha        1 MZ6      0.130000
     54 H17         0.1350    0.0850    1.4620 h1        1 MZ6      0.117000
     55 HO18       -1.0040   -1.5780    1.1120 ho        1 MZ6      0.208000
     56 H161        0.2670    1.5500   -0.2810 h1        1 MZ6      0.102500
     57 H162        0.4040    0.3510   -1.3350 h1        1 MZ6      0.102500
     58 H121       -2.9670   -0.6570   -1.2650 h1        1 MZ6      0.100500
     59 H122       -1.5000   -1.1210   -1.7440 h1        1 MZ6      0.100500
     60 H13        -2.6290    1.2350   -2.8660 hc        1 MZ6      0.093000
     61 H151       -3.0050   -1.2040   -4.2470 hc        1 MZ6      0.082000
     62 H152       -4.0880   -0.7820   -3.1400 hc        1 MZ6      0.082000
     63 H181       -3.4030    0.8540   -5.3860 hc        1 MZ6      0.075333
     64 H182       -4.5230    1.2210   -4.2950 hc        1 MZ6      0.075333
     65 H183       -4.7510   -0.0080   -5.2820 hc        1 MZ6      0.075333
     66 H141       -0.4640    0.9970   -3.4470 hc        1 MZ6      0.076000
     67 H142       -1.2630    0.4820   -4.7390 hc        1 MZ6      0.076000
     68 H143       -0.6350   -0.5740   -3.7010 hc        1 MZ6      0.076000
     69 H6         -4.8360   -0.5890    0.4690 ha        1 MZ6      0.155000
     70 H7         -6.9630    0.1450    1.3350 ha        1 MZ6      0.161000
     71 H4         -3.8200    3.3730   -0.3790 ha        1 MZ6      0.168000
     72 H1         -8.4700    5.0340    1.2600 DU        1 MZ6      0.197000
@<TRIPOS>BOND
     1    1    2 1   
     2    2   10 1   
     3    3    4 1   
     4    3    9 1   
     5    4    5 1   
     6    4   40 1   
     7    5    6 1   
     8    6   41 1   
     9    7    8 1   
    10    7   42 1   
    11    8   43 1   
    12    9   44 1   
    13   10   11 1   
    14   10   45 1   
    15   11   12 1   
    16   11   19 1   
    17   11   46 1   
    18   12   13 1   
    19   12   47 1   
    20   12   48 1   
    21   13   14 1   
    22   13   18 1   
    23   14   15 1   
    24   14   49 1   
    25   15   50 1   
    26   16   17 1   
    27   16   51 1   
    28   17   52 1   
    29   18   53 1   
    30   19   20 1   
    31   19   21 1   
    32   19   54 1   
    33   20   55 1   
    34   21   22 1   
    35   21   56 1   
    36   21   57 1   
    37   22   23 1   
    38   22   28 1   
    39   23   24 1   
    40   23   58 1   
    41   23   59 1   
    42   24   25 1   
    43   24   27 1   
    44   24   60 1   
    45   25   26 1   
    46   25   61 1   
    47   25   62 1   
    48   26   63 1   
    49   26   64 1   
    50   26   65 1   
    51   27   66 1   
    52   27   67 1   
    53   27   68 1   
    54   28   29 1   
    55   28   30 1   
    56   31   32 1   
    57   31   36 1   
    58   32   33 1   
    59   32   69 1   
    60   33   70 1   
    61   34   35 1   
    62   36   71 1   
    63   37   38 1   
    64   38   39 1   
@<TRIPOS>SUBSTRUCTURE
     1 MZ6         1 TEMP              0 ****  ****    0 ROOT
