@<TRIPOS>MOLECULE
MZ6
   74    76     1     0     0
SMALL
bcc


@<TRIPOS>ATOM
      1 O22         1.4500   -1.7330   -1.0030 o         1 MZ6     -0.448100
      2 C21         1.5610   -0.7030   -0.3490 c         1 MZ6      0.584700
      3 C22         1.7910   -0.5610    1.0890 ca        1 MZ6     -0.172600
      4 C27         1.4760   -1.6750    1.8790 ca        1 MZ6     -0.078000
      5 C26         1.6810   -1.6040    3.2700 ca        1 MZ6      0.145100
      6 O27         1.3430   -2.7250    3.9750 oh        1 MZ6     -0.467100
      7 C25         2.2000   -0.4400    3.8570 ca        1 MZ6     -0.139000
      8 C24         2.5170    0.6520    3.0490 ca        1 MZ6     -0.075000
      9 C23         2.3160    0.6030    1.6720 ca        1 MZ6     -0.140000
     10 N20         1.4240    0.5930   -1.1310 ny        1 MZ6     -0.679800
     11 C19         0.7300    0.4430   -2.4580 c3        1 MZ6      0.097500
     12 C32         0.0390    1.7550   -2.8620 c3        1 MZ6     -0.053100
     13 C38        -0.8040    2.3100   -1.7690 ca        1 MZ6     -0.171300
     14 C37        -0.3520    3.4020   -1.0170 ca        1 MZ6     -0.131000
     15 C36        -1.1630    3.9520   -0.0250 ca        1 MZ6     -0.111000
     16 C35        -2.4280    3.4160    0.2220 ca        1 MZ6     -0.090000
     17 C34        -2.8830    2.3290   -0.5260 ca        1 MZ6     -0.111000
     18 C33        -2.0750    1.7780   -1.5200 ca        1 MZ6     -0.131000
     19 C17         1.7390   -0.0490   -3.5340 c3        1 MZ6      0.117100
     20 O18         2.8610    0.8040   -3.5940 oh        1 MZ6     -0.616800
     21 C16         1.0210   -0.2090   -4.8840 c3        1 MZ6      0.105800
     22 N11         1.8150   -0.8040   -5.9610 n7        1 MZ6     -0.904200
     23 C12         2.5330   -2.0280   -5.6160 c3        1 MZ6      0.119800
     24 C13         1.6810   -3.2190   -5.1530 c3        1 MZ6     -0.087700
     25 C15         2.6060   -4.4020   -4.8930 c3        1 MZ6     -0.075400
     26 C18         1.9730   -5.4310   -3.9920 c3        1 MZ6     -0.099100
     27 C14         0.6240   -3.5670   -6.1780 c3        1 MZ6     -0.108100
     28 S8          3.1650    0.8560   -7.1110 s4        1 MZ6      1.691300
     29 O10         2.3980    0.7110   -8.2220 o         1 MZ6     -0.449900
     30 O9          2.8620    1.7720   -6.1480 o         1 MZ6     -0.449900
     31 C5          4.5660    0.2070   -7.1050 ca        1 MZ6     -0.636500
     32 C6          5.4070    0.3240   -5.9460 ca        1 MZ6     -0.022000
     33 C7          6.6820   -0.1690   -5.9050 ca        1 MZ6     -0.086000
     34 C2          7.2070   -0.8310   -7.0460 ca        1 MZ6      0.214400
     35 C3          6.3720   -0.9760   -8.2300 ca        1 MZ6     -0.204100
     36 C4          5.0900   -0.4700   -8.2340 ca        1 MZ6      0.134000
     37 N1          8.4720   -1.3780   -7.1760 nc        1 MZ6     -0.513100
     38 C1          8.5940   -1.9050   -8.3960 cd        1 MZ6      0.393100
     39 S1          7.2510   -1.7870   -9.4270 ss        1 MZ6      0.185900
     40 H27         1.0770   -2.6030    1.4350 ha        1 MZ6      0.186000
     41 HO27        1.5320   -2.5750    4.9170 ho        1 MZ6      0.450000
     42 H25         2.3600   -0.3900    4.9470 ha        1 MZ6      0.174000
     43 H24         2.9360    1.5640    3.5090 ha        1 MZ6      0.170000
     44 H23         2.6020    1.4780    1.0710 ha        1 MZ6      0.127000
     45 HN20        0.8940    1.2680   -0.5550 hn        1 MZ6      0.473300
     46 H19        -0.0600   -0.3580   -2.3270 hx        1 MZ6      0.124700
     47 H321       -0.6130    1.5280   -3.7500 hc        1 MZ6      0.082200
     48 H322        0.8060    2.5090   -3.1850 hc        1 MZ6      0.082200
     49 H37         0.6250    3.8590   -1.2350 ha        1 MZ6      0.134500
     50 H36        -0.8110    4.8230    0.5520 ha        1 MZ6      0.161000
     51 H35        -3.0730    3.8600    0.9990 ha        1 MZ6      0.165000
     52 H34        -3.8870    1.9140   -0.3420 ha        1 MZ6      0.161000
     53 H33        -2.4490    0.9360   -2.1230 ha        1 MZ6      0.134500
     54 H17         2.1600   -1.0450   -3.1940 h1        1 MZ6      0.118700
     55 HO18        2.6040    1.6320   -4.0310 ho        1 MZ6      0.443000
     56 H161        0.0900   -0.8210   -4.6970 h1        1 MZ6      0.082700
     57 H162        0.7090    0.8130   -5.2510 h1        1 MZ6      0.082700
     58 H121        3.1000   -2.3430   -6.5410 h1        1 MZ6      0.069200
     59 H122        3.2890   -1.7800   -4.8170 h1        1 MZ6      0.069200
     60 H13         1.1730   -2.9440   -4.1850 hc        1 MZ6      0.050700
     61 H151        2.8830   -4.8770   -5.8720 hc        1 MZ6      0.047200
     62 H152        3.5560   -4.0370   -4.4180 hc        1 MZ6      0.047200
     63 H181        2.6860   -6.2760   -3.8210 hc        1 MZ6      0.048367
     64 H182        1.0430   -5.8490   -4.4480 hc        1 MZ6      0.048367
     65 H183        1.7110   -4.9870   -3.0020 hc        1 MZ6      0.048367
     66 H141        0.1410   -4.5410   -5.9150 hc        1 MZ6      0.050033
     67 H142       -0.1770   -2.7880   -6.2130 hc        1 MZ6      0.050033
     68 H143        1.0730   -3.6670   -7.1960 hc        1 MZ6      0.050033
     69 H6          4.9900    0.8400   -5.0590 ha        1 MZ6      0.167000
     70 H7          7.3150   -0.0590   -5.0060 ha        1 MZ6      0.195000
     71 H4          4.4540   -0.5770   -9.1370 ha        1 MZ6      0.177000
     72 H1          9.5410   -2.3880   -8.6940 h5        1 MZ6      0.107800
     73 H202        2.3650    0.9720   -1.2980 hn        1 MZ6      0.473300
     74 H111        1.1630   -1.0260   -6.7090 hn        1 MZ6      0.408800
@<TRIPOS>BOND
     1    1    2 2   
     2    2    3 1   
     3    2   10 1   
     4    3    4 ar  
     5    3    9 ar  
     6    4    5 ar  
     7    4   40 1   
     8    5    6 1   
     9    5    7 ar  
    10    6   41 1   
    11    7    8 ar  
    12    7   42 1   
    13    8    9 ar  
    14    8   43 1   
    15    9   44 1   
    16   10   11 1   
    17   10   45 1   
    18   10   73 1   
    19   11   12 1   
    20   11   19 1   
    21   11   46 1   
    22   12   13 1   
    23   12   47 1   
    24   12   48 1   
    25   13   14 ar  
    26   13   18 ar  
    27   14   15 ar  
    28   14   49 1   
    29   15   16 ar  
    30   15   50 1   
    31   16   17 ar  
    32   16   51 1   
    33   17   18 ar  
    34   17   52 1   
    35   18   53 1   
    36   19   20 1   
    37   19   21 1   
    38   19   54 1   
    39   20   55 1   
    40   21   22 1   
    41   21   56 1   
    42   21   57 1   
    43   22   23 1   
    44   22   74 1   
    45   23   24 1   
    46   23   58 1   
    47   23   59 1   
    48   24   25 1   
    49   24   27 1   
    50   24   60 1   
    51   25   26 1   
    52   25   61 1   
    53   25   62 1   
    54   26   63 1   
    55   26   64 1   
    56   26   65 1   
    57   27   66 1   
    58   27   67 1   
    59   27   68 1   
    60   28   29 1   
    61   28   30 1   
    62   28   31 1   
    63   31   32 ar  
    64   31   36 ar  
    65   32   33 ar  
    66   32   69 1   
    67   33   34 ar  
    68   33   70 1   
    69   34   35 ar  
    70   34   37 1   
    71   35   36 ar  
    72   35   39 1   
    73   36   71 1   
    74   37   38 2   
    75   38   39 1   
    76   38   72 1   
@<TRIPOS>SUBSTRUCTURE
     1 MZ6         1 TEMP              0 ****  ****    0 ROOT
