@<TRIPOS>MOLECULE
MZ7
   83    84     1     0     0
SMALL
bcc


@<TRIPOS>ATOM
      1 O9         -0.4860   -0.0760   -2.2660 o         1 MZ7     -0.461900
      2 S8          0.5720   -0.3780   -1.4590 s4        1 MZ7      1.690300
      3 O10         0.6860    0.2550   -0.2590 o         1 MZ7     -0.461900
      4 C5          1.4620   -1.5770   -1.7800 ca        1 MZ7     -0.665500
      5 C6          1.2550   -2.3140   -3.0030 ca        1 MZ7     -0.034000
      6 C7          1.9700   -3.4290   -3.3290 ca        1 MZ7     -0.074000
      7 C4          2.4700   -2.0520   -0.8970 ca        1 MZ7      0.144000
      8 C3          3.2070   -3.1750   -1.1880 ca        1 MZ7     -0.212100
      9 C2          2.9700   -3.9020   -2.4330 ca        1 MZ7      0.227400
     10 N1          3.7700   -5.0110   -2.6010 nc        1 MZ7     -0.503100
     11 S1          4.4280   -3.9680   -0.3200 ss        1 MZ7      0.207900
     12 C1          4.5750   -5.1340   -1.5380 cd        1 MZ7      0.405100
     13 N11         1.8510    1.4270   -2.5860 n3        1 MZ7     -0.908200
     14 C12         2.8640    1.9980   -1.6920 c3        1 MZ7      0.101800
     15 C13         4.1550    1.1830   -1.6190 c3        1 MZ7     -0.089400
     16 C14         5.1110    1.8210   -0.6310 c3        1 MZ7     -0.084400
     17 C15         6.4070    1.0390   -0.5500 c3        1 MZ7     -0.076400
     18 C18         7.3590    1.6650    0.4360 c3        1 MZ7     -0.100100
     19 C16         1.0150    2.4200   -3.2580 c3        1 MZ7      0.105800
     20 C17         0.0690    3.2310   -2.3480 c3        1 MZ7      0.129100
     21 O18         0.7310    4.3010   -1.6980 oh        1 MZ7     -0.637800
     22 C19        -1.0470    3.8850   -3.2180 c3        1 MZ7      0.143500
     23 N20        -1.8020    4.9520   -2.4380 n4        1 MZ7     -0.665800
     24 C21        -2.8680    4.4580   -1.5310 c         1 MZ7      0.530100
     25 O22        -3.0460    3.2560   -1.3900 o         1 MZ7     -0.401100
     26 C22        -3.6800    5.5400   -0.7980 c3        1 MZ7      0.049500
     27 C23        -2.9670    5.8870    0.5370 c3        1 MZ7     -0.076700
     28 C25        -3.5130    7.1840    1.0980 c3        1 MZ7     -0.133100
     29 C24        -3.0700    4.7680    1.5490 c3        1 MZ7     -0.133100
     30 N26        -5.0920    5.0910   -0.5790 n4        1 MZ7     -0.699800
     31 C27        -5.9530    5.0930   -1.8570 c         1 MZ7      0.588100
     32 O28        -5.3060    5.1470   -2.8880 o         1 MZ7     -0.433100
     33 C29        -7.4190    5.0390   -1.6380 c3        1 MZ7     -0.194100
     34 C32        -0.4730    4.5200   -4.4980 c3        1 MZ7     -0.056100
     35 C38        -1.4660    5.3490   -5.2320 ca        1 MZ7     -0.192300
     36 C33        -2.3770    4.7500   -6.1110 ca        1 MZ7     -0.135500
     37 C34        -3.2400    5.5390   -6.8710 ca        1 MZ7     -0.110500
     38 C35        -3.1960    6.9300   -6.7630 ca        1 MZ7     -0.083000
     39 C36        -2.2890    7.5320   -5.8880 ca        1 MZ7     -0.110500
     40 C37        -1.4270    6.7470   -5.1250 ca        1 MZ7     -0.135500
     41 H6          0.4650   -1.9580   -3.6910 ha        1 MZ7      0.167000
     42 H7          1.7870   -3.9810   -4.2700 ha        1 MZ7      0.207000
     43 H4          2.6470   -1.5020    0.0500 ha        1 MZ7      0.172000
     44 H1          5.2910   -5.9760   -1.4900 h5        1 MZ7      0.116800
     45 H121        3.1410    3.0460   -2.0110 h1        1 MZ7      0.069200
     46 H122        2.4020    2.0520   -0.6630 h1        1 MZ7      0.069200
     47 H131        4.6400    1.1330   -2.6300 hc        1 MZ7      0.049700
     48 H132        3.9300    0.1310   -1.2990 hc        1 MZ7      0.049700
     49 H141        5.3330    2.8750   -0.9460 hc        1 MZ7      0.053200
     50 H142        4.6360    1.8670    0.3840 hc        1 MZ7      0.053200
     51 H151        6.8860    1.0010   -1.5640 hc        1 MZ7      0.041700
     52 H152        6.1880   -0.0180   -0.2450 hc        1 MZ7      0.041700
     53 H181        6.9130    1.6920    1.4590 hc        1 MZ7      0.049700
     54 H182        7.6120    2.7100    0.1340 hc        1 MZ7      0.049700
     55 H183        8.3070    1.0750    0.4810 hc        1 MZ7      0.049700
     56 H161        1.6550    3.1590   -3.8270 h1        1 MZ7      0.090200
     57 H162        0.3720    1.8520   -3.9950 h1        1 MZ7      0.090200
     58 H17        -0.4160    2.5580   -1.5820 h1        1 MZ7      0.067700
     59 HO18        1.4370    3.9410   -1.1420 ho        1 MZ7      0.460000
     60 H19        -1.7960    3.0820   -3.4900 hx        1 MZ7      0.127700
     61 HN20       -1.1070    5.4850   -1.8860 hn        1 MZ7      0.496800
     62 H22        -3.7370    6.4810   -1.4320 hx        1 MZ7      0.142700
     63 H23        -1.8810    6.0480    0.2760 hc        1 MZ7      0.086700
     64 H251       -4.5580    7.0700    1.4760 hc        1 MZ7      0.076533
     65 H252       -3.4840    8.0020    0.3380 hc        1 MZ7      0.076533
     66 H253       -2.8790    7.5010    1.9680 hc        1 MZ7      0.076533
     67 H241       -2.3300    4.9460    2.3730 hc        1 MZ7      0.076533
     68 H242       -2.8430    3.7770    1.0870 hc        1 MZ7      0.076533
     69 H243       -4.0810    4.7290    2.0240 hc        1 MZ7      0.076533
     70 HN26       -5.5190    5.7240    0.1160 hn        1 MZ7      0.485300
     71 H291       -7.8860    4.4830   -2.5010 hc        1 MZ7      0.140700
     72 H292       -7.7150    4.5370   -0.6830 hc        1 MZ7      0.140700
     73 H293       -7.8310    6.0880   -1.6450 hc        1 MZ7      0.140700
     74 H321        0.4330    5.1320   -4.2340 hc        1 MZ7      0.101700
     75 H322       -0.1370    3.6770   -5.1630 hc        1 MZ7      0.101700
     76 H33        -2.3930    3.6550   -6.2290 ha        1 MZ7      0.139000
     77 H34        -3.9390    5.0630   -7.5790 ha        1 MZ7      0.168500
     78 H35        -3.8590    7.5540   -7.3860 ha        1 MZ7      0.174000
     79 H36        -2.2330    8.6320   -5.8250 ha        1 MZ7      0.168500
     80 H37        -0.6680    7.2330   -4.4920 ha        1 MZ7      0.139000
     81 H111        2.3250    0.9090   -3.3170 hn        1 MZ7      0.402800
     82 H202       -2.2300    5.5960   -3.1390 hn        1 MZ7      0.496800
     83 H262       -5.0890    4.1400   -0.1800 hn        1 MZ7      0.485300
@<TRIPOS>BOND
     1    1    2 1   
     2    2    3 1   
     3    2    4 1   
     4    4    5 ar  
     5    4    7 ar  
     6    5    6 ar  
     7    5   41 1   
     8    6    9 ar  
     9    6   42 1   
    10    7    8 ar  
    11    7   43 1   
    12    8    9 ar  
    13    8   11 1   
    14    9   10 1   
    15   10   12 2   
    16   11   12 1   
    17   12   44 1   
    18   13   14 1   
    19   13   19 1   
    20   13   81 1   
    21   14   15 1   
    22   14   45 1   
    23   14   46 1   
    24   15   16 1   
    25   15   47 1   
    26   15   48 1   
    27   16   17 1   
    28   16   49 1   
    29   16   50 1   
    30   17   18 1   
    31   17   51 1   
    32   17   52 1   
    33   18   53 1   
    34   18   54 1   
    35   18   55 1   
    36   19   20 1   
    37   19   56 1   
    38   19   57 1   
    39   20   21 1   
    40   20   22 1   
    41   20   58 1   
    42   21   59 1   
    43   22   23 1   
    44   22   34 1   
    45   22   60 1   
    46   23   24 1   
    47   23   61 1   
    48   23   82 1   
    49   24   25 2   
    50   24   26 1   
    51   26   27 1   
    52   26   30 1   
    53   26   62 1   
    54   27   28 1   
    55   27   29 1   
    56   27   63 1   
    57   28   64 1   
    58   28   65 1   
    59   28   66 1   
    60   29   67 1   
    61   29   68 1   
    62   29   69 1   
    63   30   31 1   
    64   30   70 1   
    65   30   83 1   
    66   31   32 2   
    67   31   33 1   
    68   33   71 1   
    69   33   72 1   
    70   33   73 1   
    71   34   35 1   
    72   34   74 1   
    73   34   75 1   
    74   35   36 ar  
    75   35   40 ar  
    76   36   37 ar  
    77   36   76 1   
    78   37   38 ar  
    79   37   77 1   
    80   38   39 ar  
    81   38   78 1   
    82   39   40 ar  
    83   39   79 1   
    84   40   80 1   
@<TRIPOS>SUBSTRUCTURE
     1 MZ7         1 TEMP              0 ****  ****    0 ROOT
