@<TRIPOS>MOLECULE
MZ7
   83    84     1     0     0
SMALL
bcc


@<TRIPOS>ATOM
      1 O9         -0.7210   -0.6650   -1.4850 o         1 MZ7     -0.468400
      2 S8          0.4380   -0.6680   -0.7710 s4        1 MZ7      1.697300
      3 O10         0.6350    0.3210    0.1510 o         1 MZ7     -0.468400
      4 C5          1.3790   -1.8640   -0.8210 ca        1 MZ7     -0.669500
      5 C6          1.0960   -2.9540   -1.7250 ca        1 MZ7     -0.032000
      6 C7          1.8590   -4.0830   -1.7910 ca        1 MZ7     -0.073000
      7 C4          2.5170   -2.0000    0.0240 ca        1 MZ7      0.142000
      8 C3          3.3040   -3.1240   -0.0090 ca        1 MZ7     -0.211100
      9 C2          2.9890   -4.2120   -0.9350 ca        1 MZ7      0.230400
     10 N1          3.8530   -5.2820   -0.8640 nc        1 MZ7     -0.502100
     11 S1          4.6780   -3.5560    0.8860 ss        1 MZ7      0.207900
     12 C1          4.7810   -5.0340    0.0690 cd        1 MZ7      0.408100
     13 N11         1.4670    0.8260   -2.4790 n3        1 MZ7     -0.908200
     14 C12         2.8310    1.1140   -2.0210 c3        1 MZ7      0.118800
     15 C13         3.8750    1.2990   -3.1180 c3        1 MZ7     -0.106400
     16 C14         5.2340    1.5650   -2.5050 c3        1 MZ7     -0.078400
     17 C15         6.2880    1.7440   -3.5790 c3        1 MZ7     -0.079400
     18 C18         7.6430    2.0100   -2.9760 c3        1 MZ7     -0.099100
     19 C16         0.7400    2.0210   -2.9100 c3        1 MZ7      0.114800
     20 C17        -0.1030    2.6870   -1.8020 c3        1 MZ7      0.121100
     21 O18         0.7000    3.2200   -0.7640 oh        1 MZ7     -0.624800
     22 C19        -0.8960    3.8920   -2.3930 c3        1 MZ7      0.149500
     23 N20        -1.5760    4.6700   -1.2680 n4        1 MZ7     -0.670800
     24 C21        -2.9800    4.2470   -1.0340 c         1 MZ7      0.533100
     25 O22        -3.1910    3.1120   -0.6250 o         1 MZ7     -0.406100
     26 C22        -4.0730    5.2920   -1.3000 c3        1 MZ7      0.052500
     27 C23        -4.1610    6.2560   -0.0860 c3        1 MZ7     -0.077700
     28 C25        -5.0010    7.4660   -0.4360 c3        1 MZ7     -0.134100
     29 C24        -4.6850    5.5660    1.1530 c3        1 MZ7     -0.134100
     30 N26        -5.3890    4.6310   -1.5790 n4        1 MZ7     -0.698800
     31 C27        -5.4520    3.9070   -2.9340 c         1 MZ7      0.591100
     32 O28        -4.3610    3.6530   -3.4160 o         1 MZ7     -0.441100
     33 C29        -6.8190    3.6370   -3.4440 c3        1 MZ7     -0.195100
     34 C32         0.0120    4.8340   -3.1990 c3        1 MZ7     -0.058100
     35 C38        -0.6320    6.1280   -3.5470 ca        1 MZ7     -0.188300
     36 C33        -1.4690    6.2240   -4.6670 ca        1 MZ7     -0.141000
     37 C34        -1.9770    7.4620   -5.0590 ca        1 MZ7     -0.116000
     38 C35        -1.6520    8.6130   -4.3380 ca        1 MZ7     -0.089000
     39 C36        -0.8220    8.5230   -3.2190 ca        1 MZ7     -0.116000
     40 C37        -0.3110    7.2870   -2.8250 ca        1 MZ7     -0.141000
     41 H6          0.2080   -2.8620   -2.3800 ha        1 MZ7      0.171000
     42 H7          1.6160   -4.9070   -2.4900 ha        1 MZ7      0.209000
     43 H4          2.7530   -1.1770    0.7280 ha        1 MZ7      0.169000
     44 H1          5.5650   -5.7880    0.2720 h5        1 MZ7      0.117800
     45 H121        2.8120    2.0340   -1.3700 h1        1 MZ7      0.064200
     46 H122        3.1380    0.2390   -1.3750 h1        1 MZ7      0.064200
     47 H131        3.5910    2.1580   -3.7820 hc        1 MZ7      0.058200
     48 H132        3.9270    0.3810   -3.7620 hc        1 MZ7      0.058200
     49 H141        5.5230    0.7110   -1.8380 hc        1 MZ7      0.045700
     50 H142        5.1900    2.4870   -1.8670 hc        1 MZ7      0.045700
     51 H151        5.9990    2.5970   -4.2490 hc        1 MZ7      0.047700
     52 H152        6.3330    0.8220   -4.2180 hc        1 MZ7      0.047700
     53 H181        7.6270    2.9390   -2.3570 hc        1 MZ7      0.047367
     54 H182        8.4030    2.1390   -3.7850 hc        1 MZ7      0.047367
     55 H183        7.9630    1.1590   -2.3270 hc        1 MZ7      0.047367
     56 H161        0.0310    1.7360   -3.7400 h1        1 MZ7      0.087200
     57 H162        1.4690    2.7860   -3.3100 h1        1 MZ7      0.087200
     58 H17        -0.8400    1.9410   -1.3790 h1        1 MZ7      0.066700
     59 HO18        0.9980    2.4870   -0.2000 ho        1 MZ7      0.468000
     60 H19        -1.7160    3.4900   -3.0600 hx        1 MZ7      0.112700
     61 HN20       -1.5360    5.6800   -1.5020 hn        1 MZ7      0.493300
     62 H22        -3.8070    5.8910   -2.2290 hx        1 MZ7      0.149700
     63 H23        -3.1060    6.6090    0.1070 hc        1 MZ7      0.086700
     64 H251       -4.8870    8.2360    0.3740 hc        1 MZ7      0.077367
     65 H252       -4.6700    7.9300   -1.3970 hc        1 MZ7      0.077367
     66 H253       -6.0880    7.2180   -0.5000 hc        1 MZ7      0.077367
     67 H241       -4.1860    4.5800    1.3150 hc        1 MZ7      0.077367
     68 H242       -5.7910    5.4150    1.1090 hc        1 MZ7      0.077367
     69 H243       -4.4810    6.2100    2.0500 hc        1 MZ7      0.077367
     70 HN26       -6.1190    5.3610   -1.5470 hn        1 MZ7      0.486300
     71 H291       -6.7580    2.8090   -4.2060 hc        1 MZ7      0.140033
     72 H292       -7.5340    3.3290   -2.6380 hc        1 MZ7      0.140033
     73 H293       -7.2200    4.5530   -3.9590 hc        1 MZ7      0.140033
     74 H321        0.9640    5.0110   -2.6230 hc        1 MZ7      0.107200
     75 H322        0.2810    4.2930   -4.1490 hc        1 MZ7      0.107200
     76 H33        -1.6890    5.3280   -5.2690 ha        1 MZ7      0.143000
     77 H34        -2.6030    7.5380   -5.9630 ha        1 MZ7      0.169500
     78 H35        -2.0260    9.5970   -4.6700 ha        1 MZ7      0.176000
     79 H36        -0.5390    9.4360   -2.6680 ha        1 MZ7      0.169500
     80 H37         0.4020    7.2380   -1.9860 ha        1 MZ7      0.143000
     81 H111        1.5240    0.2080   -3.2790 hn        1 MZ7      0.400800
     82 H202       -1.0190    4.5120   -0.4060 hn        1 MZ7      0.493300
     83 H262       -5.5900    3.9500   -0.8300 hn        1 MZ7      0.486300
@<TRIPOS>BOND
     1    1    2 1   
     2    2    3 1   
     3    2    4 1   
     4    4    5 ar  
     5    4    7 ar  
     6    5    6 ar  
     7    5   41 1   
     8    6    9 ar  
     9    6   42 1   
    10    7    8 ar  
    11    7   43 1   
    12    8    9 ar  
    13    8   11 1   
    14    9   10 1   
    15   10   12 2   
    16   11   12 1   
    17   12   44 1   
    18   13   14 1   
    19   13   19 1   
    20   13   81 1   
    21   14   15 1   
    22   14   45 1   
    23   14   46 1   
    24   15   16 1   
    25   15   47 1   
    26   15   48 1   
    27   16   17 1   
    28   16   49 1   
    29   16   50 1   
    30   17   18 1   
    31   17   51 1   
    32   17   52 1   
    33   18   53 1   
    34   18   54 1   
    35   18   55 1   
    36   19   20 1   
    37   19   56 1   
    38   19   57 1   
    39   20   21 1   
    40   20   22 1   
    41   20   58 1   
    42   21   59 1   
    43   22   23 1   
    44   22   34 1   
    45   22   60 1   
    46   23   24 1   
    47   23   61 1   
    48   23   82 1   
    49   24   25 2   
    50   24   26 1   
    51   26   27 1   
    52   26   30 1   
    53   26   62 1   
    54   27   28 1   
    55   27   29 1   
    56   27   63 1   
    57   28   64 1   
    58   28   65 1   
    59   28   66 1   
    60   29   67 1   
    61   29   68 1   
    62   29   69 1   
    63   30   31 1   
    64   30   70 1   
    65   30   83 1   
    66   31   32 2   
    67   31   33 1   
    68   33   71 1   
    69   33   72 1   
    70   33   73 1   
    71   34   35 1   
    72   34   74 1   
    73   34   75 1   
    74   35   36 ar  
    75   35   40 ar  
    76   36   37 ar  
    77   36   76 1   
    78   37   38 ar  
    79   37   77 1   
    80   38   39 ar  
    81   38   78 1   
    82   39   40 ar  
    83   39   79 1   
    84   40   80 1   
@<TRIPOS>SUBSTRUCTURE
     1 MZ7         1 TEMP              0 ****  ****    0 ROOT
