@<TRIPOS>MOLECULE
MZ7
   80    82     1     0     0
SMALL
bcc


@<TRIPOS>ATOM
      1 O9          1.0830   -2.1140    1.6660 o         1 MZ7     -0.649300
      2 S8          2.2290   -1.2960    1.5840 sy        1 MZ7      1.504200
      3 O10         3.2000   -1.4570    2.5960 o         1 MZ7     -0.649300
      4 C5          2.9660   -1.5700    0.0830 ca        1 MZ7     -0.369500
      5 C6          2.2180   -2.1160   -0.9800 ca        1 MZ7     -0.039000
      6 C7          2.7830   -2.3810   -2.2140 ca        1 MZ7     -0.097000
      7 C4          4.3180   -1.2960   -0.1000 ca        1 MZ7      0.040000
      8 C3          4.9230   -1.5490   -1.3290 ca        1 MZ7     -0.129100
      9 C2          4.1490   -2.0960   -2.4100 ca        1 MZ7      0.133400
     10 N1          4.8790   -2.3000   -3.5930 nc        1 MZ7     -0.525100
     11 S1          6.5230   -1.3230   -1.8370 ss        1 MZ7     -0.004100
     12 C1          6.1290   -1.9290   -3.3990 cd        1 MZ7      0.364100
     13 N11         1.7820    0.2730    1.4860 n3        1 MZ7     -0.803500
     14 C12         2.4070    1.2980    2.2840 c3        1 MZ7      0.211800
     15 C13         3.3740    2.2090    1.5230 c3        1 MZ7     -0.098400
     16 C14         3.9650    3.2320    2.4690 c3        1 MZ7     -0.079400
     17 C15         4.9230    4.1550    1.7460 c3        1 MZ7     -0.079400
     18 C18         5.5160    5.1770    2.6810 c3        1 MZ7     -0.094100
     19 C16         0.6950    0.6810    0.6410 c3        1 MZ7      0.197800
     20 C17        -0.6990    0.6000    1.3030 c3        1 MZ7      0.087100
     21 O18        -0.8280    1.4910    2.3920 oh        1 MZ7     -0.588800
     22 C19        -1.8040    0.8370    0.2320 c3        1 MZ7      0.079700
     23 N20        -3.0690    0.3040    0.6720 n         1 MZ7     -0.555900
     24 C21        -3.6840   -0.7660    0.0610 c         1 MZ7      0.641100
     25 O22        -3.1990   -1.3160   -0.9490 o         1 MZ7     -0.622100
     26 C22        -5.0110   -1.2640    0.6950 c3        1 MZ7      0.036700
     27 C23        -4.6410   -2.3490    1.7350 c3        1 MZ7     -0.066700
     28 C25        -5.8080   -2.6070    2.6630 c3        1 MZ7     -0.096600
     29 C24        -4.1730   -3.6350    1.0900 c3        1 MZ7     -0.096600
     30 N26        -5.9280   -1.7220   -0.3150 n         1 MZ7     -0.547900
     31 C27        -7.0090   -0.9540   -0.7240 c         1 MZ7      0.658100
     32 O28        -7.3590    0.0620   -0.0930 o         1 MZ7     -0.611100
     33 C29        -7.7750   -1.4400   -1.9300 c3        1 MZ7     -0.174100
     34 C32        -1.8930    2.3380   -0.1140 c3        1 MZ7     -0.053100
     35 C38        -2.7070    2.5910   -1.3310 ca        1 MZ7     -0.082300
     36 C33        -2.1820    2.3110   -2.5990 ca        1 MZ7     -0.120000
     37 C34        -2.9360    2.5630   -3.7440 ca        1 MZ7     -0.125500
     38 C35        -4.2200    3.0970   -3.6330 ca        1 MZ7     -0.129000
     39 C36        -4.7490    3.3770   -2.3730 ca        1 MZ7     -0.125500
     40 C37        -3.9960    3.1260   -1.2260 ca        1 MZ7     -0.120000
     41 H6          1.1520   -2.3580   -0.8070 ha        1 MZ7      0.164000
     42 H7          2.1860   -2.8100   -3.0330 ha        1 MZ7      0.163000
     43 H4          4.9130   -0.8900    0.7380 ha        1 MZ7      0.158000
     44 H1          6.8780   -2.0050   -4.1960 h5        1 MZ7      0.067800
     45 H121        1.5990    1.9350    2.7500 h1        1 MZ7      0.068200
     46 H122        2.9730    0.7990    3.1260 h1        1 MZ7      0.068200
     47 H131        4.1960    1.6000    1.0650 hc        1 MZ7      0.041700
     48 H132        2.8410    2.7310    0.6860 hc        1 MZ7      0.041700
     49 H141        3.1420    3.8360    2.9350 hc        1 MZ7      0.044700
     50 H142        4.5050    2.7090    3.3020 hc        1 MZ7      0.044700
     51 H151        5.7450    3.5500    1.2790 hc        1 MZ7      0.039200
     52 H152        4.3830    4.6760    0.9110 hc        1 MZ7      0.039200
     53 H181        6.2190    5.8460    2.1290 hc        1 MZ7      0.034700
     54 H182        4.7140    5.8070    3.1370 hc        1 MZ7      0.034700
     55 H183        6.0790    4.6770    3.5060 hc        1 MZ7      0.034700
     56 H161        0.8730    1.7360    0.2880 h1        1 MZ7      0.055700
     57 H162        0.6820    0.0090   -0.2690 h1        1 MZ7      0.055700
     58 H17        -0.8300   -0.4220    1.7720 h1        1 MZ7      0.114700
     59 HO18       -0.6130    2.3770    2.0750 ho        1 MZ7      0.395000
     60 H19        -1.5030    0.2780   -0.7070 h1        1 MZ7      0.096700
     61 HN20       -3.4580    0.6940    1.4970 hn        1 MZ7      0.319500
     62 H22        -5.5130   -0.4100    1.2470 h1        1 MZ7      0.099700
     63 H23        -3.7910   -1.9250    2.3440 hc        1 MZ7      0.056700
     64 H251       -6.6830   -3.0130    2.1000 hc        1 MZ7      0.042533
     65 H252       -5.5140   -3.3520    3.4420 hc        1 MZ7      0.042533
     66 H253       -6.1230   -1.6650    3.1730 hc        1 MZ7      0.042533
     67 H241       -3.4370   -3.4180    0.2760 hc        1 MZ7      0.042533
     68 H242       -3.6800   -4.2840    1.8540 hc        1 MZ7      0.042533
     69 H243       -5.0310   -4.2010    0.6550 hc        1 MZ7      0.042533
     70 HN26       -5.5690   -2.4110   -0.9380 hn        1 MZ7      0.320500
     71 H291       -8.1490   -2.4790   -1.7670 hc        1 MZ7      0.068033
     72 H292       -8.6460   -0.7620   -2.0980 hc        1 MZ7      0.068033
     73 H293       -7.1210   -1.4250   -2.8350 hc        1 MZ7      0.068033
     74 H321       -2.3190    2.9040    0.7580 hc        1 MZ7      0.050200
     75 H322       -0.8500    2.7160   -0.2850 hc        1 MZ7      0.050200
     76 H33        -1.1730    1.8840   -2.6900 ha        1 MZ7      0.130000
     77 H34        -2.5170    2.3370   -4.7360 ha        1 MZ7      0.133000
     78 H35        -4.8140    3.2940   -4.5370 ha        1 MZ7      0.131000
     79 H36        -5.7630    3.7920   -2.2810 ha        1 MZ7      0.133000
     80 H37        -4.4210    3.3450   -0.2350 ha        1 MZ7      0.130000
@<TRIPOS>BOND
     1    1    2 2   
     2    2    3 2   
     3    2    4 1   
     4    2   13 1   
     5    4    5 ar  
     6    4    7 ar  
     7    5    6 ar  
     8    5   41 1   
     9    6    9 ar  
    10    6   42 1   
    11    7    8 ar  
    12    7   43 1   
    13    8    9 ar  
    14    8   11 1   
    15    9   10 1   
    16   10   12 2   
    17   11   12 1   
    18   12   44 1   
    19   13   14 1   
    20   13   19 1   
    21   14   15 1   
    22   14   45 1   
    23   14   46 1   
    24   15   16 1   
    25   15   47 1   
    26   15   48 1   
    27   16   17 1   
    28   16   49 1   
    29   16   50 1   
    30   17   18 1   
    31   17   51 1   
    32   17   52 1   
    33   18   53 1   
    34   18   54 1   
    35   18   55 1   
    36   19   20 1   
    37   19   56 1   
    38   19   57 1   
    39   20   21 1   
    40   20   22 1   
    41   20   58 1   
    42   21   59 1   
    43   22   23 1   
    44   22   34 1   
    45   22   60 1   
    46   23   24 1   
    47   23   61 1   
    48   24   25 2   
    49   24   26 1   
    50   26   27 1   
    51   26   30 1   
    52   26   62 1   
    53   27   28 1   
    54   27   29 1   
    55   27   63 1   
    56   28   64 1   
    57   28   65 1   
    58   28   66 1   
    59   29   67 1   
    60   29   68 1   
    61   29   69 1   
    62   30   31 1   
    63   30   70 1   
    64   31   32 2   
    65   31   33 1   
    66   33   71 1   
    67   33   72 1   
    68   33   73 1   
    69   34   35 1   
    70   34   74 1   
    71   34   75 1   
    72   35   36 ar  
    73   35   40 ar  
    74   36   37 ar  
    75   36   76 1   
    76   37   38 ar  
    77   37   77 1   
    78   38   39 ar  
    79   38   78 1   
    80   39   40 ar  
    81   39   79 1   
    82   40   80 1   
@<TRIPOS>SUBSTRUCTURE
     1 MZ7         1 TEMP              0 ****  ****    0 ROOT
