@<TRIPOS>MOLECULE
MZ7
   83    84     1     0     0
SMALL
bcc


@<TRIPOS>ATOM
      1 O9         -0.4630   -0.0770   -2.2980 o         1 MZ7     -0.461900
      2 S8          0.5930   -0.3850   -1.4910 s4        1 MZ7      1.690300
      3 O10         0.6980    0.2310   -0.2810 o         1 MZ7     -0.461900
      4 C5          1.4920   -1.5730   -1.8250 ca        1 MZ7     -0.665500
      5 C6          1.2960   -2.2950   -3.0590 ca        1 MZ7     -0.034000
      6 C7          2.0200   -3.4010   -3.3970 ca        1 MZ7     -0.074000
      7 C4          2.4990   -2.0550   -0.9430 ca        1 MZ7      0.144000
      8 C3          3.2440   -3.1700   -1.2470 ca        1 MZ7     -0.212100
      9 C2          3.0180   -3.8800   -2.5030 ca        1 MZ7      0.227400
     10 N1          3.8260   -4.9810   -2.6830 nc        1 MZ7     -0.503100
     11 S1          4.4660   -3.9670   -0.3840 ss        1 MZ7      0.207900
     12 C1          4.6260   -5.1150   -1.6180 cd        1 MZ7      0.405100
     13 N11         1.8670    1.4430   -2.5840 n7        1 MZ7     -0.908200
     14 C12         2.8710    2.0070   -1.6760 c3        1 MZ7      0.101800
     15 C13         4.1680    1.2010   -1.6100 c3        1 MZ7     -0.089400
     16 C14         5.1140    1.8290   -0.6070 c3        1 MZ7     -0.084400
     17 C15         6.4160    1.0560   -0.5320 c3        1 MZ7     -0.076400
     18 C18         7.3590    1.6720    0.4700 c3        1 MZ7     -0.100100
     19 C16         1.0310    2.4410   -3.2480 c3        1 MZ7      0.105800
     20 C17         0.0730    3.2320   -2.3330 c3        1 MZ7      0.129100
     21 O18         0.7250    4.2940   -1.6580 oh        1 MZ7     -0.637800
     22 C19        -1.0380    3.8970   -3.2020 c3        1 MZ7      0.144500
     23 N20        -1.8040    4.9470   -2.4100 ny        1 MZ7     -0.665800
     24 C21        -2.8810    4.4330   -1.5280 c         1 MZ7      0.530100
     25 O22        -3.0460    3.2270   -1.4000 o         1 MZ7     -0.401100
     26 C22        -3.7220    5.4980   -0.8030 c3        1 MZ7      0.049500
     27 C23        -3.0300    5.8560    0.5410 c3        1 MZ7     -0.076700
     28 C25        -3.6070    7.1400    1.0990 c3        1 MZ7     -0.133100
     29 C24        -3.1200    4.7330    1.5490 c3        1 MZ7     -0.133100
     30 N26        -5.1270    5.0230   -0.5990 ny        1 MZ7     -0.699800
     31 C27        -5.9790    5.0180   -1.8830 c         1 MZ7      0.588100
     32 O28        -5.3250    5.0900   -2.9090 o         1 MZ7     -0.432100
     33 C29        -7.4450    4.9380   -1.6750 c3        1 MZ7     -0.194100
     34 C32        -0.4550    4.5570   -4.4650 c3        1 MZ7     -0.056100
     35 C38        -1.4440    5.3940   -5.1940 ca        1 MZ7     -0.192300
     36 C33        -2.3450    4.8070   -6.0910 ca        1 MZ7     -0.135500
     37 C34        -3.2040    5.6060   -6.8450 ca        1 MZ7     -0.111000
     38 C35        -3.1660    6.9950   -6.7130 ca        1 MZ7     -0.083000
     39 C36        -2.2690    7.5860   -5.8200 ca        1 MZ7     -0.111000
     40 C37        -1.4100    6.7910   -5.0630 ca        1 MZ7     -0.135500
     41 H6          0.5070   -1.9340   -3.7450 ha        1 MZ7      0.167000
     42 H7          1.8440   -3.9400   -4.3480 ha        1 MZ7      0.207000
     43 H4          2.6680   -1.5180    0.0130 ha        1 MZ7      0.172000
     44 H1          5.3480   -5.9520   -1.5790 h5        1 MZ7      0.116800
     45 H121        3.1420    3.0620   -1.9760 h1        1 MZ7      0.069200
     46 H122        2.4040    2.0390   -0.6490 h1        1 MZ7      0.069200
     47 H131        4.6590    1.1720   -2.6190 hc        1 MZ7      0.049700
     48 H132        3.9500    0.1420   -1.3090 hc        1 MZ7      0.049700
     49 H141        4.6340    1.8540    0.4070 hc        1 MZ7      0.053200
     50 H142        5.3300    2.8900   -0.9020 hc        1 MZ7      0.053200
     51 H151        6.9010    1.0390   -1.5440 hc        1 MZ7      0.041700
     52 H152        6.2040   -0.0080   -0.2460 hc        1 MZ7      0.041700
     53 H181        6.9060    1.6780    1.4910 hc        1 MZ7      0.049700
     54 H182        7.6050    2.7240    0.1870 hc        1 MZ7      0.049700
     55 H183        8.3110    1.0890    0.5100 hc        1 MZ7      0.049700
     56 H161        0.3970    1.8810   -3.9980 h1        1 MZ7      0.090200
     57 H162        1.6710    3.1920   -3.8000 h1        1 MZ7      0.090200
     58 H17        -0.4160    2.5450   -1.5830 h1        1 MZ7      0.067700
     59 HO18        1.4230    3.9260   -1.0980 ho        1 MZ7      0.460000
     60 H19        -1.7800    3.0960   -3.4950 hx        1 MZ7      0.127700
     61 HN20       -1.1180    5.4690   -1.8370 hn        1 MZ7      0.496300
     62 H22        -3.7890    6.4390   -1.4370 hx        1 MZ7      0.142700
     63 H23        -1.9440    6.0400    0.2910 hc        1 MZ7      0.086700
     64 H251       -2.9880    7.4690    1.9750 hc        1 MZ7      0.076533
     65 H252       -3.5900    7.9600    0.3410 hc        1 MZ7      0.076533
     66 H253       -4.6520    7.0030    1.4690 hc        1 MZ7      0.076533
     67 H241       -4.1350    4.6710    2.0130 hc        1 MZ7      0.076533
     68 H242       -2.3920    4.9230    2.3810 hc        1 MZ7      0.076533
     69 H243       -2.8670    3.7480    1.0860 hc        1 MZ7      0.076533
     70 HN26       -5.5700    5.6440    0.0970 hn        1 MZ7      0.485300
     71 H291       -7.8740    5.9790   -1.6710 hc        1 MZ7      0.140700
     72 H292       -7.8970    4.3850   -2.5470 hc        1 MZ7      0.140700
     73 H293       -7.7390    4.4180   -0.7280 hc        1 MZ7      0.140700
     74 H321        0.4470    5.1670   -4.1820 hc        1 MZ7      0.101700
     75 H322       -0.1080    3.7270   -5.1420 hc        1 MZ7      0.101700
     76 H33        -2.3560    3.7150   -6.2280 ha        1 MZ7      0.139000
     77 H34        -3.8950    5.1400   -7.5680 ha        1 MZ7      0.169000
     78 H35        -3.8260    7.6280   -7.3320 ha        1 MZ7      0.174000
     79 H36        -2.2180    8.6850   -5.7380 ha        1 MZ7      0.169000
     80 H37        -0.6590    7.2690   -4.4150 ha        1 MZ7      0.139000
     81 H111        2.3500    0.9380   -3.3200 hn        1 MZ7      0.402800
     82 H202       -2.2240    5.6050   -3.1030 hn        1 MZ7      0.496300
     83 H262       -5.1110    4.0690   -0.2060 hn        1 MZ7      0.485300
@<TRIPOS>BOND
     1    1    2 1   
     2    2    3 1   
     3    2    4 1   
     4    4    5 ar  
     5    4    7 ar  
     6    5    6 ar  
     7    5   41 1   
     8    6    9 ar  
     9    6   42 1   
    10    7    8 ar  
    11    7   43 1   
    12    8    9 ar  
    13    8   11 1   
    14    9   10 1   
    15   10   12 2   
    16   11   12 1   
    17   12   44 1   
    18   13   14 1   
    19   13   19 1   
    20   13   81 1   
    21   14   15 1   
    22   14   45 1   
    23   14   46 1   
    24   15   16 1   
    25   15   47 1   
    26   15   48 1   
    27   16   17 1   
    28   16   49 1   
    29   16   50 1   
    30   17   18 1   
    31   17   51 1   
    32   17   52 1   
    33   18   53 1   
    34   18   54 1   
    35   18   55 1   
    36   19   20 1   
    37   19   56 1   
    38   19   57 1   
    39   20   21 1   
    40   20   22 1   
    41   20   58 1   
    42   21   59 1   
    43   22   23 1   
    44   22   34 1   
    45   22   60 1   
    46   23   24 1   
    47   23   61 1   
    48   23   82 1   
    49   24   25 2   
    50   24   26 1   
    51   26   27 1   
    52   26   30 1   
    53   26   62 1   
    54   27   28 1   
    55   27   29 1   
    56   27   63 1   
    57   28   64 1   
    58   28   65 1   
    59   28   66 1   
    60   29   67 1   
    61   29   68 1   
    62   29   69 1   
    63   30   31 1   
    64   30   70 1   
    65   30   83 1   
    66   31   32 2   
    67   31   33 1   
    68   33   71 1   
    69   33   72 1   
    70   33   73 1   
    71   34   35 1   
    72   34   74 1   
    73   34   75 1   
    74   35   36 ar  
    75   35   40 ar  
    76   36   37 ar  
    77   36   76 1   
    78   37   38 ar  
    79   37   77 1   
    80   38   39 ar  
    81   38   78 1   
    82   39   40 ar  
    83   39   79 1   
    84   40   80 1   
@<TRIPOS>SUBSTRUCTURE
     1 MZ7         1 TEMP              0 ****  ****    0 ROOT
