@<TRIPOS>MOLECULE
MZ8
   69    62     1     0     0
SMALL
bcc


@<TRIPOS>ATOM
      1 O9          1.1870   -3.5800    0.0690 o         1 MZ8     -0.931000
      2 S8          1.0170   -2.2940    0.6910 ss        1 MZ8      2.837000
      3 O10        -0.3980   -2.0940    0.5330 o         1 MZ8     -0.931000
      4 C5          1.4750   -2.3440    2.4080 c1        1 MZ8     -0.827000
      5 C4          0.7620   -1.6570    3.3880 c1        1 MZ8      0.058000
      6 C3          1.0180   -1.9000    4.7340 c1        1 MZ8     -0.365000
      7 S1          0.4910   -1.2370    6.0210 s         1 MZ8      0.517000
      8 C1          1.2440   -1.8650    7.2070 c1        1 MZ8     -0.306000
      9 N1          2.1530   -2.8290    6.6870 n2        1 MZ8     -0.105000
     10 C2          2.0100   -2.8530    5.1090 c1        1 MZ8     -0.008000
     11 C7          2.7190   -3.5360    4.1310 c1        1 MZ8     -0.104000
     12 C6          2.4600   -3.2900    2.7810 c2        1 MZ8     -0.045000
     13 N11         1.8880   -1.1160   -0.1060 n2        1 MZ8     -0.823000
     14 C12         3.2760   -0.8920    0.2390 c3        1 MZ8     -0.025000
     15 C13         3.4980   -1.2450    1.6980 c3        1 MZ8     -0.132000
     16 C14         4.8490   -1.9020    1.8580 c3        1 MZ8     -0.214500
     17 C15         3.4490    0.0020    2.5270 c3        1 MZ8     -0.214500
     18 C16         1.3150   -0.4540   -1.2680 c3        1 MZ8     -0.063000
     19 C17         0.4810    0.7390   -0.8160 c3        1 MZ8     -0.015000
     20 O18         1.3280    1.7820   -0.4340 oh        1 MZ8     -0.336000
     21 C19        -0.4060    1.2010   -1.9570 c3        1 MZ8      0.044000
     22 C32         0.1600    2.4740   -2.5550 c3        1 MZ8     -0.133000
     23 C38        -0.3600    2.6440   -3.9810 c2        1 MZ8     -0.078000
     24 C33         0.1190    1.8250   -4.9910 c2        1 MZ8     -0.122000
     25 C34        -0.2320    2.0720   -6.3100 c1        1 MZ8     -0.124000
     26 C35        -1.0620    3.1370   -6.6200 c1        1 MZ8     -0.128500
     27 C36        -1.5430    3.9580   -5.6110 c1        1 MZ8     -0.128500
     28 C37        -1.1920    3.7120   -4.2910 c1        1 MZ8     -0.130000
     29 N20        -1.7160    1.4510   -1.4670 n         1 MZ8     -0.358000
     30 C21        -2.7100    0.4340   -1.5440 c2        1 MZ8      0.351000
     31 O22        -2.4960   -0.5770   -2.1850 o         1 MZ8     -0.395000
     32 C22        -4.0090    0.5740   -0.7520 c2        1 MZ8     -0.084000
     33 C23        -4.0130    1.2570    0.4560 c2        1 MZ8     -0.143000
     34 C24        -5.1600    1.2820    1.2340 c1        1 MZ8     -0.097000
     35 C25        -6.3010    0.6230    0.8070 c1        1 MZ8     -0.195000
     36 C26        -6.2980   -0.0600   -0.3990 c1        1 MZ8      0.073000
     37 O27        -7.4520   -0.7560   -0.8170 o         1 MZ8     -0.246000
     38 C27        -5.1520   -0.0850   -1.1780 c2        1 MZ8     -0.107000
     39 H4          0.0380   -1.0520    3.1300 ha        1 MZ8      0.173000
     40 H1          1.1570   -1.6050    8.1450 DU        1 MZ8      0.193000
     41 H7          3.3970   -4.1880    4.3860 ha        1 MZ8      0.158000
     42 H6          2.9230   -3.8070    2.0940 ha        1 MZ8      0.165000
     43 H121        3.8470   -1.4560   -0.3240 h1        1 MZ8      0.101000
     44 H122        3.5030    0.0540    0.0930 h1        1 MZ8      0.101000
     45 H13         2.8070   -1.8530    1.9900 hc        1 MZ8      0.092000
     46 H141        4.9220   -2.6590    1.2350 hc        1 MZ8      0.078500
     47 H142        5.5530   -1.2510    1.6650 hc        1 MZ8      0.078500
     48 H143        4.9470   -2.2250    2.7760 hc        1 MZ8      0.078500
     49 H151        4.0320    0.6700    2.1390 hc        1 MZ8      0.078500
     50 H152        3.7430   -0.2000    3.4360 hc        1 MZ8      0.078500
     51 H153        2.5410    0.3400    2.5490 hc        1 MZ8      0.078500
     52 H161        2.0310   -0.1470   -1.8530 h1        1 MZ8      0.114000
     53 H162        0.7470   -1.0830   -1.7520 h1        1 MZ8      0.114000
     54 H17        -0.0730    0.4780   -0.0590 h1        1 MZ8      0.100000
     55 HO18        1.1440    2.0230    0.3980 ho        1 MZ8      0.208000
     56 H19        -0.4430    0.5070   -2.6440 h1        1 MZ8      0.122000
     57 H321        1.1340    2.4220   -2.5680 hc        1 MZ8      0.106000
     58 H322       -0.1170    3.2390   -2.0140 hc        1 MZ8      0.106000
     59 H33         0.7050    1.0740   -4.7740 ha        1 MZ8      0.137000
     60 H34         0.1070    1.4930   -7.0210 ha        1 MZ8      0.135000
     61 H35        -1.3080    3.3090   -7.5470 ha        1 MZ8      0.131500
     62 H36        -2.1270    4.7070   -5.8290 ha        1 MZ8      0.131500
     63 H37        -1.5320    4.2930   -3.5770 ha        1 MZ8      0.128000
     64 HN20       -1.9390    2.2840   -1.1650 hn        1 MZ8      0.237000
     65 H23        -3.2080    1.7220    0.7570 ha        1 MZ8      0.140000
     66 H24        -5.1630    1.7640    2.0860 ha        1 MZ8      0.139000
     67 H25        -7.1090    0.6410    1.3560 ha        1 MZ8      0.138000
     68 HO27       -7.5120   -1.5260   -0.3720 ho        1 MZ8      0.220000
     69 H27        -5.1500   -0.5680   -2.0300 ha        1 MZ8      0.171000
@<TRIPOS>BOND
     1    1    2 1   
     2    2    3 1   
     3    4    5 1   
     4    4   12 1   
     5    5   39 1   
     6    6   10 1   
     7    7    8 1   
     8    8    9 1   
     9    9   10 1   
    10   11   12 1   
    11   11   41 1   
    12   12   42 1   
    13   13   14 1   
    14   13   18 1   
    15   14   15 1   
    16   14   43 1   
    17   14   44 1   
    18   15   16 1   
    19   15   17 1   
    20   15   45 1   
    21   16   46 1   
    22   16   47 1   
    23   16   48 1   
    24   17   49 1   
    25   17   50 1   
    26   17   51 1   
    27   18   19 1   
    28   18   52 1   
    29   18   53 1   
    30   19   20 1   
    31   19   21 1   
    32   19   54 1   
    33   20   55 1   
    34   21   22 1   
    35   21   29 1   
    36   21   56 1   
    37   22   23 1   
    38   22   57 1   
    39   22   58 1   
    40   23   24 1   
    41   23   28 1   
    42   24   25 1   
    43   24   59 1   
    44   25   60 1   
    45   26   27 1   
    46   26   61 1   
    47   27   62 1   
    48   28   63 1   
    49   29   30 1   
    50   29   64 1   
    51   30   31 1   
    52   30   32 1   
    53   32   33 1   
    54   32   38 1   
    55   33   34 1   
    56   33   65 1   
    57   34   66 1   
    58   35   36 1   
    59   35   67 1   
    60   36   38 1   
    61   37   68 1   
    62   38   69 1   
@<TRIPOS>SUBSTRUCTURE
     1 MZ8         1 TEMP              0 ****  ****    0 ROOT
