@<TRIPOS>MOLECULE
MZ8
   71    73     1     0     0
SMALL
bcc


@<TRIPOS>ATOM
      1 O9         -0.5840   -0.7110   -1.8670 o         1 MZ8     -0.455400
      2 S8          0.4270   -0.5040   -0.9840 s4        1 MZ8      1.685300
      3 O10         0.4060    0.5690   -0.1370 o         1 MZ8     -0.455400
      4 C5          1.4330   -1.6400   -0.7080 ca        1 MZ8     -0.640500
      5 C4          2.3900   -1.5840    0.3350 ca        1 MZ8      0.130000
      6 C3          3.2290   -2.6460    0.5920 ca        1 MZ8     -0.200100
      7 S1          4.4290   -2.8580    1.7680 ss        1 MZ8      0.168900
      8 C1          4.7630   -4.4180    1.1820 cc        1 MZ8      0.401100
      9 N1          4.0430   -4.8410    0.1420 nd        1 MZ8     -0.508100
     10 C2          3.1490   -3.8510   -0.2230 ca        1 MZ8      0.219400
     11 C7          2.1970   -3.9140   -1.2740 ca        1 MZ8     -0.078000
     12 C6          1.3760   -2.8420   -1.4960 ca        1 MZ8     -0.025000
     13 N11         1.6730    0.7540   -2.6100 n3        1 MZ8     -0.909200
     14 C12         2.9420    1.1790   -2.0100 c3        1 MZ8      0.117800
     15 C13         4.1220    1.3630   -2.9740 c3        1 MZ8     -0.085700
     16 C14         5.2950    1.9290   -2.1990 c3        1 MZ8     -0.101600
     17 C15         4.5070    0.0610   -3.6420 c3        1 MZ8     -0.101600
     18 C16         0.9460    1.8490   -3.2640 c3        1 MZ8      0.105800
     19 C17        -0.0130    2.6240   -2.3370 c3        1 MZ8      0.119100
     20 O18         0.6960    3.3520   -1.3500 oh        1 MZ8     -0.614800
     21 C19        -0.8310    3.6540   -3.1660 c3        1 MZ8      0.139500
     22 C32         0.0690    4.5220   -4.0610 c3        1 MZ8     -0.053100
     23 C38        -0.6710    5.6430   -4.7010 ca        1 MZ8     -0.173300
     24 C33        -1.4900    5.4050   -5.8110 ca        1 MZ8     -0.131000
     25 C34        -2.1410    6.4640   -6.4410 ca        1 MZ8     -0.113500
     26 C35        -1.9760    7.7670   -5.9700 ca        1 MZ8     -0.092000
     27 C36        -1.1570    8.0100   -4.8660 ca        1 MZ8     -0.113500
     28 C37        -0.5060    6.9530   -4.2320 ca        1 MZ8     -0.131000
     29 N20        -1.6600    4.5240   -2.2570 n4        1 MZ8     -0.680800
     30 C21        -2.9500    3.8850   -1.7810 c         1 MZ8      0.582700
     31 O22        -2.9770    2.6610   -1.7920 o         1 MZ8     -0.451100
     32 C22        -4.0130    4.8100   -1.3810 ca        1 MZ8     -0.172600
     33 C23        -3.7630    6.1250   -0.9570 ca        1 MZ8     -0.139000
     34 C24        -4.8270    6.9390   -0.5770 ca        1 MZ8     -0.075000
     35 C25        -6.1380    6.4650   -0.6160 ca        1 MZ8     -0.140000
     36 C26        -6.3830    5.1480   -1.0350 ca        1 MZ8      0.145100
     37 O27        -7.6300    4.5930   -1.1040 oh        1 MZ8     -0.468100
     38 C27        -5.3200    4.3070   -1.4160 ca        1 MZ8     -0.080000
     39 H4          2.4470   -0.6690    0.9580 ha        1 MZ8      0.169000
     40 H1          5.5340   -5.0730    1.6230 h5        1 MZ8      0.108800
     41 H7          2.1290   -4.8290   -1.8910 ha        1 MZ8      0.203000
     42 H6          0.6220   -2.8970   -2.3050 ha        1 MZ8      0.174000
     43 H121        3.2190    0.3870   -1.2550 h1        1 MZ8      0.068200
     44 H122        2.7730    2.1490   -1.4600 h1        1 MZ8      0.068200
     45 H13         3.8330    2.1060   -3.7700 hc        1 MZ8      0.061700
     46 H141        5.0220    2.9000   -1.7200 hc        1 MZ8      0.050867
     47 H142        6.1560    2.1060   -2.8890 hc        1 MZ8      0.050867
     48 H143        5.6240    1.2170   -1.4030 hc        1 MZ8      0.050867
     49 H151        4.6970   -0.7360   -2.8840 hc        1 MZ8      0.050867
     50 H152        5.4450    0.2040   -4.2360 hc        1 MZ8      0.050867
     51 H153        3.7130   -0.2910   -4.3440 hc        1 MZ8      0.050867
     52 H161        1.6810    2.5830   -3.7060 h1        1 MZ8      0.089700
     53 H162        0.3250    1.4150   -4.1010 h1        1 MZ8      0.089700
     54 H17        -0.7410    1.9060   -1.8540 h1        1 MZ8      0.072700
     55 HO18        0.8150    2.7720   -0.5820 ho        1 MZ8      0.450000
     56 H19        -1.5550    3.0750   -3.8160 hx        1 MZ8      0.117700
     57 H321        0.4840    3.8540   -4.8650 hc        1 MZ8      0.089200
     58 H322        0.9320    4.9100   -3.4540 hc        1 MZ8      0.089200
     59 H33        -1.6040    4.3820   -6.2030 ha        1 MZ8      0.136500
     60 H34        -2.7760    6.2720   -7.3220 ha        1 MZ8      0.160000
     61 H35        -2.4810    8.6060   -6.4780 ha        1 MZ8      0.164000
     62 H36        -1.0110    9.0410   -4.5050 ha        1 MZ8      0.160000
     63 H37         0.1710    7.1570   -3.3880 ha        1 MZ8      0.136500
     64 HN20       -1.0880    4.7660   -1.4360 hn        1 MZ8      0.476800
     65 H23        -2.7430    6.5300   -0.8870 ha        1 MZ8      0.130000
     66 H24        -4.6330    7.9700   -0.2360 ha        1 MZ8      0.171000
     67 H25        -6.9740    7.1180   -0.3160 ha        1 MZ8      0.174000
     68 HO27       -8.2840    5.2490   -0.8110 ho        1 MZ8      0.450000
     69 H27        -5.5320    3.2720   -1.7320 ha        1 MZ8      0.185000
     70 H111        1.8750    0.0630   -3.3230 hn        1 MZ8      0.402800
     71 H202       -1.8910    5.3970   -2.7620 hn        1 MZ8      0.476800
@<TRIPOS>BOND
     1    1    2 1   
     2    2    3 1   
     3    2    4 1   
     4    4    5 ar  
     5    4   12 ar  
     6    5    6 ar  
     7    5   39 1   
     8    6    7 1   
     9    6   10 ar  
    10    7    8 1   
    11    8    9 2   
    12    8   40 1   
    13    9   10 1   
    14   10   11 ar  
    15   11   12 ar  
    16   11   41 1   
    17   12   42 1   
    18   13   14 1   
    19   13   18 1   
    20   13   70 1   
    21   14   15 1   
    22   14   43 1   
    23   14   44 1   
    24   15   16 1   
    25   15   17 1   
    26   15   45 1   
    27   16   46 1   
    28   16   47 1   
    29   16   48 1   
    30   17   49 1   
    31   17   50 1   
    32   17   51 1   
    33   18   19 1   
    34   18   52 1   
    35   18   53 1   
    36   19   20 1   
    37   19   21 1   
    38   19   54 1   
    39   20   55 1   
    40   21   22 1   
    41   21   29 1   
    42   21   56 1   
    43   22   23 1   
    44   22   57 1   
    45   22   58 1   
    46   23   24 ar  
    47   23   28 ar  
    48   24   25 ar  
    49   24   59 1   
    50   25   26 ar  
    51   25   60 1   
    52   26   27 ar  
    53   26   61 1   
    54   27   28 ar  
    55   27   62 1   
    56   28   63 1   
    57   29   30 1   
    58   29   64 1   
    59   29   71 1   
    60   30   31 2   
    61   30   32 1   
    62   32   33 ar  
    63   32   38 ar  
    64   33   34 ar  
    65   33   65 1   
    66   34   35 ar  
    67   34   66 1   
    68   35   36 ar  
    69   35   67 1   
    70   36   37 1   
    71   36   38 ar  
    72   37   68 1   
    73   38   69 1   
@<TRIPOS>SUBSTRUCTURE
     1 MZ8         1 TEMP              0 ****  ****    0 ROOT
