@<TRIPOS>MOLECULE
MZ8
   71    73     1     0     0
SMALL
bcc


@<TRIPOS>ATOM
      1 O9         -0.4740   -0.5550   -2.7040 o         1 MZ8     -0.445900
      2 S8          0.2420   -0.6190   -1.5480 s4        1 MZ8      1.680300
      3 O10        -0.0400    0.1970   -0.4960 o         1 MZ8     -0.445900
      4 C5          1.1790   -1.8250   -1.3150 ca        1 MZ8     -0.637500
      5 C4          1.8260   -2.0580   -0.0770 ca        1 MZ8      0.128000
      6 C3          2.6100   -3.1740    0.1200 ca        1 MZ8     -0.199100
      7 S1          3.4670   -3.7070    1.4790 ss        1 MZ8      0.166900
      8 C1          4.0010   -5.0820    0.6340 cc        1 MZ8      0.399100
      9 N1          3.5950   -5.2130   -0.6290 nd        1 MZ8     -0.509100
     10 C2          2.7890   -4.1360   -0.9590 ca        1 MZ8      0.216400
     11 C7          2.1480   -3.9080   -2.2050 ca        1 MZ8     -0.079000
     12 C6          1.3740   -2.7900   -2.3620 ca        1 MZ8     -0.026000
     13 N11         1.8750    0.9000   -2.4540 n7        1 MZ8     -0.904200
     14 C12         2.8060    1.3400   -1.4150 c3        1 MZ8      0.111800
     15 C13         4.1140    1.9820   -1.8950 c3        1 MZ8     -0.081700
     16 C14         4.9400    2.3600   -0.6820 c3        1 MZ8     -0.104100
     17 C15         4.8950    1.0590   -2.8040 c3        1 MZ8     -0.104100
     18 C16         1.2360    1.9770   -3.2130 c3        1 MZ8      0.099800
     19 C17         0.4260    2.9740   -2.3660 c3        1 MZ8      0.112100
     20 O18         1.2290    3.9150   -1.6860 oh        1 MZ8     -0.595800
     21 C19        -0.6050    3.7130   -3.2660 c3        1 MZ8      0.097500
     22 C32         0.0740    4.4280   -4.4450 c3        1 MZ8     -0.052100
     23 C38        -0.8830    5.2510   -5.2310 ca        1 MZ8     -0.170300
     24 C33        -1.7420    4.6430   -6.1550 ca        1 MZ8     -0.131000
     25 C34        -2.6080    5.4200   -6.9220 ca        1 MZ8     -0.110500
     26 C35        -2.6190    6.8080   -6.7760 ca        1 MZ8     -0.090000
     27 C36        -1.7600    7.4190   -5.8590 ca        1 MZ8     -0.110500
     28 C37        -0.8950    6.6440   -5.0890 ca        1 MZ8     -0.131000
     29 N20        -1.4000    4.6880   -2.4400 ny        1 MZ8     -0.678800
     30 C21        -2.5670    4.0690   -1.6920 c         1 MZ8      0.586700
     31 O22        -2.5660    2.8460   -1.6170 o         1 MZ8     -0.450100
     32 C22        -3.5600    5.0080   -1.1700 ca        1 MZ8     -0.172600
     33 C23        -3.2840    6.3640   -0.9300 ca        1 MZ8     -0.138000
     34 C24        -4.2820    7.1900   -0.4180 ca        1 MZ8     -0.075000
     35 C25        -5.5540    6.6880   -0.1440 ca        1 MZ8     -0.139000
     36 C26        -5.8240    5.3310   -0.3800 ca        1 MZ8      0.144100
     37 O27        -7.0370    4.7460   -0.1400 oh        1 MZ8     -0.469100
     38 C27        -4.8270    4.4790   -0.8910 ca        1 MZ8     -0.079000
     39 H4          1.6840   -1.3270    0.7450 ha        1 MZ8      0.171000
     40 H1          4.6540   -5.8490    1.0860 h5        1 MZ8      0.107800
     41 H7          2.2780   -4.6390   -3.0230 ha        1 MZ8      0.201000
     42 H6          0.8590   -2.6200   -3.3270 ha        1 MZ8      0.171000
     43 H121        3.0620    0.4220   -0.8090 h1        1 MZ8      0.078700
     44 H122        2.2700    2.0690   -0.7400 h1        1 MZ8      0.078700
     45 H13         3.8640    2.9230   -2.4620 hc        1 MZ8      0.042700
     46 H141        4.3610    3.0320   -0.0030 hc        1 MZ8      0.052200
     47 H142        5.2440    1.4500   -0.1110 hc        1 MZ8      0.052200
     48 H143        5.8660    2.8960   -1.0040 hc        1 MZ8      0.052200
     49 H151        4.3920    0.9410   -3.7940 hc        1 MZ8      0.052200
     50 H152        5.0170    0.0510   -2.3390 hc        1 MZ8      0.052200
     51 H153        5.9150    1.4800   -2.9890 hc        1 MZ8      0.052200
     52 H161        0.5320    1.4800   -3.9460 h1        1 MZ8      0.085700
     53 H162        2.0060    2.5560   -3.8030 h1        1 MZ8      0.085700
     54 H17        -0.1330    2.4390   -1.5380 h1        1 MZ8      0.118700
     55 HO18        1.9480    4.1990   -2.2690 ho        1 MZ8      0.429000
     56 H19        -1.3350    2.9500   -3.6730 hx        1 MZ8      0.126700
     57 H321        0.5150    3.6330   -5.1080 hc        1 MZ8      0.079700
     58 H322        0.9200    5.0640   -4.0680 hc        1 MZ8      0.079700
     59 H33        -1.7220    3.5510   -6.2910 ha        1 MZ8      0.134500
     60 H34        -3.2750    4.9380   -7.6550 ha        1 MZ8      0.161000
     61 H35        -3.2950    7.4230   -7.3930 ha        1 MZ8      0.165000
     62 H36        -1.7550    8.5160   -5.7570 ha        1 MZ8      0.161000
     63 H37        -0.1920    7.1380   -4.4010 ha        1 MZ8      0.134500
     64 HN20       -0.7670    5.1210   -1.7530 hn        1 MZ8      0.475300
     65 H23        -2.2900    6.7970   -1.1100 ha        1 MZ8      0.129000
     66 H24        -4.0640    8.2540   -0.2230 ha        1 MZ8      0.171000
     67 H25        -6.3380    7.3500    0.2590 ha        1 MZ8      0.174000
     68 HO27       -7.6440    5.4150    0.2180 ho        1 MZ8      0.450000
     69 H27        -5.0570    3.4130   -1.0600 ha        1 MZ8      0.184000
     70 H111        2.3880    0.3360   -3.1220 hn        1 MZ8      0.402800
     71 H202       -1.7660    5.4280   -3.0620 hn        1 MZ8      0.475300
@<TRIPOS>BOND
     1    1    2 1   
     2    2    3 1   
     3    2    4 1   
     4    4    5 ar  
     5    4   12 ar  
     6    5    6 ar  
     7    5   39 1   
     8    6    7 1   
     9    6   10 ar  
    10    7    8 1   
    11    8    9 2   
    12    8   40 1   
    13    9   10 1   
    14   10   11 ar  
    15   11   12 ar  
    16   11   41 1   
    17   12   42 1   
    18   13   14 1   
    19   13   18 1   
    20   13   70 1   
    21   14   15 1   
    22   14   43 1   
    23   14   44 1   
    24   15   16 1   
    25   15   17 1   
    26   15   45 1   
    27   16   46 1   
    28   16   47 1   
    29   16   48 1   
    30   17   49 1   
    31   17   50 1   
    32   17   51 1   
    33   18   19 1   
    34   18   52 1   
    35   18   53 1   
    36   19   20 1   
    37   19   21 1   
    38   19   54 1   
    39   20   55 1   
    40   21   22 1   
    41   21   29 1   
    42   21   56 1   
    43   22   23 1   
    44   22   57 1   
    45   22   58 1   
    46   23   24 ar  
    47   23   28 ar  
    48   24   25 ar  
    49   24   59 1   
    50   25   26 ar  
    51   25   60 1   
    52   26   27 ar  
    53   26   61 1   
    54   27   28 ar  
    55   27   62 1   
    56   28   63 1   
    57   29   30 1   
    58   29   64 1   
    59   29   71 1   
    60   30   31 2   
    61   30   32 1   
    62   32   33 ar  
    63   32   38 ar  
    64   33   34 ar  
    65   33   65 1   
    66   34   35 ar  
    67   34   66 1   
    68   35   36 ar  
    69   35   67 1   
    70   36   37 1   
    71   36   38 ar  
    72   37   68 1   
    73   38   69 1   
@<TRIPOS>SUBSTRUCTURE
     1 MZ8         1 TEMP              0 ****  ****    0 ROOT
