@<TRIPOS>MOLECULE
MZ8
   71    73     1     0     0
SMALL
bcc


@<TRIPOS>ATOM
      1 O9         -0.5820   -0.7000   -1.9380 o         1 MZ8     -0.455400
      2 S8          0.4040   -0.5010   -1.0240 s4        1 MZ8      1.685300
      3 O10         0.3570    0.5620   -0.1660 o         1 MZ8     -0.455400
      4 C5          1.4030   -1.6390   -0.7330 ca        1 MZ8     -0.640500
      5 C4          2.3310   -1.5940    0.3370 ca        1 MZ8      0.130000
      6 C3          3.1640   -2.6570    0.6060 ca        1 MZ8     -0.200100
      7 S1          4.3300   -2.8810    1.8130 ss        1 MZ8      0.168900
      8 C1          4.6830   -4.4340    1.2190 cc        1 MZ8      0.401100
      9 N1          3.9940   -4.8470    0.1550 nd        1 MZ8     -0.508100
     10 C2          3.1080   -3.8530   -0.2240 ca        1 MZ8      0.219400
     11 C7          2.1870   -3.9050   -1.3030 ca        1 MZ8     -0.078000
     12 C6          1.3710   -2.8320   -1.5360 ca        1 MZ8     -0.025000
     13 N11         1.6930    0.7770   -2.6010 n3        1 MZ8     -0.909200
     14 C12         2.9440    1.1960   -1.9610 c3        1 MZ8      0.117800
     15 C13         4.1510    1.3920   -2.8890 c3        1 MZ8     -0.085700
     16 C14         5.3010    1.9500   -2.0750 c3        1 MZ8     -0.101600
     17 C15         4.5560    0.0990   -3.5610 c3        1 MZ8     -0.101600
     18 C16         0.9830    1.8780   -3.2620 c3        1 MZ8      0.105800
     19 C17        -0.0020    2.6410   -2.3540 c3        1 MZ8      0.119100
     20 O18         0.6770    3.3590   -1.3390 oh        1 MZ8     -0.614800
     21 C19        -0.7980    3.6810   -3.1940 c3        1 MZ8      0.139500
     22 C32         0.1260    4.5610   -4.0510 c3        1 MZ8     -0.053100
     23 C38        -0.5960    5.6880   -4.6980 ca        1 MZ8     -0.173300
     24 C33        -1.3830    5.4630   -5.8350 ca        1 MZ8     -0.131000
     25 C34        -2.0180    6.5300   -6.4700 ca        1 MZ8     -0.113500
     26 C35        -1.8670    7.8270   -5.9780 ca        1 MZ8     -0.092000
     27 C36        -1.0810    8.0570   -4.8480 ca        1 MZ8     -0.113500
     28 C37        -0.4470    6.9930   -4.2090 ca        1 MZ8     -0.131000
     29 N20        -1.6540    4.5390   -2.2990 n4        1 MZ8     -0.680800
     30 C21        -2.9570    3.8930   -1.8670 c         1 MZ8      0.582700
     31 O22        -2.9810    2.6680   -1.8930 o         1 MZ8     -0.451100
     32 C22        -4.0320    4.8110   -1.4890 ca        1 MZ8     -0.172600
     33 C23        -3.7970    6.1210   -1.0420 ca        1 MZ8     -0.139000
     34 C24        -4.8740    6.9290   -0.6850 ca        1 MZ8     -0.075000
     35 C25        -6.1830    6.4540   -0.7700 ca        1 MZ8     -0.140000
     36 C26        -6.4120    5.1420   -1.2120 ca        1 MZ8      0.145100
     37 O27        -7.6560    4.5860   -1.3250 oh        1 MZ8     -0.468100
     38 C27        -5.3370    4.3070   -1.5700 ca        1 MZ8     -0.080000
     39 H4          2.3680   -0.6860    0.9720 ha        1 MZ8      0.169000
     40 H1          5.4420   -5.0930    1.6750 h5        1 MZ8      0.108800
     41 H7          2.1380   -4.8140   -1.9320 ha        1 MZ8      0.203000
     42 H6          0.6390   -2.8790   -2.3670 ha        1 MZ8      0.174000
     43 H121        2.7590    2.1590   -1.4040 h1        1 MZ8      0.068200
     44 H122        3.2010    0.3950   -1.2070 h1        1 MZ8      0.068200
     45 H13         3.8830    2.1440   -3.6840 hc        1 MZ8      0.061700
     46 H141        6.1800    2.1360   -2.7390 hc        1 MZ8      0.050867
     47 H142        5.6090    1.2300   -1.2790 hc        1 MZ8      0.050867
     48 H143        5.0130    2.9160   -1.5930 hc        1 MZ8      0.050867
     49 H151        5.5100    0.2490   -4.1270 hc        1 MZ8      0.050867
     50 H152        3.7820   -0.2460   -4.2880 hc        1 MZ8      0.050867
     51 H153        4.7260   -0.7070   -2.8060 hc        1 MZ8      0.050867
     52 H161        0.3870    1.4540   -4.1210 h1        1 MZ8      0.089700
     53 H162        1.7300    2.6180   -3.6750 h1        1 MZ8      0.089700
     54 H17        -0.7430    1.9180   -1.9000 h1        1 MZ8      0.072700
     55 HO18        0.7750    2.7700   -0.5750 ho        1 MZ8      0.450000
     56 H19        -1.5020    3.1090   -3.8710 hx        1 MZ8      0.117700
     57 H321        0.9710    4.9410   -3.4150 hc        1 MZ8      0.089200
     58 H322        0.5650    3.9030   -4.8520 hc        1 MZ8      0.089200
     59 H33        -1.4860    4.4460   -6.2420 ha        1 MZ8      0.136500
     60 H34        -2.6270    6.3490   -7.3700 ha        1 MZ8      0.160000
     61 H35        -2.3580    8.6720   -6.4890 ha        1 MZ8      0.164000
     62 H36        -0.9450    9.0840   -4.4700 ha        1 MZ8      0.160000
     63 H37         0.2060    7.1880   -3.3440 ha        1 MZ8      0.136500
     64 HN20       -1.8720    5.4180   -2.7990 hn        1 MZ8      0.476800
     65 H23        -2.7810    6.5270   -0.9370 ha        1 MZ8      0.130000
     66 H24        -4.6920    7.9570   -0.3270 ha        1 MZ8      0.171000
     67 H25        -7.0290    7.1030   -0.4880 ha        1 MZ8      0.174000
     68 HO27       -8.3200    5.2380   -1.0440 ho        1 MZ8      0.450000
     69 H27        -5.5370    3.2750   -1.9050 ha        1 MZ8      0.185000
     70 H111        1.9160    0.0950   -3.3160 hn        1 MZ8      0.402800
     71 H202       -1.1070    4.7710   -1.4580 hn        1 MZ8      0.476800
@<TRIPOS>BOND
     1    1    2 1   
     2    2    3 1   
     3    2    4 1   
     4    4    5 ar  
     5    4   12 ar  
     6    5    6 ar  
     7    5   39 1   
     8    6    7 1   
     9    6   10 ar  
    10    7    8 1   
    11    8    9 2   
    12    8   40 1   
    13    9   10 1   
    14   10   11 ar  
    15   11   12 ar  
    16   11   41 1   
    17   12   42 1   
    18   13   14 1   
    19   13   18 1   
    20   13   70 1   
    21   14   15 1   
    22   14   43 1   
    23   14   44 1   
    24   15   16 1   
    25   15   17 1   
    26   15   45 1   
    27   16   46 1   
    28   16   47 1   
    29   16   48 1   
    30   17   49 1   
    31   17   50 1   
    32   17   51 1   
    33   18   19 1   
    34   18   52 1   
    35   18   53 1   
    36   19   20 1   
    37   19   21 1   
    38   19   54 1   
    39   20   55 1   
    40   21   22 1   
    41   21   29 1   
    42   21   56 1   
    43   22   23 1   
    44   22   57 1   
    45   22   58 1   
    46   23   24 ar  
    47   23   28 ar  
    48   24   25 ar  
    49   24   59 1   
    50   25   26 ar  
    51   25   60 1   
    52   26   27 ar  
    53   26   61 1   
    54   27   28 ar  
    55   27   62 1   
    56   28   63 1   
    57   29   30 1   
    58   29   64 1   
    59   29   71 1   
    60   30   31 2   
    61   30   32 1   
    62   32   33 ar  
    63   32   38 ar  
    64   33   34 ar  
    65   33   65 1   
    66   34   35 ar  
    67   34   66 1   
    68   35   36 ar  
    69   35   67 1   
    70   36   37 1   
    71   36   38 ar  
    72   37   68 1   
    73   38   69 1   
@<TRIPOS>SUBSTRUCTURE
     1 MZ8         1 TEMP              0 ****  ****    0 ROOT
