@<TRIPOS>MOLECULE
MZ8
   69    72     1     0     0
SMALL
bcc


@<TRIPOS>ATOM
      1 O9         -1.2180    2.5690   -0.7810 o         1 MZ8     -0.650300
      2 S8         -2.3130    2.0570   -0.0560 sy        1 MZ8      1.504200
      3 O10        -3.3300    2.9760    0.2850 o         1 MZ8     -0.650300
      4 C5         -3.0010    0.8040   -0.9640 ca        1 MZ8     -0.369500
      5 C4         -4.3470    0.4820   -0.8160 ca        1 MZ8      0.040000
      6 C3         -4.9160   -0.5230   -1.5940 ca        1 MZ8     -0.130100
      7 S1         -6.5000   -1.1220   -1.6350 ss        1 MZ8     -0.005100
      8 C1         -6.0620   -2.2430   -2.8650 cc        1 MZ8      0.364100
      9 N1         -4.8080   -2.2180   -3.2700 nd        1 MZ8     -0.524100
     10 C2         -4.1120   -1.2290   -2.5550 ca        1 MZ8      0.133400
     11 C7         -2.7530   -0.8890   -2.7100 ca        1 MZ8     -0.096000
     12 C6         -2.2240    0.1160   -1.9200 ca        1 MZ8     -0.038000
     13 N11        -1.7780    1.2940    1.2890 n3        1 MZ8     -0.800500
     14 C12        -2.2210    1.6760    2.6060 c3        1 MZ8      0.213800
     15 C13        -3.0270    0.6230    3.3850 c3        1 MZ8     -0.082700
     16 C14        -3.2290    1.1240    4.8000 c3        1 MZ8     -0.094600
     17 C15        -4.3610    0.3420    2.7300 c3        1 MZ8     -0.094600
     18 C16        -0.7150    0.3310    1.2180 c3        1 MZ8      0.193800
     19 C17         0.7070    0.9380    1.2160 c3        1 MZ8      0.080100
     20 O18         1.0080    1.6050    2.4240 oh        1 MZ8     -0.587800
     21 C19         1.7480   -0.1770    0.8980 c3        1 MZ8      0.080700
     22 C32         1.9960   -1.0380    2.1530 c3        1 MZ8     -0.052100
     23 C38         2.7770   -2.2690    1.8600 ca        1 MZ8     -0.079300
     24 C33         2.2150   -3.2960    1.0920 ca        1 MZ8     -0.121500
     25 C34         2.9390   -4.4590    0.8340 ca        1 MZ8     -0.126000
     26 C35         4.2290   -4.6070    1.3440 ca        1 MZ8     -0.129000
     27 C36         4.7940   -3.5890    2.1100 ca        1 MZ8     -0.126000
     28 C37         4.0720   -2.4240    2.3680 ca        1 MZ8     -0.121500
     29 N20         2.9670    0.3830    0.3730 n         1 MZ8     -0.558900
     30 C21         3.3460    0.2310   -0.9470 c         1 MZ8      0.679700
     31 O22         2.6840   -0.4720   -1.7380 o         1 MZ8     -0.609100
     32 C22         4.6040    0.9150   -1.3710 ca        1 MZ8     -0.098600
     33 C23         4.8990    2.2210   -0.9750 ca        1 MZ8     -0.140000
     34 C24         6.0790    2.8280   -1.4110 ca        1 MZ8     -0.104000
     35 C25         6.9690    2.1460   -2.2350 ca        1 MZ8     -0.138000
     36 C26         6.6580    0.8340   -2.6330 ca        1 MZ8      0.118100
     37 O27         7.5720    0.2080   -3.4490 oh        1 MZ8     -0.496100
     38 C27         5.4760    0.2130   -2.2080 ca        1 MZ8     -0.165000
     39 H4         -4.9660    1.0390   -0.0890 ha        1 MZ8      0.161000
     40 H1         -6.7870   -2.9430   -3.2940 h5        1 MZ8      0.067800
     41 H7         -2.1330   -1.4140   -3.4520 ha        1 MZ8      0.165000
     42 H6         -1.1660    0.4100   -2.0540 ha        1 MZ8      0.166000
     43 H121       -1.3120    1.9450    3.2220 h1        1 MZ8      0.066700
     44 H122       -2.8590    2.6050    2.5130 h1        1 MZ8      0.066700
     45 H13        -2.4410   -0.3380    3.4290 hc        1 MZ8      0.045700
     46 H141       -3.8030    2.0830    4.7990 hc        1 MZ8      0.038367
     47 H142       -3.7990    0.3720    5.3960 hc        1 MZ8      0.038367
     48 H143       -2.2460    1.3000    5.3000 hc        1 MZ8      0.038367
     49 H151       -4.9300    1.2910    2.5720 hc        1 MZ8      0.038367
     50 H152       -4.2160   -0.1540    1.7400 hc        1 MZ8      0.038367
     51 H153       -4.9720   -0.3350    3.3750 hc        1 MZ8      0.038367
     52 H161       -0.8010   -0.3890    2.0820 h1        1 MZ8      0.056700
     53 H162       -0.8380   -0.2630    0.2640 h1        1 MZ8      0.056700
     54 H17         0.7660    1.7550    0.4350 h1        1 MZ8      0.118700
     55 HO18        0.8400    0.9910    3.1500 ho        1 MZ8      0.395000
     56 H19         1.3050   -0.8450    0.0960 h1        1 MZ8      0.094700
     57 H321        2.5230   -0.4260    2.9340 hc        1 MZ8      0.051200
     58 H322        0.9960   -1.3320    2.5710 hc        1 MZ8      0.051200
     59 H33         1.2000   -3.1810    0.6840 ha        1 MZ8      0.130000
     60 H34         2.4910   -5.2590    0.2260 ha        1 MZ8      0.132500
     61 H35         4.7990   -5.5250    1.1400 ha        1 MZ8      0.132000
     62 H36         5.8110   -3.7020    2.5120 ha        1 MZ8      0.132500
     63 H37         4.5240   -1.6230    2.9720 ha        1 MZ8      0.130000
     64 HN20        3.4760    0.9940    0.9650 hn        1 MZ8      0.319500
     65 H23         4.2020    2.7880   -0.3400 ha        1 MZ8      0.141000
     66 H24         6.3070    3.8590   -1.1020 ha        1 MZ8      0.140000
     67 H25         7.9020    2.6110   -2.5820 ha        1 MZ8      0.154000
     68 HO27        7.2170   -0.6630   -3.6810 ho        1 MZ8      0.423000
     69 H27         5.2210   -0.8070   -2.5350 ha        1 MZ8      0.156000
@<TRIPOS>BOND
     1    1    2 2   
     2    2    3 2   
     3    2    4 1   
     4    2   13 1   
     5    4    5 ar  
     6    4   12 ar  
     7    5    6 ar  
     8    5   39 1   
     9    6    7 1   
    10    6   10 ar  
    11    7    8 1   
    12    8    9 2   
    13    8   40 1   
    14    9   10 1   
    15   10   11 ar  
    16   11   12 ar  
    17   11   41 1   
    18   12   42 1   
    19   13   14 1   
    20   13   18 1   
    21   14   15 1   
    22   14   43 1   
    23   14   44 1   
    24   15   16 1   
    25   15   17 1   
    26   15   45 1   
    27   16   46 1   
    28   16   47 1   
    29   16   48 1   
    30   17   49 1   
    31   17   50 1   
    32   17   51 1   
    33   18   19 1   
    34   18   52 1   
    35   18   53 1   
    36   19   20 1   
    37   19   21 1   
    38   19   54 1   
    39   20   55 1   
    40   21   22 1   
    41   21   29 1   
    42   21   56 1   
    43   22   23 1   
    44   22   57 1   
    45   22   58 1   
    46   23   24 ar  
    47   23   28 ar  
    48   24   25 ar  
    49   24   59 1   
    50   25   26 ar  
    51   25   60 1   
    52   26   27 ar  
    53   26   61 1   
    54   27   28 ar  
    55   27   62 1   
    56   28   63 1   
    57   29   30 1   
    58   29   64 1   
    59   30   31 2   
    60   30   32 1   
    61   32   33 ar  
    62   32   38 ar  
    63   33   34 ar  
    64   33   65 1   
    65   34   35 ar  
    66   34   66 1   
    67   35   36 ar  
    68   35   67 1   
    69   36   37 1   
    70   36   38 ar  
    71   37   68 1   
    72   38   69 1   
@<TRIPOS>SUBSTRUCTURE
     1 MZ8         1 TEMP              0 ****  ****    0 ROOT
