@<TRIPOS>MOLECULE
MZ9
   79    79     1     0     0
SMALL
bcc


@<TRIPOS>ATOM
      1 O22        -1.2240   -1.8620   -1.4250 o         1 MZ9     -0.428100
      2 C21        -0.6690   -1.6270   -0.3610 c         1 MZ9      0.549100
      3 C22        -0.8300   -2.3990    0.9230 c3        1 MZ9     -0.147400
      4 C23        -1.5570   -1.6430    2.0140 c3        1 MZ9     -0.214400
      5 C24        -0.6670   -0.7540    2.8490 c         1 MZ9      0.590100
      6 O25         0.3900   -0.3040    2.3820 o         1 MZ9     -0.602100
      7 C26        -1.1560   -0.4730    4.2330 c3        1 MZ9     -0.176400
      8 C27        -0.4910    0.7260    4.8580 c3        1 MZ9     -0.094100
      9 N20         0.2960   -0.4750   -0.3250 ny        1 MZ9     -0.673800
     10 C19         0.5950    0.1610   -1.6540 c3        1 MZ9      0.139500
     11 C32         1.1700    1.5720   -1.4430 c3        1 MZ9     -0.050100
     12 C38         0.2550    2.4370   -0.6510 ca        1 MZ9     -0.164300
     13 C37         0.4280    2.5700    0.7330 ca        1 MZ9     -0.130000
     14 C36        -0.4020    3.4200    1.4630 ca        1 MZ9     -0.115000
     15 C35        -1.4070    4.1430    0.8180 ca        1 MZ9     -0.097000
     16 C34        -1.5820    4.0130   -0.5600 ca        1 MZ9     -0.115000
     17 C33        -0.7540    3.1650   -1.2940 ca        1 MZ9     -0.130000
     18 C17         1.5580   -0.7300   -2.4820 c3        1 MZ9      0.103100
     19 O18         2.7100   -0.9130   -1.6750 oh        1 MZ9     -0.615800
     20 C16         1.9000   -0.0470   -3.8210 c3        1 MZ9      0.102800
     21 N11         2.2840   -0.9120   -4.9260 n7        1 MZ9     -0.906200
     22 C12         3.5990   -1.5360   -4.8040 c3        1 MZ9      0.117800
     23 C13         3.6070   -2.9840   -4.2830 c3        1 MZ9     -0.090700
     24 C14         3.1470   -3.9390   -5.3620 c3        1 MZ9     -0.103100
     25 C15         5.0100   -3.3250   -3.7960 c3        1 MZ9     -0.079400
     26 C18         5.0590   -4.6390   -3.0590 c3        1 MZ9     -0.099100
     27 S8          1.9110    0.3380   -7.0970 s4        1 MZ9      1.690300
     28 O10         0.9760   -0.6090   -7.3700 o         1 MZ9     -0.440900
     29 O9          1.6120    1.4490   -6.3720 o         1 MZ9     -0.440900
     30 C5          3.2580    0.2740   -7.8210 ca        1 MZ9     -0.694500
     31 C6          3.5880   -0.8200   -8.6880 ca        1 MZ9      0.064500
     32 C7          4.7540   -0.8620   -9.4010 ca        1 MZ9     -0.214500
     33 C4          4.2240    1.3230   -7.7250 ca        1 MZ9      0.064500
     34 C3          5.3990    1.3060   -8.4320 ca        1 MZ9     -0.214500
     35 C2          5.6870    0.2140   -9.2920 ca        1 MZ9      0.306100
     36 O19         6.7940    0.0920  -10.0400 os        1 MZ9     -0.261900
     37 C20         7.7670    1.1520  -10.0080 c3        1 MZ9      0.096700
     38 H221        0.1830   -2.7250    1.2900 hc        1 MZ9      0.119200
     39 H222       -1.4180   -3.3260    0.6600 hc        1 MZ9      0.119200
     40 H231       -2.0380   -2.4020    2.6960 hc        1 MZ9      0.108200
     41 H232       -2.3900   -1.0190    1.5920 hc        1 MZ9      0.108200
     42 H261       -0.9530   -1.3890    4.8570 hc        1 MZ9      0.089700
     43 H262       -2.2710   -0.3300    4.2070 hc        1 MZ9      0.089700
     44 H271       -0.8640    0.8640    5.9020 hc        1 MZ9      0.056367
     45 H272       -0.7150    1.6510    4.2740 hc        1 MZ9      0.056367
     46 H273        0.6180    0.5900    4.8870 hc        1 MZ9      0.056367
     47 HN20       -0.0890    0.2500    0.3140 hn        1 MZ9      0.489800
     48 H19        -0.3850    0.2350   -2.2160 hx        1 MZ9      0.119700
     49 H321        2.1770    1.4950   -0.9480 hc        1 MZ9      0.089700
     50 H322        1.3280    2.0270   -2.4590 hc        1 MZ9      0.089700
     51 H37         1.2350    2.0250    1.2500 ha        1 MZ9      0.139500
     52 H36        -0.2530    3.5290    2.5490 ha        1 MZ9      0.156500
     53 H35        -2.0530    4.8250    1.3950 ha        1 MZ9      0.161000
     54 H34        -2.3680    4.5910   -1.0730 ha        1 MZ9      0.156500
     55 H33        -0.8850    3.0820   -2.3840 ha        1 MZ9      0.139500
     56 H17         1.0610   -1.7280   -2.6660 h1        1 MZ9      0.063700
     57 HO18        3.3480   -1.4450   -2.1720 ho        1 MZ9      0.441000
     58 H161        0.9940    0.5330   -4.1670 h1        1 MZ9      0.093200
     59 H162        2.7340    0.6900   -3.6330 h1        1 MZ9      0.093200
     60 H121        4.2590   -0.8980   -4.1500 h1        1 MZ9      0.066700
     61 H122        4.0510   -1.5350   -5.8390 h1        1 MZ9      0.066700
     62 H13         2.8990   -3.0700   -3.4090 hc        1 MZ9      0.037700
     63 H141        2.1330   -3.6640   -5.7400 hc        1 MZ9      0.051033
     64 H142        3.8620   -3.9390   -6.2210 hc        1 MZ9      0.051033
     65 H143        3.0940   -4.9800   -4.9560 hc        1 MZ9      0.051033
     66 H151        5.3700   -2.5090   -3.1120 hc        1 MZ9      0.047200
     67 H152        5.7080   -3.3580   -4.6730 hc        1 MZ9      0.047200
     68 H181        4.3300   -4.6510   -2.2130 hc        1 MZ9      0.049033
     69 H182        6.0840   -4.8020   -2.6430 hc        1 MZ9      0.049033
     70 H183        4.8220   -5.4910   -3.7410 hc        1 MZ9      0.049033
     71 H6          2.8590   -1.6480   -8.7880 ha        1 MZ9      0.173500
     72 H7          4.9930   -1.7050  -10.0730 ha        1 MZ9      0.193000
     73 H4          4.0000    2.1830   -7.0630 ha        1 MZ9      0.173500
     74 H3          6.1150    2.1410   -8.3420 ha        1 MZ9      0.193000
     75 H201        7.3070    2.1040  -10.3670 h1        1 MZ9      0.083700
     76 H202        8.5460    0.7830  -10.7270 h1        1 MZ9      0.083700
     77 H203        8.1840    1.2570   -8.9790 h1        1 MZ9      0.083700
     78 H204        1.1800   -0.7940    0.1040 hn        1 MZ9      0.489800
     79 H111        1.5830   -1.6300   -5.0540 hn        1 MZ9      0.398800
@<TRIPOS>BOND
     1    1    2 2   
     2    2    3 1   
     3    2    9 1   
     4    3    4 1   
     5    3   38 1   
     6    3   39 1   
     7    4    5 1   
     8    4   40 1   
     9    4   41 1   
    10    5    6 2   
    11    5    7 1   
    12    7    8 1   
    13    7   42 1   
    14    7   43 1   
    15    8   44 1   
    16    8   45 1   
    17    8   46 1   
    18    9   10 1   
    19    9   47 1   
    20    9   78 1   
    21   10   11 1   
    22   10   18 1   
    23   10   48 1   
    24   11   12 1   
    25   11   49 1   
    26   11   50 1   
    27   12   13 ar  
    28   12   17 ar  
    29   13   14 ar  
    30   13   51 1   
    31   14   15 ar  
    32   14   52 1   
    33   15   16 ar  
    34   15   53 1   
    35   16   17 ar  
    36   16   54 1   
    37   17   55 1   
    38   18   19 1   
    39   18   20 1   
    40   18   56 1   
    41   19   57 1   
    42   20   21 1   
    43   20   58 1   
    44   20   59 1   
    45   21   22 1   
    46   21   79 1   
    47   22   23 1   
    48   22   60 1   
    49   22   61 1   
    50   23   24 1   
    51   23   25 1   
    52   23   62 1   
    53   24   63 1   
    54   24   64 1   
    55   24   65 1   
    56   25   26 1   
    57   25   66 1   
    58   25   67 1   
    59   26   68 1   
    60   26   69 1   
    61   26   70 1   
    62   27   28 1   
    63   27   29 1   
    64   27   30 1   
    65   30   31 ar  
    66   30   33 ar  
    67   31   32 ar  
    68   31   71 1   
    69   32   35 ar  
    70   32   72 1   
    71   33   34 ar  
    72   33   73 1   
    73   34   35 ar  
    74   34   74 1   
    75   35   36 1   
    76   36   37 1   
    77   37   75 1   
    78   37   76 1   
    79   37   77 1   
@<TRIPOS>SUBSTRUCTURE
     1 MZ9         1 TEMP              0 ****  ****    0 ROOT
