@<TRIPOS>MOLECULE
MZ9
   79    79     1     0     0
SMALL
bcc


@<TRIPOS>ATOM
      1 O22        -1.3840   -1.6360   -1.5830 o         1 MZ9     -0.428100
      2 C21        -0.8300   -1.5320   -0.4980 c         1 MZ9      0.549100
      3 C22        -1.0890   -2.3730    0.7250 c3        1 MZ9     -0.147400
      4 C23        -1.7630   -1.6300    1.8580 c3        1 MZ9     -0.214400
      5 C24        -0.8100   -0.8910    2.7670 c         1 MZ9      0.590100
      6 O25         0.2950   -0.5140    2.3470 o         1 MZ9     -0.602100
      7 C26        -1.2980   -0.6620    4.1600 c3        1 MZ9     -0.176400
      8 C27        -0.5340    0.4200    4.8780 c3        1 MZ9     -0.094100
      9 N20         0.2400   -0.4840   -0.3660 n4        1 MZ9     -0.673800
     10 C19         0.6260    0.2110   -1.6420 c3        1 MZ9      0.138500
     11 C32         1.3300    1.5420   -1.3230 c3        1 MZ9     -0.050100
     12 C38         0.4850    2.4330   -0.4840 ca        1 MZ9     -0.164300
     13 C37         0.6420    2.4520    0.9090 ca        1 MZ9     -0.130000
     14 C36        -0.1180    3.3250    1.6860 ca        1 MZ9     -0.115000
     15 C35        -1.0350    4.1850    1.0820 ca        1 MZ9     -0.097000
     16 C34        -1.1940    4.1700   -0.3050 ca        1 MZ9     -0.115000
     17 C33        -0.4360    3.2990   -1.0860 ca        1 MZ9     -0.130000
     18 C17         1.5160   -0.7090   -2.5190 c3        1 MZ9      0.103100
     19 O18         2.6280   -1.0590   -1.7120 oh        1 MZ9     -0.615800
     20 C16         1.9500    0.0300   -3.8010 c3        1 MZ9      0.102800
     21 N11         2.2710   -0.7880   -4.9600 n3        1 MZ9     -0.906200
     22 C12         3.5170   -1.5440   -4.8650 c3        1 MZ9      0.117800
     23 C13         3.3770   -3.0180   -4.4490 c3        1 MZ9     -0.090700
     24 C14         2.8510   -3.8470   -5.6010 c3        1 MZ9     -0.103100
     25 C15         4.7300   -3.5270   -3.9690 c3        1 MZ9     -0.079400
     26 C18         4.6390   -4.8880   -3.3290 c3        1 MZ9     -0.099100
     27 S8          2.0620    0.6380   -7.0420 s4        1 MZ9      1.690300
     28 O10         1.0530   -0.1990   -7.3990 o         1 MZ9     -0.440900
     29 O9          1.8460    1.7180   -6.2440 o         1 MZ9     -0.440900
     30 C5          3.4150    0.5040   -7.7440 ca        1 MZ9     -0.694500
     31 C6          3.6680   -0.5530   -8.6800 ca        1 MZ9      0.064500
     32 C7          4.8430   -0.6510   -9.3730 ca        1 MZ9     -0.214500
     33 C4          4.4670    1.4530   -7.5570 ca        1 MZ9      0.064500
     34 C3          5.6530    1.3800   -8.2420 ca        1 MZ9     -0.214500
     35 C2          5.8640    0.3280   -9.1720 ca        1 MZ9      0.306100
     36 O19         6.9740    0.1580   -9.9060 os        1 MZ9     -0.261900
     37 C20         8.0350    1.1230   -9.7830 c3        1 MZ9      0.096700
     38 H221       -1.7580   -3.2180    0.3880 hc        1 MZ9      0.119200
     39 H222       -0.1200   -2.8200    1.0810 hc        1 MZ9      0.119200
     40 H231       -2.3280   -2.3850    2.4770 hc        1 MZ9      0.108200
     41 H232       -2.5240   -0.9000    1.4710 hc        1 MZ9      0.108200
     42 H261       -2.3930   -0.4120    4.1300 hc        1 MZ9      0.089700
     43 H262       -1.1950   -1.6350    4.7190 hc        1 MZ9      0.089700
     44 H271       -0.6570    1.4020    4.3590 hc        1 MZ9      0.056367
     45 H272        0.5550    0.1770    4.9130 hc        1 MZ9      0.056367
     46 H273       -0.9130    0.5200    5.9250 hc        1 MZ9      0.056367
     47 HN20       -0.0860    0.2280    0.3180 hn        1 MZ9      0.489800
     48 H19        -0.3300    0.4190   -2.2110 hx        1 MZ9      0.119700
     49 H321        1.5500    2.0490   -2.3010 hc        1 MZ9      0.089700
     50 H322        2.3140    1.3330   -0.8210 hc        1 MZ9      0.089700
     51 H37         1.3820    1.7960    1.3960 ha        1 MZ9      0.139500
     52 H36         0.0190    3.3430    2.7800 ha        1 MZ9      0.156500
     53 H35        -1.6250    4.8840    1.6970 ha        1 MZ9      0.161000
     54 H34        -1.9100    4.8560   -0.7850 ha        1 MZ9      0.156500
     55 H33        -0.5520    3.3060   -2.1800 ha        1 MZ9      0.139500
     56 H17         0.9300   -1.6390   -2.7800 h1        1 MZ9      0.063700
     57 HO18        3.2220   -1.6140   -2.2370 ho        1 MZ9      0.441000
     58 H161        2.8460    0.6680   -3.5480 h1        1 MZ9      0.093200
     59 H162        1.1100    0.7180   -4.1160 h1        1 MZ9      0.093200
     60 H121        4.2220   -1.0200   -4.1580 h1        1 MZ9      0.066700
     61 H122        3.9890   -1.5130   -5.8910 h1        1 MZ9      0.066700
     62 H13         2.6460   -3.0970   -3.5940 hc        1 MZ9      0.037700
     63 H141        3.5800   -3.8560   -6.4480 hc        1 MZ9      0.051033
     64 H142        1.8760   -3.4490   -5.9730 hc        1 MZ9      0.051033
     65 H143        2.6900   -4.9030   -5.2720 hc        1 MZ9      0.051033
     66 H151        5.4410   -3.5650   -4.8360 hc        1 MZ9      0.047200
     67 H152        5.1530   -2.8000   -3.2230 hc        1 MZ9      0.047200
     68 H181        4.3370   -5.6630   -4.0740 hc        1 MZ9      0.049033
     69 H182        3.8950   -4.8890   -2.4960 hc        1 MZ9      0.049033
     70 H183        5.6350   -5.1780   -2.9110 hc        1 MZ9      0.049033
     71 H6          2.8710   -1.3040   -8.8510 ha        1 MZ9      0.173500
     72 H7          5.0230   -1.4630  -10.0990 ha        1 MZ9      0.193000
     73 H4          4.3040    2.2820   -6.8400 ha        1 MZ9      0.173500
     74 H3          6.4370    2.1380   -8.0810 ha        1 MZ9      0.193000
     75 H201        8.7960    0.7360  -10.5120 h1        1 MZ9      0.083700
     76 H202        7.6690    2.1340  -10.0820 h1        1 MZ9      0.083700
     77 H203        8.4350    1.1180   -8.7410 h1        1 MZ9      0.083700
     78 H204        1.0810   -0.9170    0.0510 hn        1 MZ9      0.489800
     79 H111        1.5070   -1.4250   -5.1480 hn        1 MZ9      0.398800
@<TRIPOS>BOND
     1    1    2 2   
     2    2    3 1   
     3    2    9 1   
     4    3    4 1   
     5    3   38 1   
     6    3   39 1   
     7    4    5 1   
     8    4   40 1   
     9    4   41 1   
    10    5    6 2   
    11    5    7 1   
    12    7    8 1   
    13    7   42 1   
    14    7   43 1   
    15    8   44 1   
    16    8   45 1   
    17    8   46 1   
    18    9   10 1   
    19    9   47 1   
    20    9   78 1   
    21   10   11 1   
    22   10   18 1   
    23   10   48 1   
    24   11   12 1   
    25   11   49 1   
    26   11   50 1   
    27   12   13 ar  
    28   12   17 ar  
    29   13   14 ar  
    30   13   51 1   
    31   14   15 ar  
    32   14   52 1   
    33   15   16 ar  
    34   15   53 1   
    35   16   17 ar  
    36   16   54 1   
    37   17   55 1   
    38   18   19 1   
    39   18   20 1   
    40   18   56 1   
    41   19   57 1   
    42   20   21 1   
    43   20   58 1   
    44   20   59 1   
    45   21   22 1   
    46   21   79 1   
    47   22   23 1   
    48   22   60 1   
    49   22   61 1   
    50   23   24 1   
    51   23   25 1   
    52   23   62 1   
    53   24   63 1   
    54   24   64 1   
    55   24   65 1   
    56   25   26 1   
    57   25   66 1   
    58   25   67 1   
    59   26   68 1   
    60   26   69 1   
    61   26   70 1   
    62   27   28 1   
    63   27   29 1   
    64   27   30 1   
    65   30   31 ar  
    66   30   33 ar  
    67   31   32 ar  
    68   31   71 1   
    69   32   35 ar  
    70   32   72 1   
    71   33   34 ar  
    72   33   73 1   
    73   34   35 ar  
    74   34   74 1   
    75   35   36 1   
    76   36   37 1   
    77   37   75 1   
    78   37   76 1   
    79   37   77 1   
@<TRIPOS>SUBSTRUCTURE
     1 MZ9         1 TEMP              0 ****  ****    0 ROOT
