@<TRIPOS>MOLECULE
MZ9
   77    78     1     0     0
SMALL
bcc


@<TRIPOS>ATOM
      1 O22         3.2310   -1.3400   -0.5980 o         1 MZ9     -0.624100
      2 C21         3.3540   -0.1600   -0.2070 c         1 MZ9      0.662100
      3 C22         4.4390    0.7570   -0.7410 c3        1 MZ9     -0.145400
      4 C23         5.3720    0.0030   -1.6610 c3        1 MZ9     -0.178400
      5 C24         6.3740    0.9040   -2.3230 c         1 MZ9      0.565100
      6 O25         6.2950    2.1360   -2.2800 o         1 MZ9     -0.537100
      7 C26         7.4810    0.1790   -3.0360 c3        1 MZ9     -0.181400
      8 C27         8.2190    1.0530   -4.0150 c3        1 MZ9     -0.089100
      9 N20         2.5040    0.3740    0.7380 n         1 MZ9     -0.562900
     10 C19         1.4260   -0.3770    1.3330 c3        1 MZ9      0.084700
     11 C32         1.3750   -0.1970    2.8630 c3        1 MZ9     -0.054100
     12 C38         2.5940   -0.7080    3.5420 ca        1 MZ9     -0.077300
     13 C37         3.4400    0.1680    4.2320 ca        1 MZ9     -0.124000
     14 C36         4.5710   -0.3150    4.8880 ca        1 MZ9     -0.127000
     15 C35         4.8670   -1.6770    4.8620 ca        1 MZ9     -0.130000
     16 C34         4.0280   -2.5570    4.1780 ca        1 MZ9     -0.127000
     17 C33         2.8960   -2.0760    3.5230 ca        1 MZ9     -0.124000
     18 C17         0.0530    0.0100    0.7080 c3        1 MZ9      0.098100
     19 O18        -0.3890    1.2670    1.1800 oh        1 MZ9     -0.619800
     20 C16        -0.9710   -1.1180    0.9610 c3        1 MZ9      0.189800
     21 N11        -2.2580   -0.9150    0.3520 n3        1 MZ9     -0.803500
     22 C12        -2.4170   -1.4010   -0.9930 c3        1 MZ9      0.230800
     23 C13        -2.5850   -2.9270   -1.1390 c3        1 MZ9     -0.082700
     24 C14        -3.9750   -3.3580   -0.7300 c3        1 MZ9     -0.104100
     25 C15        -2.2910   -3.3070   -2.5850 c3        1 MZ9     -0.077400
     26 C18        -2.2250   -4.7990   -2.7840 c3        1 MZ9     -0.092100
     27 S8         -3.4320   -0.1190    1.1740 sy        1 MZ9      1.519200
     28 O10        -4.5140   -0.9780    1.4570 o         1 MZ9     -0.664300
     29 O9         -2.8310    0.4910    2.3050 o         1 MZ9     -0.664300
     30 C5         -3.9520    1.0550    0.0990 ca        1 MZ9     -0.434500
     31 C6         -5.1910    0.9310   -0.5540 ca        1 MZ9      0.021000
     32 C7         -5.6610    1.9150   -1.4060 ca        1 MZ9     -0.214500
     33 C4         -3.1920    2.2090   -0.1290 ca        1 MZ9      0.021000
     34 C3         -3.6370    3.2150   -0.9790 ca        1 MZ9     -0.214500
     35 C2         -4.8750    3.0680   -1.6200 ca        1 MZ9      0.193100
     36 O19        -5.4200    3.9880   -2.4820 os        1 MZ9     -0.319900
     37 C20        -4.6660    5.1770   -2.7060 c3        1 MZ9      0.109700
     38 H221        3.9650    1.6080   -1.3000 hc        1 MZ9      0.077700
     39 H222        5.0210    1.1980    0.1100 hc        1 MZ9      0.077700
     40 H231        5.9120   -0.7960   -1.0860 hc        1 MZ9      0.084200
     41 H232        4.7770   -0.5190   -2.4590 hc        1 MZ9      0.084200
     42 H261        8.1910   -0.2050   -2.2530 hc        1 MZ9      0.065700
     43 H262        7.0510   -0.7140   -3.5620 hc        1 MZ9      0.065700
     44 H271        9.0780    0.4940   -4.4590 hc        1 MZ9      0.043700
     45 H272        7.5400    1.3800   -4.8380 hc        1 MZ9      0.043700
     46 H273        8.6070    1.9680   -3.5040 hc        1 MZ9      0.043700
     47 HN20        2.5750    1.3320    0.9830 hn        1 MZ9      0.317500
     48 H19         1.6070   -1.4720    1.1060 h1        1 MZ9      0.091700
     49 H321        1.2210    0.8890    3.1080 hc        1 MZ9      0.060700
     50 H322        0.4800   -0.7560    3.2480 hc        1 MZ9      0.060700
     51 H37         3.2100    1.2440    4.2600 ha        1 MZ9      0.130500
     52 H36         5.2290    0.3810    5.4290 ha        1 MZ9      0.132000
     53 H35         5.7600   -2.0580    5.3800 ha        1 MZ9      0.131000
     54 H34         4.2580   -3.6320    4.1550 ha        1 MZ9      0.132000
     55 H33         2.2370   -2.7730    2.9840 ha        1 MZ9      0.130500
     56 H17         0.1750    0.1620   -0.4040 h1        1 MZ9      0.082700
     57 HO18       -0.7540    1.1460    2.0710 ho        1 MZ9      0.432000
     58 H161       -0.5220   -2.0780    0.5780 h1        1 MZ9      0.067200
     59 H162       -1.1210   -1.2250    2.0760 h1        1 MZ9      0.067200
     60 H121       -3.3260   -0.9020   -1.4410 h1        1 MZ9      0.047700
     61 H122       -1.5190   -1.0820   -1.5990 h1        1 MZ9      0.047700
     62 H13        -1.8360   -3.4490   -0.4790 hc        1 MZ9      0.054700
     63 H141       -4.0460   -4.4730   -0.7200 hc        1 MZ9      0.045033
     64 H142       -4.2250   -2.9820    0.2930 hc        1 MZ9      0.045033
     65 H143       -4.7370   -2.9650   -1.4450 hc        1 MZ9      0.045033
     66 H151       -3.0810   -2.8710   -3.2510 hc        1 MZ9      0.039200
     67 H152       -1.3090   -2.8560   -2.8930 hc        1 MZ9      0.039200
     68 H181       -1.4770   -5.2580   -2.0940 hc        1 MZ9      0.035033
     69 H182       -3.2180   -5.2710   -2.5900 hc        1 MZ9      0.035033
     70 H183       -1.9260   -5.0320   -3.8350 hc        1 MZ9      0.035033
     71 H6         -5.8050    0.0300   -0.3680 ha        1 MZ9      0.166000
     72 H7         -6.6310    1.8200   -1.9130 ha        1 MZ9      0.152500
     73 H4         -2.2150    2.3210    0.3830 ha        1 MZ9      0.166000
     74 H3         -3.0190    4.1100   -1.1360 ha        1 MZ9      0.152500
     75 H201       -5.3080    5.7580   -3.4160 h1        1 MZ9      0.051700
     76 H202       -4.5250    5.7380   -1.7500 h1        1 MZ9      0.051700
     77 H203       -3.6810    4.9340   -3.1710 h1        1 MZ9      0.051700
@<TRIPOS>BOND
     1    1    2 2   
     2    2    3 1   
     3    2    9 1   
     4    3    4 1   
     5    3   38 1   
     6    3   39 1   
     7    4    5 1   
     8    4   40 1   
     9    4   41 1   
    10    5    6 2   
    11    5    7 1   
    12    7    8 1   
    13    7   42 1   
    14    7   43 1   
    15    8   44 1   
    16    8   45 1   
    17    8   46 1   
    18    9   10 1   
    19    9   47 1   
    20   10   11 1   
    21   10   18 1   
    22   10   48 1   
    23   11   12 1   
    24   11   49 1   
    25   11   50 1   
    26   12   13 ar  
    27   12   17 ar  
    28   13   14 ar  
    29   13   51 1   
    30   14   15 ar  
    31   14   52 1   
    32   15   16 ar  
    33   15   53 1   
    34   16   17 ar  
    35   16   54 1   
    36   17   55 1   
    37   18   19 1   
    38   18   20 1   
    39   18   56 1   
    40   19   57 1   
    41   20   21 1   
    42   20   58 1   
    43   20   59 1   
    44   21   22 1   
    45   21   27 1   
    46   22   23 1   
    47   22   60 1   
    48   22   61 1   
    49   23   24 1   
    50   23   25 1   
    51   23   62 1   
    52   24   63 1   
    53   24   64 1   
    54   24   65 1   
    55   25   26 1   
    56   25   66 1   
    57   25   67 1   
    58   26   68 1   
    59   26   69 1   
    60   26   70 1   
    61   27   28 2   
    62   27   29 2   
    63   27   30 1   
    64   30   31 ar  
    65   30   33 ar  
    66   31   32 ar  
    67   31   71 1   
    68   32   35 ar  
    69   32   72 1   
    70   33   34 ar  
    71   33   73 1   
    72   34   35 ar  
    73   34   74 1   
    74   35   36 1   
    75   36   37 1   
    76   37   75 1   
    77   37   76 1   
    78   37   77 1   
@<TRIPOS>SUBSTRUCTURE
     1 MZ9         1 TEMP              0 ****  ****    0 ROOT
