@<TRIPOS>MOLECULE
MZ9
   79    79     1     0     0
SMALL
bcc


@<TRIPOS>ATOM
      1 O22        -1.3090   -1.7310   -1.4880 o         1 MZ9     -0.428100
      2 C21        -0.7470   -1.5660   -0.4150 c         1 MZ9      0.549100
      3 C22        -0.9550   -2.3740    0.8390 c3        1 MZ9     -0.147400
      4 C23        -1.6420   -1.6190    1.9560 c3        1 MZ9     -0.214400
      5 C24        -0.7070   -0.8130    2.8250 c         1 MZ9      0.590100
      6 O25         0.3750   -0.4060    2.3760 o         1 MZ9     -0.602100
      7 C26        -1.1850   -0.5570    4.2170 c3        1 MZ9     -0.176400
      8 C27        -0.4560    0.5790    4.8880 c3        1 MZ9     -0.094100
      9 N20         0.2810   -0.4710   -0.3350 n4        1 MZ9     -0.673800
     10 C19         0.6200    0.1960   -1.6390 c3        1 MZ9      0.139500
     11 C32         1.2710    1.5640   -1.3750 c3        1 MZ9     -0.050100
     12 C38         0.4020    2.4480   -0.5540 ca        1 MZ9     -0.164300
     13 C37         0.5770    2.5210    0.8340 ca        1 MZ9     -0.130000
     14 C36        -0.2080    3.3880    1.5940 ca        1 MZ9     -0.115000
     15 C35        -1.1690    4.1880    0.9750 ca        1 MZ9     -0.097000
     16 C34        -1.3460    4.1190   -0.4080 ca        1 MZ9     -0.115000
     17 C33        -0.5630    3.2530   -1.1710 ca        1 MZ9     -0.130000
     18 C17         1.5360   -0.7160   -2.4980 c3        1 MZ9      0.103100
     19 O18         2.6720   -0.9920   -1.6970 oh        1 MZ9     -0.615800
     20 C16         1.9200   -0.0040   -3.8100 c3        1 MZ9      0.102800
     21 N11         2.2600   -0.8480   -4.9460 n3        1 MZ9     -0.906200
     22 C12         3.5370   -1.5480   -4.8450 c3        1 MZ9      0.117800
     23 C13         3.4640   -3.0120   -4.3770 c3        1 MZ9     -0.090700
     24 C14         2.9570   -3.9000   -5.4930 c3        1 MZ9     -0.103100
     25 C15         4.8430   -3.4480   -3.9000 c3        1 MZ9     -0.079400
     26 C18         4.8170   -4.7890   -3.2130 c3        1 MZ9     -0.099100
     27 S8          1.9650    0.4990   -7.0700 s4        1 MZ9      1.690300
     28 O10         0.9810   -0.3850   -7.3810 o         1 MZ9     -0.440900
     29 O9          1.7240    1.5970   -6.3050 o         1 MZ9     -0.440900
     30 C5          3.3100    0.3890   -7.7920 ca        1 MZ9     -0.694500
     31 C6          3.5850   -0.6880   -8.6980 ca        1 MZ9      0.064500
     32 C7          4.7500   -0.7680   -9.4080 ca        1 MZ9     -0.214500
     33 C4          4.3310    1.3800   -7.6550 ca        1 MZ9      0.064500
     34 C3          5.5060    1.3260   -8.3590 ca        1 MZ9     -0.214500
     35 C2          5.7390    0.2520   -9.2580 ca        1 MZ9      0.306100
     36 O19         6.8410    0.0970  -10.0060 os        1 MZ9     -0.261900
     37 C20         7.8700    1.1010   -9.9340 c3        1 MZ9      0.096700
     38 H221       -1.5930   -3.2560    0.5420 hc        1 MZ9      0.119700
     39 H222        0.0370   -2.7690    1.1960 hc        1 MZ9      0.119700
     40 H231       -2.4370   -0.9340    1.5560 hc        1 MZ9      0.108200
     41 H232       -2.1680   -2.3740    2.6080 hc        1 MZ9      0.108200
     42 H261       -2.2890   -0.3510    4.1950 hc        1 MZ9      0.089700
     43 H262       -1.0350   -1.5050    4.8070 hc        1 MZ9      0.089700
     44 H271        0.6440    0.3810    4.9130 hc        1 MZ9      0.056367
     45 H272       -0.6260    1.5370    4.3380 hc        1 MZ9      0.056367
     46 H273       -0.8230    0.6990    5.9360 hc        1 MZ9      0.056367
     47 HN20       -0.0660    0.2500    0.3300 hn        1 MZ9      0.489800
     48 H19        -0.3520    0.3440   -2.2000 hx        1 MZ9      0.119700
     49 H321        2.2700    1.4130   -0.8820 hc        1 MZ9      0.089700
     50 H322        1.4580    2.0460   -2.3740 hc        1 MZ9      0.089700
     51 H37         1.3510    1.9140    1.3320 ha        1 MZ9      0.139500
     52 H36        -0.0570    3.4490    2.6840 ha        1 MZ9      0.156500
     53 H35        -1.7790    4.8830    1.5750 ha        1 MZ9      0.161000
     54 H34        -2.0970    4.7580   -0.9000 ha        1 MZ9      0.156500
     55 H33        -0.6950    3.2180   -2.2630 ha        1 MZ9      0.139500
     56 H17         0.9850   -1.6780   -2.7200 h1        1 MZ9      0.063700
     57 HO18        3.2810   -1.5410   -2.2120 ho        1 MZ9      0.441000
     58 H161        1.0480    0.6370   -4.1360 h1        1 MZ9      0.093200
     59 H162        2.7930    0.6780   -3.5930 h1        1 MZ9      0.093200
     60 H121        3.9940   -1.5340   -5.8780 h1        1 MZ9      0.066700
     61 H122        4.2290   -0.9730   -4.1650 h1        1 MZ9      0.066700
     62 H13         2.7480   -3.0910   -3.5090 hc        1 MZ9      0.037700
     63 H141        3.6740   -3.9080   -6.3490 hc        1 MZ9      0.051033
     64 H142        1.9610   -3.5560   -5.8620 hc        1 MZ9      0.051033
     65 H143        2.8440   -4.9510   -5.1260 hc        1 MZ9      0.051033
     66 H151        5.5430   -3.4880   -4.7760 hc        1 MZ9      0.047200
     67 H152        5.2450   -2.6800   -3.1860 hc        1 MZ9      0.047200
     68 H181        4.0850   -4.7920   -2.3700 hc        1 MZ9      0.049033
     69 H182        5.8290   -5.0240   -2.8010 hc        1 MZ9      0.049033
     70 H183        4.5360   -5.6010   -3.9260 hc        1 MZ9      0.049033
     71 H6          2.8120   -1.4720   -8.8300 ha        1 MZ9      0.173500
     72 H7          4.9460   -1.5970  -10.1110 ha        1 MZ9      0.193000
     73 H4          4.1510    2.2260   -6.9630 ha        1 MZ9      0.173500
     74 H3          6.2660    2.1160   -8.2360 ha        1 MZ9      0.193000
     75 H201        7.4640    2.0890  -10.2580 h1        1 MZ9      0.083700
     76 H202        8.6310    0.7170  -10.6630 h1        1 MZ9      0.083700
     77 H203        8.2870    1.1450   -8.9000 h1        1 MZ9      0.083700
     78 H204        1.1450   -0.8550    0.0840 hn        1 MZ9      0.489800
     79 H111        1.5200   -1.5210   -5.1020 hn        1 MZ9      0.398800
@<TRIPOS>BOND
     1    1    2 2   
     2    2    3 1   
     3    2    9 1   
     4    3    4 1   
     5    3   38 1   
     6    3   39 1   
     7    4    5 1   
     8    4   40 1   
     9    4   41 1   
    10    5    6 2   
    11    5    7 1   
    12    7    8 1   
    13    7   42 1   
    14    7   43 1   
    15    8   44 1   
    16    8   45 1   
    17    8   46 1   
    18    9   10 1   
    19    9   47 1   
    20    9   78 1   
    21   10   11 1   
    22   10   18 1   
    23   10   48 1   
    24   11   12 1   
    25   11   49 1   
    26   11   50 1   
    27   12   13 ar  
    28   12   17 ar  
    29   13   14 ar  
    30   13   51 1   
    31   14   15 ar  
    32   14   52 1   
    33   15   16 ar  
    34   15   53 1   
    35   16   17 ar  
    36   16   54 1   
    37   17   55 1   
    38   18   19 1   
    39   18   20 1   
    40   18   56 1   
    41   19   57 1   
    42   20   21 1   
    43   20   58 1   
    44   20   59 1   
    45   21   22 1   
    46   21   79 1   
    47   22   23 1   
    48   22   60 1   
    49   22   61 1   
    50   23   24 1   
    51   23   25 1   
    52   23   62 1   
    53   24   63 1   
    54   24   64 1   
    55   24   65 1   
    56   25   26 1   
    57   25   66 1   
    58   25   67 1   
    59   26   68 1   
    60   26   69 1   
    61   26   70 1   
    62   27   28 1   
    63   27   29 1   
    64   27   30 1   
    65   30   31 ar  
    66   30   33 ar  
    67   31   32 ar  
    68   31   71 1   
    69   32   35 ar  
    70   32   72 1   
    71   33   34 ar  
    72   33   73 1   
    73   34   35 ar  
    74   34   74 1   
    75   35   36 1   
    76   36   37 1   
    77   37   75 1   
    78   37   76 1   
    79   37   77 1   
@<TRIPOS>SUBSTRUCTURE
     1 MZ9         1 TEMP              0 ****  ****    0 ROOT
