@<TRIPOS>MOLECULE
MZA
   54    57     1     0     0
SMALL
bcc


@<TRIPOS>ATOM
      1 F1          0.6160    1.4070    0.7460 f         1 MZA     -0.138900
      2 C7          1.8420    0.9110    0.4480 ca        1 MZA      0.117900
      3 C6          2.8720    1.0030    1.4100 ca        1 MZA     -0.077300
      4 C5          2.6040    1.6720    2.7110 c3        1 MZA     -0.039100
      5 C1          3.6540    1.3280    3.7680 c3        1 MZA      0.165800
      6 N1          5.0040    1.4040    3.2530 n7        1 MZA     -0.820200
      7 C3          5.2550    0.5400    2.1180 c3        1 MZA      0.203100
      8 C11         4.1360    0.4800    1.1180 ca        1 MZA     -0.040300
      9 C10         4.3750   -0.1280   -0.1180 ca        1 MZA     -0.126000
     10 C9          3.3740   -0.2100   -1.0760 ca        1 MZA     -0.105000
     11 C8          2.0920    0.3160   -0.8210 ca        1 MZA     -0.005400
     12 N2          1.0780    0.2400   -1.8030 n         1 MZA     -0.353000
     13 C25         0.7930   -0.8710   -2.5670 c         1 MZA      0.695500
     14 O3          1.2440   -2.0210   -2.4500 o         1 MZA     -0.635500
     15 C12         0.3570    1.4250   -2.2510 c3        1 MZA      0.084000
     16 C13        -0.6260    0.9700   -3.3480 c3        1 MZA     -0.113400
     17 C14        -0.2580   -0.4960   -3.6550 c3        1 MZA      0.041500
     18 N3         -1.3640   -1.4520   -3.6890 n8        1 MZA     -0.990800
     19 S1         -1.0040   -3.1950   -5.1030 s4        1 MZA      1.666300
     20 O1         -2.1630   -2.9700   -5.7930 o         1 MZA     -0.445400
     21 O2          0.1960   -2.7670   -5.5780 o         1 MZA     -0.445400
     22 C15        -1.0490   -4.3340   -4.0350 ca        1 MZA     -0.606500
     23 C24        -2.2080   -5.0910   -3.7930 ca        1 MZA      0.092000
     24 C16         0.1300   -4.6750   -3.2910 ca        1 MZA     -0.017000
     25 C17         0.1350   -5.7030   -2.3910 ca        1 MZA     -0.119000
     26 C18        -1.0370   -6.4760   -2.1580 ca        1 MZA      0.075000
     27 C19        -1.0520   -7.5490   -1.2350 ca        1 MZA     -0.155000
     28 C20        -2.2110   -8.2750   -1.0380 ca        1 MZA      0.088400
     29 Cl1        -2.2400   -9.5560    0.0580 cl        1 MZA     -0.016400
     30 C23        -2.2250   -6.1510   -2.8780 ca        1 MZA     -0.102000
     31 C22        -3.4070   -6.9220   -2.6510 ca        1 MZA     -0.074000
     32 C21        -3.4010   -7.9570   -1.7550 ca        1 MZA     -0.121000
     33 H51C        1.5930    1.3770    3.0970 hc        1 MZA      0.070700
     34 H52C        2.5880    2.7840    2.5410 hc        1 MZA      0.070700
     35 H11C        3.5710    2.0690    4.6120 h1        1 MZA      0.039700
     36 H12C        3.4130    0.3060    4.1860 h1        1 MZA      0.039700
     37 H1          5.6700    1.2180    3.9800 hn        1 MZA      0.379800
     38 H31C        6.1790    0.9390    1.6050 h1        1 MZA      0.051200
     39 H32C        5.4750   -0.5270    2.4300 h1        1 MZA      0.051200
     40 H10         5.3720   -0.5420   -0.3380 ha        1 MZA      0.151000
     41 H9          3.5810   -0.7050   -2.0390 ha        1 MZA      0.152000
     42 H121       -0.1900    1.8830   -1.3810 h1        1 MZA      0.082700
     43 H122        1.0810    2.1850   -2.6560 h1        1 MZA      0.082700
     44 H14         0.2690   -0.5530   -4.6560 h1        1 MZA      0.124700
     45 H131       -0.5080    1.6000   -4.2630 hc        1 MZA      0.079200
     46 H132       -1.6790    1.0780   -2.9860 hc        1 MZA      0.079200
     47 H3         -1.5400   -1.8150   -2.7640 hn        1 MZA      0.413300
     48 H24        -3.1360   -4.8530   -4.3510 ha        1 MZA      0.165000
     49 H16         1.0460   -4.0690   -3.4480 ha        1 MZA      0.191000
     50 H17         1.0530   -5.9480   -1.8280 ha        1 MZA      0.174000
     51 H19        -0.1280   -7.7920   -0.6830 ha        1 MZA      0.175000
     52 H21        -4.3110   -8.5560   -1.5770 ha        1 MZA      0.176000
     53 H22        -4.3220   -6.6710   -3.2120 ha        1 MZA      0.158000
     54 H32        -2.2010   -0.9900   -4.0180 hn        1 MZA      0.413300
@<TRIPOS>BOND
     1    1    2 1   
     2    2    3 ar  
     3    2   11 ar  
     4    3    4 1   
     5    3    8 ar  
     6    4    5 1   
     7    4   33 1   
     8    4   34 1   
     9    5    6 1   
    10    5   35 1   
    11    5   36 1   
    12    6    7 1   
    13    6   37 1   
    14    7    8 1   
    15    7   38 1   
    16    7   39 1   
    17    8    9 ar  
    18    9   10 ar  
    19    9   40 1   
    20   10   11 ar  
    21   10   41 1   
    22   11   12 1   
    23   12   13 1   
    24   12   15 1   
    25   13   14 2   
    26   13   17 1   
    27   15   16 1   
    28   15   42 1   
    29   15   43 1   
    30   16   17 1   
    31   16   45 1   
    32   16   46 1   
    33   17   18 1   
    34   17   44 1   
    35   18   47 1   
    36   18   54 1   
    37   19   20 1   
    38   19   21 1   
    39   19   22 1   
    40   22   23 ar  
    41   22   24 ar  
    42   23   30 ar  
    43   23   48 1   
    44   24   25 ar  
    45   24   49 1   
    46   25   26 ar  
    47   25   50 1   
    48   26   27 ar  
    49   26   30 ar  
    50   27   28 ar  
    51   27   51 1   
    52   28   29 1   
    53   28   32 ar  
    54   30   31 ar  
    55   31   32 ar  
    56   31   53 1   
    57   32   52 1   
@<TRIPOS>SUBSTRUCTURE
     1 MZA         1 TEMP              0 ****  ****    0 ROOT
