@<TRIPOS>MOLECULE
MZA
   54    57     1     0     0
SMALL
bcc


@<TRIPOS>ATOM
      1 F1          0.6410    1.4190    0.7210 f         1 MZA     -0.138900
      2 C7          1.8630    0.9000    0.4450 ca        1 MZA      0.117900
      3 C6          2.8790    0.9810    1.4230 ca        1 MZA     -0.077300
      4 C5          2.6030    1.6640    2.7150 c3        1 MZA     -0.039100
      5 C1          3.6300    1.3090    3.7900 c3        1 MZA      0.165800
      6 N1          4.9900    1.3590    3.2960 n3        1 MZA     -0.820200
      7 C3          5.2420    0.4830    2.1710 c3        1 MZA      0.203100
      8 C11         4.1390    0.4350    1.1540 ca        1 MZA     -0.040300
      9 C10         4.3860   -0.1850   -0.0740 ca        1 MZA     -0.126000
     10 C9          3.3990   -0.2570   -1.0470 ca        1 MZA     -0.105000
     11 C8          2.1220    0.2920   -0.8150 ca        1 MZA     -0.005400
     12 N2          1.1220    0.2270   -1.8120 n         1 MZA     -0.353000
     13 C25         0.8300   -0.8850   -2.5730 c         1 MZA      0.695500
     14 O3          1.2600   -2.0410   -2.4410 o         1 MZA     -0.635500
     15 C12         0.4280    1.4210   -2.2790 c3        1 MZA      0.084000
     16 C13        -0.5460    0.9740   -3.3870 c3        1 MZA     -0.113400
     17 C14        -0.1990   -0.5000   -3.6790 c3        1 MZA      0.041500
     18 N3         -1.3200   -1.4370   -3.7230 n3        1 MZA     -0.990800
     19 S1         -0.9700   -3.1960   -5.1210 s4        1 MZA      1.666300
     20 O1         -2.1150   -2.9560   -5.8270 o         1 MZA     -0.445400
     21 O2          0.2430   -2.7900   -5.5820 o         1 MZA     -0.445400
     22 C15        -1.0480   -4.3260   -4.0450 ca        1 MZA     -0.606500
     23 C24        -2.2220   -5.0620   -3.8140 ca        1 MZA      0.092000
     24 C16         0.1160   -4.6810   -3.2840 ca        1 MZA     -0.017000
     25 C17         0.0920   -5.7040   -2.3770 ca        1 MZA     -0.119000
     26 C18        -1.0950   -6.4550   -2.1550 ca        1 MZA      0.075000
     27 C19        -1.1400   -7.5220   -1.2250 ca        1 MZA     -0.155000
     28 C20        -2.3130   -8.2270   -1.0380 ca        1 MZA      0.088400
     29 CL1        -2.3780   -9.5000    0.0650 cl        1 MZA     -0.016400
     30 C23        -2.2690   -6.1160   -2.8930 ca        1 MZA     -0.102000
     31 C22        -3.4660   -6.8660   -2.6760 ca        1 MZA     -0.074000
     32 C21        -3.4890   -7.8950   -1.7730 ca        1 MZA     -0.121000
     33 H51C        1.5810    1.3880    3.0870 hc        1 MZA      0.070700
     34 H52C        2.6090    2.7750    2.5370 hc        1 MZA      0.070700
     35 H11C        3.3660    0.2940    4.2110 h1        1 MZA      0.039700
     36 H12C        3.5470    2.0580    4.6280 h1        1 MZA      0.039700
     37 H1          5.6410    1.1660    4.0340 hn        1 MZA      0.379800
     38 H31C        6.1810    0.8620    1.6690 h1        1 MZA      0.051200
     39 H32C        5.4400   -0.5860    2.4930 h1        1 MZA      0.051200
     40 H10         5.3790   -0.6180   -0.2760 ha        1 MZA      0.151000
     41 H9          3.6120   -0.7620   -2.0030 ha        1 MZA      0.152000
     42 H121       -0.1240    1.8930   -1.4200 h1        1 MZA      0.082700
     43 H122        1.1710    2.1650   -2.6780 h1        1 MZA      0.082700
     44 H14         0.3410   -0.5730   -4.6720 h1        1 MZA      0.124700
     45 H131       -0.4040    1.5960   -4.3040 hc        1 MZA      0.079200
     46 H132       -1.6020    1.1030   -3.0420 hc        1 MZA      0.079200
     47 H3         -1.5160   -1.7910   -2.7990 hn        1 MZA      0.413300
     48 H24        -3.1390   -4.8130   -4.3860 ha        1 MZA      0.165000
     49 H16         1.0430   -4.0910   -3.4320 ha        1 MZA      0.191000
     50 H17         0.9980   -5.9590   -1.8010 ha        1 MZA      0.174000
     51 H19        -0.2280   -7.7760   -0.6600 ha        1 MZA      0.175000
     52 H21        -4.4100   -8.4780   -1.6040 ha        1 MZA      0.176000
     53 H22        -4.3690   -6.6040   -3.2510 ha        1 MZA      0.158000
     54 H32        -2.1440   -0.9640   -4.0670 hn        1 MZA      0.413300
@<TRIPOS>BOND
     1    1    2 1   
     2    2    3 ar  
     3    2   11 ar  
     4    3    4 1   
     5    3    8 ar  
     6    4    5 1   
     7    4   33 1   
     8    4   34 1   
     9    5    6 1   
    10    5   35 1   
    11    5   36 1   
    12    6    7 1   
    13    6   37 1   
    14    7    8 1   
    15    7   38 1   
    16    7   39 1   
    17    8    9 ar  
    18    9   10 ar  
    19    9   40 1   
    20   10   11 ar  
    21   10   41 1   
    22   11   12 1   
    23   12   13 1   
    24   12   15 1   
    25   13   14 2   
    26   13   17 1   
    27   15   16 1   
    28   15   42 1   
    29   15   43 1   
    30   16   17 1   
    31   16   45 1   
    32   16   46 1   
    33   17   18 1   
    34   17   44 1   
    35   18   47 1   
    36   18   54 1   
    37   19   20 1   
    38   19   21 1   
    39   19   22 1   
    40   22   23 ar  
    41   22   24 ar  
    42   23   30 ar  
    43   23   48 1   
    44   24   25 ar  
    45   24   49 1   
    46   25   26 ar  
    47   25   50 1   
    48   26   27 ar  
    49   26   30 ar  
    50   27   28 ar  
    51   27   51 1   
    52   28   29 1   
    53   28   32 ar  
    54   30   31 ar  
    55   31   32 ar  
    56   31   53 1   
    57   32   52 1   
@<TRIPOS>SUBSTRUCTURE
     1 MZA         1 TEMP              0 ****  ****    0 ROOT
