@<TRIPOS>MOLECULE
MZA
   54    57     1     0     0
SMALL
bcc


@<TRIPOS>ATOM
      1 F1          0.6530    1.4370    0.6980 f         1 MZA     -0.138900
      2 C7          1.8740    0.9180    0.4120 ca        1 MZA      0.117900
      3 C6          2.9010    1.0090    1.3770 ca        1 MZA     -0.077300
      4 C5          2.6380    1.7020    2.6670 c3        1 MZA     -0.039100
      5 C1          3.6780    1.3580    3.7330 c3        1 MZA      0.165800
      6 N1          5.0320    1.4070    3.2220 n3        1 MZA     -0.820200
      7 C3          5.2740    0.5230    2.1010 c3        1 MZA      0.203100
      8 C11         4.1590    0.4640    1.0980 ca        1 MZA     -0.040300
      9 C10         4.3930   -0.1660   -0.1280 ca        1 MZA     -0.126000
     10 C9          3.3950   -0.2480   -1.0890 ca        1 MZA     -0.105000
     11 C8          2.1190    0.3010   -0.8460 ca        1 MZA     -0.005400
     12 N2          1.1080    0.2250   -1.8310 n         1 MZA     -0.353000
     13 C25         0.8110   -0.8930   -2.5800 c         1 MZA      0.695500
     14 O3          1.2450   -2.0470   -2.4450 o         1 MZA     -0.635500
     15 C12         0.4060    1.4130   -2.2990 c3        1 MZA      0.084000
     16 C13        -0.5800    0.9560   -3.3930 c3        1 MZA     -0.113400
     17 C14        -0.2310   -0.5190   -3.6780 c3        1 MZA      0.041500
     18 N3         -1.3500   -1.4590   -3.7030 n3        1 MZA     -0.990800
     19 S1         -1.0100   -3.2270   -5.0920 s4        1 MZA      1.666300
     20 O1         -2.1620   -2.9950   -5.7890 o         1 MZA     -0.445400
     21 O2          0.1980   -2.8220   -5.5670 o         1 MZA     -0.445400
     22 C15        -1.0750   -4.3500   -4.0080 ca        1 MZA     -0.606500
     23 C24        -2.2450   -5.0870   -3.7610 ca        1 MZA      0.092000
     24 C16         0.0960   -4.6970   -3.2540 ca        1 MZA     -0.017000
     25 C17         0.0830   -5.7130   -2.3400 ca        1 MZA     -0.119000
     26 C18        -1.1010   -6.4650   -2.1010 ca        1 MZA      0.075000
     27 C19        -1.1350   -7.5250   -1.1630 ca        1 MZA     -0.155000
     28 C20        -2.3050   -8.2320   -0.9610 ca        1 MZA      0.088400
     29 CL1        -2.3570   -9.4960    0.1530 cl        1 MZA     -0.016400
     30 C23        -2.2820   -6.1340   -2.8310 ca        1 MZA     -0.102000
     31 C22        -3.4740   -6.8850   -2.5980 ca        1 MZA     -0.074000
     32 C21        -3.4870   -7.9080   -1.6870 ca        1 MZA     -0.121000
     33 H51C        1.6210    1.4270    3.0530 hc        1 MZA      0.070700
     34 H52C        2.6390    2.8110    2.4800 hc        1 MZA      0.070700
     35 H11C        3.6030    2.1140    4.5660 h1        1 MZA      0.039700
     36 H12C        3.4210    0.3460    4.1650 h1        1 MZA      0.039700
     37 H1          5.6920    1.2220    3.9550 hn        1 MZA      0.379800
     38 H31C        5.4780   -0.5430    2.4300 h1        1 MZA      0.051200
     39 H32C        6.2050    0.9000    1.5860 h1        1 MZA      0.051200
     40 H10         5.3850   -0.5970   -0.3380 ha        1 MZA      0.151000
     41 H9          3.5980   -0.7590   -2.0430 ha        1 MZA      0.152000
     42 H121       -0.1390    1.8910   -1.4380 h1        1 MZA      0.082700
     43 H122        1.1420    2.1570   -2.7120 h1        1 MZA      0.082700
     44 H14         0.2990   -0.5980   -4.6760 h1        1 MZA      0.124700
     45 H131       -1.6320    1.0850   -3.0380 hc        1 MZA      0.079200
     46 H132       -0.4490    1.5720   -4.3170 hc        1 MZA      0.079200
     47 H3         -2.1790   -0.9910   -4.0420 hn        1 MZA      0.413300
     48 H24        -3.1680   -4.8440   -4.3260 ha        1 MZA      0.165000
     49 H16         1.0210   -4.1060   -3.4150 ha        1 MZA      0.191000
     50 H17         0.9950   -5.9620   -1.7700 ha        1 MZA      0.174000
     51 H19        -0.2170   -7.7730   -0.6040 ha        1 MZA      0.175000
     52 H21        -4.4060   -8.4910   -1.5060 ha        1 MZA      0.176000
     53 H22        -4.3830   -6.6290   -3.1660 ha        1 MZA      0.158000
     54 H32        -1.5350   -1.8070   -2.7750 hn        1 MZA      0.413300
@<TRIPOS>BOND
     1    1    2 1   
     2    2    3 ar  
     3    2   11 ar  
     4    3    4 1   
     5    3    8 ar  
     6    4    5 1   
     7    4   33 1   
     8    4   34 1   
     9    5    6 1   
    10    5   35 1   
    11    5   36 1   
    12    6    7 1   
    13    6   37 1   
    14    7    8 1   
    15    7   38 1   
    16    7   39 1   
    17    8    9 ar  
    18    9   10 ar  
    19    9   40 1   
    20   10   11 ar  
    21   10   41 1   
    22   11   12 1   
    23   12   13 1   
    24   12   15 1   
    25   13   14 2   
    26   13   17 1   
    27   15   16 1   
    28   15   42 1   
    29   15   43 1   
    30   16   17 1   
    31   16   45 1   
    32   16   46 1   
    33   17   18 1   
    34   17   44 1   
    35   18   47 1   
    36   18   54 1   
    37   19   20 1   
    38   19   21 1   
    39   19   22 1   
    40   22   23 ar  
    41   22   24 ar  
    42   23   30 ar  
    43   23   48 1   
    44   24   25 ar  
    45   24   49 1   
    46   25   26 ar  
    47   25   50 1   
    48   26   27 ar  
    49   26   30 ar  
    50   27   28 ar  
    51   27   51 1   
    52   28   29 1   
    53   28   32 ar  
    54   30   31 ar  
    55   31   32 ar  
    56   31   53 1   
    57   32   52 1   
@<TRIPOS>SUBSTRUCTURE
     1 MZA         1 TEMP              0 ****  ****    0 ROOT
