@<TRIPOS>MOLECULE
MZA
   53    57     1     0     0
SMALL
bcc


@<TRIPOS>ATOM
      1 F1          4.2730   -1.1320   -1.9220 f         1 MZA     -0.144900
      2 C7          4.3200   -0.5780   -0.6830 ca        1 MZA      0.089900
      3 C6          5.4390    0.2160   -0.3470 ca        1 MZA     -0.085300
      4 C5          6.5250    0.3970   -1.3490 c3        1 MZA     -0.074100
      5 C1          7.4980    1.5140   -0.9660 c3        1 MZA      0.152800
      6 N1          7.8450    1.5790    0.4390 n3        1 MZA     -0.793200
      7 C3          6.6740    1.6850    1.2880 c3        1 MZA      0.195100
      8 C11         5.5120    0.8070    0.9180 ca        1 MZA     -0.107300
      9 C10         4.4800    0.6090    1.8370 ca        1 MZA     -0.115000
     10 C9          3.3820   -0.1780    1.5200 ca        1 MZA     -0.128000
     11 C8          3.2690   -0.7960    0.2550 ca        1 MZA      0.041600
     12 N2          2.1470   -1.5830   -0.0610 n         1 MZA     -0.378000
     13 C25         0.8910   -1.4810    0.5370 c         1 MZA      0.681500
     14 O3          0.5200   -0.5890    1.3120 o         1 MZA     -0.614500
     15 C12         2.2590   -2.7790   -0.8850 c3        1 MZA      0.084000
     16 C13         0.9390   -3.5580   -0.7580 c3        1 MZA     -0.111400
     17 C14        -0.0060   -2.6740    0.0890 c3        1 MZA      0.170500
     18 N3         -1.1950   -2.2470   -0.5760 n3        1 MZA     -0.895100
     19 S1         -2.7020   -2.4720   -0.0000 sy        1 MZA      1.521200
     20 O1         -3.4850   -3.1000   -0.9910 o         1 MZA     -0.652800
     21 O2         -2.6300   -3.1280    1.2440 o         1 MZA     -0.652800
     22 C15        -3.2750   -0.9010    0.1880 ca        1 MZA     -0.391500
     23 C24        -4.3890   -0.4680   -0.5040 ca        1 MZA      0.027000
     24 C16        -2.6460   -0.0100    1.0980 ca        1 MZA     -0.032000
     25 C17        -3.1300    1.2580    1.2990 ca        1 MZA     -0.135000
     26 C18        -4.2780    1.7120    0.5960 ca        1 MZA      0.021000
     27 C19        -4.8010    3.0210    0.7860 ca        1 MZA     -0.131000
     28 C20        -5.9150    3.4220    0.0840 ca        1 MZA      0.042400
     29 CL1        -6.5490    4.9830    0.3010 cl        1 MZA     -0.083400
     30 C23        -4.9150    0.8350   -0.3190 ca        1 MZA     -0.080000
     31 C22        -6.0650    1.2830   -1.0280 ca        1 MZA     -0.088000
     32 C21        -6.5580    2.5480   -0.8340 ca        1 MZA     -0.134000
     33 H51C        7.0790   -0.5760   -1.4530 hc        1 MZA      0.062700
     34 H52C        6.0790    0.6290   -2.3530 hc        1 MZA      0.062700
     35 H11C        8.4480    1.3890   -1.5570 h1        1 MZA      0.058200
     36 H12C        7.0430    2.5050   -1.2480 h1        1 MZA      0.058200
     37 H1          8.3800    0.7670    0.6950 hn        1 MZA      0.354800
     38 H31C        6.9800    1.4720    2.3510 h1        1 MZA      0.065200
     39 H32C        6.3220    2.7580    1.2400 h1        1 MZA      0.065200
     40 H10         4.5370    1.0810    2.8300 ha        1 MZA      0.142000
     41 H9          2.5780   -0.3050    2.2660 ha        1 MZA      0.166000
     42 H121        2.4340   -2.4790   -1.9560 h1        1 MZA      0.063700
     43 H122        3.1320   -3.4000   -0.5490 h1        1 MZA      0.063700
     44 H14        -0.2980   -3.2250    1.0360 h1        1 MZA      0.117700
     45 H131        0.5240   -3.7820   -1.7700 hc        1 MZA      0.071700
     46 H132        1.1090   -4.5300   -0.2340 hc        1 MZA      0.071700
     47 H3         -1.0290   -1.7940   -1.4430 hn        1 MZA      0.449800
     48 H24        -4.8940   -1.1460   -1.2190 ha        1 MZA      0.162000
     49 H16        -1.7460   -0.3500    1.6440 ha        1 MZA      0.169000
     50 H17        -2.6350    1.9420    2.0060 ha        1 MZA      0.147000
     51 H19        -4.2990    3.6940    1.4980 ha        1 MZA      0.154000
     52 H21        -7.4480    2.8980   -1.3790 ha        1 MZA      0.152000
     53 H22        -6.5530    0.5930   -1.7340 ha        1 MZA      0.144000
@<TRIPOS>BOND
     1    1    2 1   
     2    2    3 ar  
     3    2   11 ar  
     4    3    4 1   
     5    3    8 ar  
     6    4    5 1   
     7    4   33 1   
     8    4   34 1   
     9    5    6 1   
    10    5   35 1   
    11    5   36 1   
    12    6    7 1   
    13    6   37 1   
    14    7    8 1   
    15    7   38 1   
    16    7   39 1   
    17    8    9 ar  
    18    9   10 ar  
    19    9   40 1   
    20   10   11 ar  
    21   10   41 1   
    22   11   12 1   
    23   12   13 1   
    24   12   15 1   
    25   13   14 2   
    26   13   17 1   
    27   15   16 1   
    28   15   42 1   
    29   15   43 1   
    30   16   17 1   
    31   16   45 1   
    32   16   46 1   
    33   17   18 1   
    34   17   44 1   
    35   18   19 1   
    36   18   47 1   
    37   19   20 2   
    38   19   21 2   
    39   19   22 1   
    40   22   23 ar  
    41   22   24 ar  
    42   23   30 ar  
    43   23   48 1   
    44   24   25 ar  
    45   24   49 1   
    46   25   26 ar  
    47   25   50 1   
    48   26   27 ar  
    49   26   30 ar  
    50   27   28 ar  
    51   27   51 1   
    52   28   29 1   
    53   28   32 ar  
    54   30   31 ar  
    55   31   32 ar  
    56   31   53 1   
    57   32   52 1   
@<TRIPOS>SUBSTRUCTURE
     1 MZA         1 TEMP              0 ****  ****    0 ROOT
