@<TRIPOS>MOLECULE
MZB
   26    26     1     0     0
SMALL
bcc


@<TRIPOS>ATOM
      1 O6          0.0090    0.1000    0.4400 o         1 MZB     -0.549200
      2 S6          1.4180   -0.1520   -0.0240 s4        1 MZB      0.314600
      3 C7          1.5670   -1.8550   -0.2160 c3        1 MZB     -0.148800
      4 C1          2.2710    0.0690    1.5360 c3        1 MZB     -0.111400
      5 C5          1.7460    1.2890    2.2950 c3        1 MZB      0.119500
      6 N5          0.4690    1.0240    3.0210 n4        1 MZB     -0.831600
      7 C4          2.9090    1.7340    3.2360 c3        1 MZB      0.106100
      8 O4          2.7480    1.1690    4.5140 oh        1 MZB     -0.607800
      9 C3          4.1980    1.2860    2.5060 c3        1 MZB      0.077100
     10 O3          5.0330    0.5790    3.3970 oh        1 MZB     -0.591800
     11 C2          3.7800    0.3080    1.3780 c3        1 MZB      0.185100
     12 O2          4.4040   -0.9550    1.4380 oh        1 MZB     -0.589800
     13 H7          2.5890   -2.2130    0.0670 h1        1 MZB      0.118700
     14 H7A         0.8250   -2.4570    0.3600 h1        1 MZB      0.118700
     15 H7B         1.4140   -2.1080   -1.2960 h1        1 MZB      0.118700
     16 H1          2.1560   -0.8630    2.1580 h1        1 MZB      0.126700
     17 H5          1.5300    2.1270    1.5660 hx        1 MZB      0.112700
     18 HN5         0.6410    0.3490    3.7740 hn        1 MZB      0.475133
     19 HN5A       -0.2320    0.6480    2.3520 hn        1 MZB      0.475133
     20 H4          2.8800    2.8480    3.3870 h1        1 MZB      0.101700
     21 HO4         3.3480    0.4110    4.6140 ho        1 MZB      0.454000
     22 H3          4.7250    2.1780    2.0740 h1        1 MZB      0.085700
     23 HO3         5.5980    1.2210    3.8480 ho        1 MZB      0.445000
     24 H2          4.0090    0.7750    0.3790 h1        1 MZB      0.067700
     25 HO2         5.2840   -0.8510    1.8300 ho        1 MZB      0.451000
     26 H53         0.1280    1.8940    3.4360 hn        1 MZB      0.475133
@<TRIPOS>BOND
     1    1    2 2   
     2    2    3 1   
     3    2    4 1   
     4    3   13 1   
     5    3   14 1   
     6    3   15 1   
     7    4    5 1   
     8    4   11 1   
     9    4   16 1   
    10    5    6 1   
    11    5    7 1   
    12    5   17 1   
    13    6   18 1   
    14    6   19 1   
    15    6   26 1   
    16    7    8 1   
    17    7    9 1   
    18    7   20 1   
    19    8   21 1   
    20    9   10 1   
    21    9   11 1   
    22    9   22 1   
    23   10   23 1   
    24   11   12 1   
    25   11   24 1   
    26   12   25 1   
@<TRIPOS>SUBSTRUCTURE
     1 MZB         1 TEMP              0 ****  ****    0 ROOT
