@<TRIPOS>MOLECULE
MZB
   26    26     1     0     0
SMALL
bcc


@<TRIPOS>ATOM
      1 O6          0.0440    0.2340    0.3570 o         1 MZB     -0.549200
      2 S6          1.4510   -0.0960   -0.0650 s4        1 MZB      0.314600
      3 C7          1.5120   -1.8040   -0.2530 c3        1 MZB     -0.148800
      4 C1          2.2680    0.0800    1.5210 c3        1 MZB     -0.111400
      5 C5          1.7880    1.3280    2.2650 c3        1 MZB      0.119500
      6 N5          0.4770    1.1350    2.9510 n4        1 MZB     -0.831600
      7 C4          2.9450    1.7080    3.2400 c3        1 MZB      0.106100
      8 O4          2.7130    1.1550    4.5130 oh        1 MZB     -0.606800
      9 C3          4.2280    1.1890    2.5500 c3        1 MZB      0.077100
     10 O3          4.9940    0.4350    3.4660 oh        1 MZB     -0.591800
     11 C2          3.7910    0.2360    1.4080 c3        1 MZB      0.185100
     12 O2          4.3430   -1.0600    1.4820 oh        1 MZB     -0.589800
     13 H7          0.7220   -2.3650    0.3010 h1        1 MZB      0.118700
     14 H7A         1.3770   -2.0500   -1.3370 h1        1 MZB      0.118700
     15 H7B         2.5040   -2.2180    0.0600 h1        1 MZB      0.118700
     16 H1          2.0820   -0.8440    2.1380 h1        1 MZB      0.126700
     17 H5          1.6400    2.1760    1.5300 hx        1 MZB      0.112700
     18 HN5         0.1720    2.0220    3.3560 hn        1 MZB      0.475133
     19 HN5A        0.5880    0.4520    3.7080 hn        1 MZB      0.475133
     20 H4          2.9730    2.8230    3.3900 h1        1 MZB      0.101700
     21 HO4         3.2660    0.3650    4.6310 ho        1 MZB      0.454000
     22 H3          4.8180    2.0500    2.1360 h1        1 MZB      0.085700
     23 HO3         5.5810    1.0450    3.9340 ho        1 MZB      0.445000
     24 H2          4.0750    0.6910    0.4170 h1        1 MZB      0.067700
     25 HO2         5.2130   -1.0060    1.9060 ho        1 MZB      0.451000
     26 H53        -0.2240    0.7970    2.2600 hn        1 MZB      0.475133
@<TRIPOS>BOND
     1    1    2 2   
     2    2    3 1   
     3    2    4 1   
     4    3   13 1   
     5    3   14 1   
     6    3   15 1   
     7    4    5 1   
     8    4   11 1   
     9    4   16 1   
    10    5    6 1   
    11    5    7 1   
    12    5   17 1   
    13    6   18 1   
    14    6   19 1   
    15    6   26 1   
    16    7    8 1   
    17    7    9 1   
    18    7   20 1   
    19    8   21 1   
    20    9   10 1   
    21    9   11 1   
    22    9   22 1   
    23   10   23 1   
    24   11   12 1   
    25   11   24 1   
    26   12   25 1   
@<TRIPOS>SUBSTRUCTURE
     1 MZB         1 TEMP              0 ****  ****    0 ROOT
