@<TRIPOS>MOLECULE
MZB
   25    25     1     0     0
SMALL
bcc


@<TRIPOS>ATOM
      1 O6         -2.6280   -0.9680    0.2900 o         1 MZB     -0.516200
      2 S6         -2.0060    0.3830    0.4480 s4        1 MZB      0.264600
      3 C7         -2.5980    1.3370   -0.8750 c3        1 MZB     -0.129800
      4 C1         -0.3250    0.1650   -0.0640 c3        1 MZB     -0.088400
      5 C5          0.2310   -1.2030    0.3860 c3        1 MZB      0.179500
      6 N5         -0.0820   -2.2630   -0.5450 n3        1 MZB     -0.921800
      7 C4          1.7530   -0.9680    0.5910 c3        1 MZB      0.116100
      8 O4          2.5450   -1.1650   -0.5590 oh        1 MZB     -0.589800
      9 C3          1.8560    0.5000    1.0650 c3        1 MZB      0.081100
     10 O3          3.0100    1.1690    0.6130 oh        1 MZB     -0.594800
     11 C2          0.5800    1.2230    0.5670 c3        1 MZB      0.139100
     12 O2          0.8610    2.1980   -0.4210 oh        1 MZB     -0.606800
     13 H7         -3.5590    1.8160   -0.5700 h1        1 MZB      0.093033
     14 H7A        -1.8740    2.1450   -1.1360 h1        1 MZB      0.093033
     15 H7B        -2.8020    0.7480   -1.7980 h1        1 MZB      0.093033
     16 H1         -0.2340    0.2530   -1.1810 h1        1 MZB      0.123700
     17 H5         -0.1950   -1.4130    1.4180 h1        1 MZB      0.024700
     18 HN5         0.3360   -3.1200   -0.2430 hn        1 MZB      0.378300
     19 HN5A       -1.0770   -2.3690   -0.6240 hn        1 MZB      0.378300
     20 H4          2.1790   -1.6700    1.3570 h1        1 MZB      0.083700
     21 HO4         2.0100   -0.9470   -1.3350 ho        1 MZB      0.424000
     22 H3          1.9130    0.5460    2.1870 h1        1 MZB      0.080700
     23 HO3         3.2550    0.8040   -0.2500 ho        1 MZB      0.427000
     24 H2          0.0670    1.7300    1.4330 h1        1 MZB      0.038700
     25 HO2         1.6620    2.6670   -0.1430 ho        1 MZB      0.427000
@<TRIPOS>BOND
     1    1    2 2   
     2    2    3 1   
     3    2    4 1   
     4    3   13 1   
     5    3   14 1   
     6    3   15 1   
     7    4    5 1   
     8    4   11 1   
     9    4   16 1   
    10    5    6 1   
    11    5    7 1   
    12    5   17 1   
    13    6   18 1   
    14    6   19 1   
    15    7    8 1   
    16    7    9 1   
    17    7   20 1   
    18    8   21 1   
    19    9   10 1   
    20    9   11 1   
    21    9   22 1   
    22   10   23 1   
    23   11   12 1   
    24   11   24 1   
    25   12   25 1   
@<TRIPOS>SUBSTRUCTURE
     1 MZB         1 TEMP              0 ****  ****    0 ROOT
