@<TRIPOS>MOLECULE
MZB
   26    26     1     0     0
SMALL
bcc


@<TRIPOS>ATOM
      1 O6          0.0250    0.1260    0.4190 o         1 MZB     -0.549200
      2 S6          1.4350   -0.1540   -0.0280 s4        1 MZB      0.314600
      3 C7          1.5580   -1.8600   -0.2000 c3        1 MZB     -0.148800
      4 C1          2.2760    0.0700    1.5390 c3        1 MZB     -0.111400
      5 C5          1.7630    1.3070    2.2790 c3        1 MZB      0.119500
      6 N5          0.4750    1.0710    2.9940 nz        1 MZB     -0.831600
      7 C4          2.9240    1.7430    3.2270 c3        1 MZB      0.106100
      8 O4          2.7400    1.1960    4.5090 oh        1 MZB     -0.606800
      9 C3          4.2120    1.2660    2.5150 c3        1 MZB      0.077100
     10 O3          5.0250    0.5530    3.4220 oh        1 MZB     -0.591800
     11 C2          3.7890    0.2830    1.3930 c3        1 MZB      0.185100
     12 O2          4.3920   -0.9890    1.4700 oh        1 MZB     -0.589800
     13 H7          0.8000   -2.4450    0.3760 h1        1 MZB      0.118700
     14 H7A         1.4110   -2.1230   -1.2790 h1        1 MZB      0.118700
     15 H7B         2.5710   -2.2320    0.0970 h1        1 MZB      0.118700
     16 H1          2.1390   -0.8520    2.1690 h1        1 MZB      0.126700
     17 H5          1.5680    2.1400    1.5390 hx        1 MZB      0.112700
     18 HN5         0.6270    0.4020    3.7560 hn        1 MZB      0.475133
     19 HN5A       -0.2260    0.6990    2.3220 hn        1 MZB      0.475133
     20 H4          2.9120    2.8590    3.3650 h1        1 MZB      0.101700
     21 HO4         3.3260    0.4280    4.6240 ho        1 MZB      0.454000
     22 H3          4.7590    2.1440    2.0800 h1        1 MZB      0.085700
     23 HO3         5.5980    1.1900    3.8720 ho        1 MZB      0.445000
     24 H2          4.0360    0.7370    0.3910 h1        1 MZB      0.067700
     25 HO2         5.2680   -0.8960    1.8740 ho        1 MZB      0.451000
     26 H53         0.1440    1.9510    3.3970 hn        1 MZB      0.475133
@<TRIPOS>BOND
     1    1    2 2   
     2    2    3 1   
     3    2    4 1   
     4    3   13 1   
     5    3   14 1   
     6    3   15 1   
     7    4    5 1   
     8    4   11 1   
     9    4   16 1   
    10    5    6 1   
    11    5    7 1   
    12    5   17 1   
    13    6   18 1   
    14    6   19 1   
    15    6   26 1   
    16    7    8 1   
    17    7    9 1   
    18    7   20 1   
    19    8   21 1   
    20    9   10 1   
    21    9   11 1   
    22    9   22 1   
    23   10   23 1   
    24   11   12 1   
    25   11   24 1   
    26   12   25 1   
@<TRIPOS>SUBSTRUCTURE
     1 MZB         1 TEMP              0 ****  ****    0 ROOT
