@<TRIPOS>MOLECULE
MZC
   39    39     1     0     0
SMALL
bcc


@<TRIPOS>ATOM
      1 C1         -0.3840   -0.4550   -0.2520 ca        1 MZC     -0.093000
      2 N1          4.0690   -0.8480   -0.8370 n1        1 MZC     -0.270800
      3 C2          0.7680    0.1360   -0.7830 ca        1 MZC     -0.079300
      4 N2          2.6790    1.3410   -4.8640 n4        1 MZC     -0.693800
      5 O2         -3.8700    1.3660    1.2260 oh        1 MZC     -0.540600
      6 C3          1.1480    1.4150   -0.3640 ca        1 MZC     -0.091000
      7 O3         -4.3800   -0.5880    2.1700 os        1 MZC     -0.366400
      8 C4          0.3860    2.1040    0.5800 ca        1 MZC     -0.082000
      9 C5         -0.7510    1.5220    1.1350 ca        1 MZC     -0.134000
     10 C6         -1.1410    0.2340    0.7180 ca        1 MZC     -0.066200
     11 C7          1.6190   -0.6610   -1.7320 c3        1 MZC      0.059700
     12 C8          2.9850   -0.7460   -1.2440 c1        1 MZC      0.151700
     13 C10         1.5730   -0.1680   -3.1810 c3        1 MZC     -0.101400
     14 C11         2.4160    1.0810   -3.4170 c3        1 MZC      0.097800
     15 C13         3.3710    2.6930   -5.0860 c         1 MZC      0.565100
     16 C14         4.5280    2.6630   -6.0190 c3        1 MZC     -0.192100
     17 C17        -3.4450    0.1340    1.5450 c2        1 MZC      0.729900
     18 C18        -5.6780    0.0210    2.4300 c3        1 MZC      0.129700
     19 OXT         2.8840    3.6280   -4.4780 o         1 MZC     -0.393100
     20 H1         -0.6770   -1.4700   -0.5730 ha        1 MZC      0.165000
     21 HN2         1.7870    1.3450   -5.3730 hn        1 MZC      0.460300
     22 HN3        -3.2040    1.8850    0.7270 ho        1 MZC      0.502000
     23 H4         -1.3010    2.0620    1.9250 ha        1 MZC      0.162000
     24 H5          0.7010    3.1080    0.9150 ha        1 MZC      0.181000
     25 H8          1.2160   -1.7260   -1.7560 hc        1 MZC      0.114700
     26 H10         1.9400   -1.0110   -3.8300 hc        1 MZC      0.082200
     27 H10A        0.5040    0.0360   -3.4560 hc        1 MZC      0.082200
     28 H11         3.4200    0.9890   -2.9090 hx        1 MZC      0.118700
     29 H11A        1.8870    1.9880   -2.9980 hx        1 MZC      0.118700
     30 H14         4.2380    2.2490   -7.0190 hc        1 MZC      0.126700
     31 H14A        4.8960    3.7160   -6.1610 hc        1 MZC      0.126700
     32 H14B        5.3650    2.0490   -5.5940 hc        1 MZC      0.126700
     33 H18        -6.1610    0.2900    1.4610 h1        1 MZC      0.103033
     34 H18A       -6.2060   -0.8220    2.9510 h1        1 MZC      0.103033
     35 H18B       -5.5430    0.9100    3.0910 h1        1 MZC      0.103033
     36 HN1         2.0730    1.8730   -0.7500 ha        1 MZC      0.155000
     37 N3         -2.2470   -0.4330    1.3210 nh        1 MZC     -0.282200
     38 H22         3.2630    0.5910   -5.2490 hn        1 MZC      0.460300
     39 H32        -2.1100   -1.3850    1.6230 hn        1 MZC      0.362700
@<TRIPOS>BOND
     1    1    3 ar  
     2    1   10 ar  
     3    1   20 1   
     4    2   12 3   
     5    3    6 ar  
     6    3   11 1   
     7    4   14 1   
     8    4   15 1   
     9    4   21 1   
    10    4   38 1   
    11    5   17 1   
    12    5   22 1   
    13    6    8 ar  
    14    6   36 1   
    15    7   17 1   
    16    7   18 1   
    17    8    9 ar  
    18    8   24 1   
    19    9   10 ar  
    20    9   23 1   
    21   10   37 1   
    22   11   12 1   
    23   11   13 1   
    24   11   25 1   
    25   13   14 1   
    26   13   26 1   
    27   13   27 1   
    28   14   28 1   
    29   14   29 1   
    30   15   16 1   
    31   15   19 2   
    32   16   30 1   
    33   16   31 1   
    34   16   32 1   
    35   17   37 2   
    36   18   33 1   
    37   18   34 1   
    38   18   35 1   
    39   37   39 1   
@<TRIPOS>SUBSTRUCTURE
     1 MZC         1 TEMP              0 ****  ****    0 ROOT
