@<TRIPOS>MOLECULE
MZC
   38    39     1     0     0
SMALL
bcc


@<TRIPOS>ATOM
      1 C1         -0.5770    0.7640    0.0030 ce        1 MZC     -0.315600
      2 N1          3.1070    0.6610    0.0570 n3        1 MZC     -0.247400
      3 C2          0.8010    0.8910   -0.3340 cf        1 MZC      0.021800
      4 N2          1.7410    1.4600   -5.2370 n4        1 MZC     -0.685800
      5 O2         -3.4400    0.8770   -0.2180 o         1 MZC     -0.567000
      6 C3          1.8390    0.8230    0.7970 c3        1 MZC     -0.007600
      7 O3         -4.5120   -0.0040    1.5670 os        1 MZC     -0.431900
      8 C4          1.4390   -0.1850    1.8170 c2        1 MZC     -0.120200
      9 C5          0.1400   -0.4680    2.0120 ce        1 MZC     -0.233600
     10 C6         -0.9200    0.1070    1.1610 ce        1 MZC      0.311200
     11 C7          1.4790    0.9350   -1.5210 cf        1 MZC     -0.317300
     12 C8          2.9470    0.7980   -1.2580 c1        1 MZC     -0.008900
     13 C10         0.9520    1.0150   -2.8890 c3        1 MZC     -0.008200
     14 C11         2.0240    1.6430   -3.7810 c3        1 MZC      0.098800
     15 C13         2.8410    2.0610   -6.0920 c         1 MZC      0.555100
     16 C14         4.1690    1.3920   -6.0260 c3        1 MZC     -0.185100
     17 C17        -3.3610    0.3100    0.8820 c         1 MZC      0.748100
     18 C18        -5.7330    0.3860    0.9240 c3        1 MZC      0.136700
     19 OXT         2.5090    3.0380   -6.7430 o         1 MZC     -0.404100
     20 H1         -1.3280    1.1550   -0.7030 ha        1 MZC      0.186000
     21 HN2         0.8440    1.9090   -5.4680 hn        1 MZC      0.455800
     22 HN3        -2.3810   -0.5640    2.4520 hn        1 MZC      0.351500
     23 H4         -0.1630   -1.1640    2.8130 ha        1 MZC      0.155000
     24 H5          2.2330   -0.6290    2.4360 ha        1 MZC      0.157000
     25 H8          3.9670    0.5520    0.5330 hn        1 MZC      0.312700
     26 H10         0.6980   -0.0230   -3.2450 hc        1 MZC      0.065700
     27 H10A        0.0080    1.6240   -2.9180 hc        1 MZC      0.065700
     28 H11         3.0280    1.1700   -3.5480 hx        1 MZC      0.126700
     29 H11A        2.0900    2.7500   -3.5800 hx        1 MZC      0.126700
     30 H14         4.6870    1.6730   -5.0710 hc        1 MZC      0.115700
     31 H14A        4.7910    1.7510   -6.8890 hc        1 MZC      0.115700
     32 H14B        4.0830    0.2780   -6.0780 hc        1 MZC      0.115700
     33 H18        -5.8240   -0.1310   -0.0610 h1        1 MZC      0.063033
     34 H18A       -6.5150    0.0430    1.6470 h1        1 MZC      0.063033
     35 H18B       -5.7520    1.4930    0.7860 h1        1 MZC      0.063033
     36 HN1         1.8750    1.8320    1.3210 h1        1 MZC      0.115700
     37 N3         -2.2320   -0.0950    1.5830 n         1 MZC     -0.449500
     38 H22         1.6620    0.4590   -5.4410 hn        1 MZC      0.455800
@<TRIPOS>BOND
     1    1    3 2   
     2    1   10 1   
     3    1   20 1   
     4    2    6 1   
     5    2   12 2   
     6    2   25 1   
     7    3    6 1   
     8    3   11 1   
     9    4   14 1   
    10    4   15 1   
    11    4   21 1   
    12    4   38 1   
    13    5   17 2   
    14    6    8 1   
    15    6   36 1   
    16    7   17 1   
    17    7   18 1   
    18    8    9 2   
    19    8   24 1   
    20    9   10 1   
    21    9   23 1   
    22   10   37 2   
    23   11   12 2   
    24   11   13 1   
    25   13   14 1   
    26   13   26 1   
    27   13   27 1   
    28   14   28 1   
    29   14   29 1   
    30   15   16 1   
    31   15   19 2   
    32   16   30 1   
    33   16   31 1   
    34   16   32 1   
    35   17   37 1   
    36   18   33 1   
    37   18   34 1   
    38   18   35 1   
    39   22   37 1   
@<TRIPOS>SUBSTRUCTURE
     1 MZC         1 TEMP              0 ****  ****    0 ROOT
