@<TRIPOS>MOLECULE
MZC
   37    38     1     0     0
SMALL
bcc


@<TRIPOS>ATOM
      1 C1         -1.2400    0.1870    0.3060 ca        1 MZC     -0.112000
      2 N1         -0.0370    3.5370   -0.3250 na        1 MZC     -0.189400
      3 C2         -0.4500    1.3220    0.1440 ca        1 MZC     -0.063800
      4 N2          3.9330   -0.6990   -0.2200 n         1 MZC     -0.568900
      5 O2         -1.9620   -2.6180    0.4900 o         1 MZC     -0.580000
      6 C3         -1.0500    2.5790   -0.2420 ca        1 MZC     -0.068200
      7 O3         -4.1790   -2.9840    0.3120 os        1 MZC     -0.450900
      8 C4         -2.4320    2.6710   -0.4640 ca        1 MZC     -0.116000
      9 C5         -3.1990    1.5330   -0.3040 ca        1 MZC     -0.155000
     10 C6         -2.6200    0.2860    0.0820 ca        1 MZC      0.038600
     11 C7          0.9700    1.5740    0.2870 cc        1 MZC     -0.142400
     12 C8          1.1750    2.9250   -0.0050 cd        1 MZC     -0.092100
     13 C10         1.9930    0.5970    0.6800 c3        1 MZC     -0.034200
     14 C11         2.8960    0.2500   -0.5140 c3        1 MZC      0.087000
     15 C13         5.2400   -0.3200    0.0260 c         1 MZC      0.652100
     16 C14         6.2060   -1.4040    0.4420 c3        1 MZC     -0.176100
     17 C17        -3.0930   -2.1240    0.3500 c         1 MZC      0.743100
     18 C18        -3.8660   -4.3670    0.4870 c3        1 MZC      0.140700
     19 OXT         5.6160    0.8590   -0.1300 o         1 MZC     -0.613100
     20 H1         -0.7720   -0.7670    0.6020 ha        1 MZC      0.174000
     21 HN2         3.6450   -1.6080    0.0520 hn        1 MZC      0.304500
     22 HN3        -4.4630   -0.6440    0.0990 hn        1 MZC      0.334500
     23 H4         -2.8970    3.6220   -0.7580 ha        1 MZC      0.135000
     24 H5         -4.2850    1.6010   -0.4780 ha        1 MZC      0.130000
     25 H8          2.1070    3.4940   -0.0070 h4        1 MZC      0.173000
     26 H10         2.6180    1.0180    1.5140 hc        1 MZC      0.052700
     27 H10A        1.4960   -0.3330    1.0660 hc        1 MZC      0.052700
     28 H11         3.3720    1.1980   -0.8960 h1        1 MZC      0.065200
     29 H11A        2.2550   -0.1820   -1.3360 h1        1 MZC      0.065200
     30 H14         5.8830   -1.8690    1.4040 hc        1 MZC      0.064700
     31 H14A        6.2680   -2.1950   -0.3440 hc        1 MZC      0.064700
     32 H14B        7.2170   -0.9490    0.5800 hc        1 MZC      0.064700
     33 H18        -3.1860   -4.7100   -0.3290 h1        1 MZC      0.052700
     34 H18A       -3.3840   -4.5260    1.4820 h1        1 MZC      0.052700
     35 H18B       -4.8650   -4.8650    0.4290 h1        1 MZC      0.052700
     36 HN1        -0.1620    4.4820   -0.5720 hn        1 MZC      0.299700
     37 N3         -3.4920   -0.8090    0.2520 n         1 MZC     -0.441100
@<TRIPOS>BOND
     1    1    3 ar  
     2    1   10 ar  
     3    1   20 1   
     4    2    6 1   
     5    2   12 1   
     6    2   36 1   
     7    3    6 ar  
     8    3   11 1   
     9    4   14 1   
    10    4   15 1   
    11    4   21 1   
    12    5   17 2   
    13    6    8 ar  
    14    7   17 1   
    15    7   18 1   
    16    8    9 ar  
    17    8   23 1   
    18    9   10 ar  
    19    9   24 1   
    20   10   37 1   
    21   11   12 2   
    22   11   13 1   
    23   12   25 1   
    24   13   14 1   
    25   13   26 1   
    26   13   27 1   
    27   14   28 1   
    28   14   29 1   
    29   15   16 1   
    30   15   19 2   
    31   16   30 1   
    32   16   31 1   
    33   16   32 1   
    34   17   37 1   
    35   18   33 1   
    36   18   34 1   
    37   18   35 1   
    38   22   37 1   
@<TRIPOS>SUBSTRUCTURE
     1 MZC         1 TEMP              0 ****  ****    0 ROOT
