@<TRIPOS>MOLECULE
MZC
   38    39     1     0     0
SMALL
bcc


@<TRIPOS>ATOM
      1 C1         -0.7280    0.8340   -0.0770 ce        1 MZC     -0.315600
      2 N1          2.8490    1.5860    0.3950 n7        1 MZC     -0.247400
      3 C2          0.6060    1.3030   -0.2470 cf        1 MZC      0.021800
      4 N2          1.9880    1.7250   -5.0540 ny        1 MZC     -0.685800
      5 O2         -3.4760    0.2250   -0.6600 o         1 MZC     -0.567000
      6 C3          1.5080    1.4110    0.9920 c3        1 MZC     -0.008600
      7 O3         -4.4990   -0.9510    0.9780 os        1 MZC     -0.431900
      8 C4          1.2540    0.2840    1.9300 c2        1 MZC     -0.120200
      9 C5          0.0470   -0.3060    1.9650 ce        1 MZC     -0.233600
     10 C6         -1.0230    0.0470    1.0110 ce        1 MZC      0.311200
     11 C7          1.3710    1.5840   -1.3450 cf        1 MZC     -0.317300
     12 C8          2.7960    1.7640   -0.9230 c1        1 MZC     -0.009900
     13 C10         0.9690    1.7010   -2.7530 c3        1 MZC     -0.009200
     14 C11         2.1640    1.3160   -3.6270 c3        1 MZC      0.098800
     15 C13         3.2040    1.3630   -5.8840 c         1 MZC      0.555100
     16 C14         4.4560    2.1100   -5.5840 c3        1 MZC     -0.185100
     17 C17        -3.3890   -0.3430    0.4390 c         1 MZC      0.748100
     18 C18        -5.6960   -0.8450    0.1960 c3        1 MZC      0.136700
     19 OXT         3.0180    0.4880   -6.7140 o         1 MZC     -0.404100
     20 H1         -1.4730    1.0750   -0.8540 ha        1 MZC      0.186000
     21 HN2         1.8370    2.7380   -5.0970 hn        1 MZC      0.455800
     22 HN3        -2.4100   -1.0120    2.1070 hn        1 MZC      0.351500
     23 H4         -0.1640   -1.0950    2.7080 ha        1 MZC      0.154000
     24 H5          2.0600    0.0060    2.6260 ha        1 MZC      0.157000
     25 H8          3.6560    1.6520    0.9630 hn        1 MZC      0.312700
     26 H10         0.0890    1.0380   -2.9730 hc        1 MZC      0.065700
     27 H10A        0.6540    2.7630   -2.9560 hc        1 MZC      0.065700
     28 H11         2.3110    0.1990   -3.6050 hx        1 MZC      0.127200
     29 H11A        3.0990    1.8160   -3.2230 hx        1 MZC      0.127200
     30 H14         4.9150    1.7140   -4.6390 hc        1 MZC      0.115700
     31 H14A        4.2740    3.2080   -5.4670 hc        1 MZC      0.115700
     32 H14B        5.1790    1.9480   -6.4270 hc        1 MZC      0.115700
     33 H18        -5.5440   -1.3350   -0.7950 h1        1 MZC      0.063033
     34 H18A       -5.9680    0.2290    0.0630 h1        1 MZC      0.063033
     35 H18B       -6.4480   -1.3910    0.8190 h1        1 MZC      0.063033
     36 HN1         1.2510    2.3710    1.5460 h1        1 MZC      0.116700
     37 N3         -2.2830   -0.4880    1.2680 ns        1 MZC     -0.449500
     38 H22         1.1570    1.2580   -5.4420 hn        1 MZC      0.455800
@<TRIPOS>BOND
     1    1    3 2   
     2    1   10 1   
     3    1   20 1   
     4    2    6 1   
     5    2   12 2   
     6    2   25 1   
     7    3    6 1   
     8    3   11 1   
     9    4   14 1   
    10    4   15 1   
    11    4   21 1   
    12    4   38 1   
    13    5   17 2   
    14    6    8 1   
    15    6   36 1   
    16    7   17 1   
    17    7   18 1   
    18    8    9 2   
    19    8   24 1   
    20    9   10 1   
    21    9   23 1   
    22   10   37 2   
    23   11   12 2   
    24   11   13 1   
    25   13   14 1   
    26   13   26 1   
    27   13   27 1   
    28   14   28 1   
    29   14   29 1   
    30   15   16 1   
    31   15   19 2   
    32   16   30 1   
    33   16   31 1   
    34   16   32 1   
    35   17   37 1   
    36   18   33 1   
    37   18   34 1   
    38   18   35 1   
    39   22   37 1   
@<TRIPOS>SUBSTRUCTURE
     1 MZC         1 TEMP              0 ****  ****    0 ROOT
