@<TRIPOS>MOLECULE
MZH
   29    24     1     0     0
SMALL
bcc


@<TRIPOS>ATOM
      1 N1          0.4670   -0.1420    0.6290 n         1 MZH     -0.416000
      2 C1          1.8570   -0.2770    0.8450 c2        1 MZH      0.200000
      3 O1          2.7110    0.0070    0.0020 o         1 MZH     -0.252000
      4 C2          2.1050   -0.8410    2.2490 c1        1 MZH      0.105000
      5 N2         -2.6010    2.8080   -3.0630 n3        1 MZH     -0.325000
      6 C3          0.7510   -0.9900    2.8390 c3        1 MZH     -0.324000
      7 C4         -0.2470   -0.5370    1.7630 c2        1 MZH      0.285000
      8 O3         -1.4820   -0.5350    1.8660 o         1 MZH     -0.353000
      9 C5         -0.9400    0.9130   -1.5990 c1        1 MZH     -0.072000
     10 O4         -0.8640    2.1970   -1.6110 os        1 MZH     -0.117000
     11 C6         -3.6580   -0.0170   -0.3620 c2        1 MZH      0.157000
     12 C7         -5.3080    2.1620   -3.8460 c1        1 MZH      0.123000
     13 C8         -6.2660    1.3620   -3.4810 c2        1 MZH     -0.527000
     14 C9         -3.2260    5.3370   -4.9500 c1        1 MZH      0.189000
     15 C10        -1.4250    3.0870   -2.5460 c1        1 MZH      0.044000
     16 H2          2.4630    1.2550    2.8950 ha        1 MZH      0.016000
     17 H3          0.5690   -2.0620    3.1190 hc        1 MZH      0.174000
     18 H5          0.0290    0.2490   -0.2130 hn        1 MZH      0.319000
     19 H5A        -1.5270    0.3980   -2.3930 ha        1 MZH      0.026000
     20 H7         -2.6160    0.0060    0.0320 h4        1 MZH      0.103500
     21 H8         -7.2580    1.2760   -3.9450 ha        1 MZH      0.202500
     22 H10        -3.0290    3.4680   -3.6880 hn        1 MZH      0.243500
     23 H10A       -3.1500    1.9880   -2.8800 hn        1 MZH      0.243500
     24 H9          3.0780    0.9870    3.0250 ha        1 MZH      0.016000
     25 H101        0.6350   -0.3780    3.7710 hc        1 MZH      0.174000
     26 H11        -4.4060   -0.5600    0.2520 h4        1 MZH      0.103500
     27 H12        -6.1180    0.6760   -2.6230 ha        1 MZH      0.202500
     28 O5         -3.3070    6.3330   -5.5580 o         1 MZH     -0.182000
     29 O2         -3.9690    0.5320   -1.4230 o         1 MZH     -0.362000
@<TRIPOS>BOND
     1    1    2 1   
     2    1    7 1   
     3    1   18 1   
     4    2    3 1   
     5    2    4 1   
     6    4    6 1   
     7    5   15 1   
     8    5   22 1   
     9    5   23 1   
    10    6    7 1   
    11    6   17 1   
    12    6   25 1   
    13    7    8 1   
    14    9   10 1   
    15    9   19 1   
    16   10   15 1   
    17   11   20 1   
    18   11   26 1   
    19   11   29 1   
    20   12   13 1   
    21   13   21 1   
    22   13   27 1   
    23   14   28 1   
    24   16   24 1   
@<TRIPOS>SUBSTRUCTURE
     1 MZH         1 TEMP              0 ****  ****    0 ROOT
