@<TRIPOS>MOLECULE
MZH
   29    30     1     0     0
SMALL
bcc


@<TRIPOS>ATOM
      1 N1         -2.1450   -0.0810    0.3390 n         1 MZH     -0.537400
      2 C1         -3.2650    0.7220    0.6640 c         1 MZH      0.704000
      3 O1         -3.2510    1.6280    1.5020 o         1 MZH     -0.585000
      4 C2         -4.4700    0.2630   -0.1500 c3        1 MZH     -0.163400
      5 N2          2.1450   -0.0750   -0.3380 n         1 MZH     -0.537400
      6 C3         -3.9580   -0.8940   -1.0050 c3        1 MZH     -0.163400
      7 C4         -2.4770   -1.0210   -0.6610 c         1 MZH      0.704000
      8 O3         -1.6790   -1.8180   -1.1640 o         1 MZH     -0.585000
      9 C5         -0.8260    0.1320    0.8810 c3        1 MZH      0.279800
     10 O4         -0.0010    0.8990    0.0060 os        1 MZH     -0.429600
     11 C6          2.4780   -1.0250    0.6510 c         1 MZH      0.704000
     12 C7          3.9590   -0.9000    0.9970 c3        1 MZH     -0.163400
     13 C8          4.4700    0.2660    0.1540 c3        1 MZH     -0.163400
     14 C9          3.2640    0.7330   -0.6550 c         1 MZH      0.704000
     15 C10         0.8250    0.1420   -0.8780 c3        1 MZH      0.279800
     16 H2         -5.2880   -0.0540    0.5420 hc        1 MZH      0.090950
     17 H3         -4.4770   -1.8550   -0.7690 hc        1 MZH      0.090950
     18 H5         -0.9250    0.7800    1.8020 h2        1 MZH      0.099200
     19 H5A        -0.3580   -0.8700    1.1070 h2        1 MZH      0.099200
     20 H7          4.0680   -0.7090    2.0920 hc        1 MZH      0.090950
     21 H8          4.8400    1.1110    0.7850 hc        1 MZH      0.090950
     22 H10         0.9240    0.8000   -1.7920 h2        1 MZH      0.099200
     23 H10A        0.3590   -0.8580   -1.1150 h2        1 MZH      0.099200
     24 H9         -4.8410    1.1140   -0.7720 hc        1 MZH      0.090950
     25 H101       -4.0670   -0.6910   -2.0990 hc        1 MZH      0.090950
     26 H11         4.4790   -1.8580    0.7500 hc        1 MZH      0.090950
     27 H12         5.2880   -0.0420   -0.5420 hc        1 MZH      0.090950
     28 O5          3.2490    1.6480   -1.4830 o         1 MZH     -0.585000
     29 O2          1.6810   -1.8290    1.1450 o         1 MZH     -0.585000
@<TRIPOS>BOND
     1    1    2 1   
     2    1    7 1   
     3    1    9 1   
     4    2    3 2   
     5    2    4 1   
     6    4    6 1   
     7    4   16 1   
     8    4   24 1   
     9    5   11 1   
    10    5   14 1   
    11    5   15 1   
    12    6    7 1   
    13    6   17 1   
    14    6   25 1   
    15    7    8 2   
    16    9   10 1   
    17    9   18 1   
    18    9   19 1   
    19   10   15 1   
    20   11   12 1   
    21   11   29 2   
    22   12   13 1   
    23   12   20 1   
    24   12   26 1   
    25   13   14 1   
    26   13   21 1   
    27   13   27 1   
    28   14   28 2   
    29   15   22 1   
    30   15   23 1   
@<TRIPOS>SUBSTRUCTURE
     1 MZH         1 TEMP              0 ****  ****    0 ROOT
