@<TRIPOS>MOLECULE
MZH
   29    23     1     0     0
SMALL
bcc


@<TRIPOS>ATOM
      1 N1          0.9090   -0.1100   -0.1000 n         1 MZH     -0.391000
      2 C1          1.9170   -0.2200    0.8920 c2        1 MZH      0.203000
      3 O1          3.0960   -0.4620    0.6340 o         1 MZH     -0.230000
      4 C2          1.2880   -0.0080    2.2750 c1        1 MZH      0.122000
      5 N2         -2.9010    1.7400   -2.3780 n3        1 MZH     -0.315000
      6 C3         -0.1460    0.2660    2.0000 c3        1 MZH     -0.322000
      7 C4         -0.3260    0.1750    0.4800 c2        1 MZH      0.308000
      8 O3         -1.3910    0.3170   -0.1480 o         1 MZH     -0.393000
      9 C5         -0.5900   -0.0470   -2.5010 c1        1 MZH     -0.037000
     10 O4         -0.6510    1.2190   -2.7490 os        1 MZH     -0.123000
     11 C6         -3.9770    0.5420    0.5100 c1        1 MZH      0.183000
     12 C7         -5.9340    2.2710   -1.7240 c1        1 MZH     -0.225000
     13 C8         -6.3210    3.0110   -2.5810 c1        1 MZH     -0.225000
     14 C9         -2.2940    3.8120   -4.4520 c1        1 MZH      0.183000
     15 C10        -1.7930    1.9680   -3.0520 c1        1 MZH      0.019000
     16 H2          2.3480    1.8700    2.7060 ha        1 MZH      0.010750
     17 H3         -0.7940   -0.4940    2.5180 hc        1 MZH      0.182500
     18 H5          1.0340   -0.2050   -1.0920 hn        1 MZH      0.304000
     19 H5A        -1.5320   -0.6420   -2.5450 ha        1 MZH      0.013000
     20 H7         -3.4880   -1.1550   -1.2180 ha        1 MZH      0.010750
     21 H8         -6.6610    3.6690   -3.3410 ha        1 MZH      0.226000
     22 H10        -3.6880    2.3270   -2.5700 hn        1 MZH      0.237000
     23 H10A       -3.0280    1.0510   -1.6600 hn        1 MZH      0.237000
     24 H9          2.0050    2.0710    2.1490 ha        1 MZH      0.010750
     25 H101       -0.4550    1.2740    2.3810 hc        1 MZH      0.182500
     26 H11        -2.9740   -1.3260   -0.8100 ha        1 MZH      0.010750
     27 H12        -5.5950    1.6130   -0.9600 ha        1 MZH      0.226000
     28 O5         -1.3030    4.0250   -5.0470 o         1 MZH     -0.203000
     29 O2         -3.5920    0.1610    1.5480 o         1 MZH     -0.203000
@<TRIPOS>BOND
     1    1    2 1   
     2    1    7 1   
     3    1   18 1   
     4    2    3 1   
     5    2    4 1   
     6    4    6 1   
     7    5   15 1   
     8    5   22 1   
     9    5   23 1   
    10    6    7 1   
    11    6   17 1   
    12    6   25 1   
    13    7    8 1   
    14    9   10 1   
    15    9   19 1   
    16   10   15 1   
    17   11   29 1   
    18   12   13 1   
    19   12   27 1   
    20   13   21 1   
    21   14   28 1   
    22   16   24 1   
    23   20   26 1   
@<TRIPOS>SUBSTRUCTURE
     1 MZH         1 TEMP              0 ****  ****    0 ROOT
