@<TRIPOS>MOLECULE
MZL
   47    50     1     0     0
SMALL
bcc


@<TRIPOS>ATOM
      1 N1          0.0980   -0.1390    0.0360 na        1 MZL      0.167300
      2 C2         -0.7340   -0.2080   -1.1210 ca        1 MZL     -0.014200
      3 C3          1.5100   -0.0910    0.0360 cc        1 MZL     -0.081600
      4 N4         -0.4080   -0.0550    1.2770 nc        1 MZL     -0.497800
      5 C5         -0.4700   -1.1430   -2.1390 ca        1 MZL     -0.095500
      6 C6         -1.8450    0.6480   -1.2520 ca        1 MZL     -0.095500
      7 C7          1.8930    0.0170    1.3810 cd        1 MZL     -0.286300
      8 C8          2.3860   -0.1170   -1.1550 c3        1 MZL     -0.021100
      9 C9          0.6550    0.0350    2.1340 cd        1 MZL      0.359800
     10 C10        -1.2740   -1.2080   -3.2700 ca        1 MZL     -0.165000
     11 C11        -2.6540    0.5770   -2.3760 ca        1 MZL     -0.165000
     12 C12         3.1470   -1.4180   -1.2640 c3        1 MZL     -0.091100
     13 C13         0.5430    0.1310    3.5750 ca        1 MZL     -0.222800
     14 C14        -2.3840   -0.3490   -3.4140 ca        1 MZL      0.074600
     15 C15        -0.6180   -0.2550    4.2610 ca        1 MZL     -0.072000
     16 C16         1.6290    0.6240    4.3390 ca        1 MZL      0.405200
     17 N17        -3.2280   -0.3580   -4.5340 ns        1 MZL     -0.467100
     18 C18        -0.6510   -0.1410    5.6510 ca        1 MZL     -0.250300
     19 N19         1.6070    0.7370    5.6780 nb        1 MZL     -0.667000
     20 C20        -3.1980   -1.2400   -5.6080 c         1 MZL      0.687700
     21 C21         0.4820    0.3580    6.3160 ca        1 MZL      0.392200
     22 C22        -4.2300   -1.0200   -6.6590 ca        1 MZL     -0.269900
     23 O23        -2.3780   -2.1720   -5.7020 o         1 MZL     -0.579100
     24 C24        -4.8140   -2.1360   -7.2760 ca        1 MZL     -0.039000
     25 C25        -4.6160    0.2660   -7.0890 ca        1 MZL      0.420200
     26 C26        -5.7680   -1.9290   -8.2710 ca        1 MZL     -0.251300
     27 N27        -5.5340    0.4760   -8.0510 nb        1 MZL     -0.665000
     28 C28        -6.0980   -0.6060   -8.6220 ca        1 MZL      0.417200
     29 H5          0.3800   -1.8410   -2.0490 ha        1 MZL      0.154000
     30 H6         -2.0870    1.3760   -0.4600 ha        1 MZL      0.154000
     31 H7          2.9000    0.0670    1.7780 ha        1 MZL      0.167000
     32 H8          1.7930    0.0540   -2.0950 hc        1 MZL      0.061200
     33 H8A         3.1140    0.7350   -1.0640 hc        1 MZL      0.061200
     34 H10        -1.0320   -1.9520   -4.0480 ha        1 MZL      0.158000
     35 H11        -3.5160    1.2590   -2.4470 ha        1 MZL      0.158000
     36 H12         2.4490   -2.2800   -1.3960 hc        1 MZL      0.040700
     37 H12A        3.8350   -1.3810   -2.1430 hc        1 MZL      0.040700
     38 H12B        3.7530   -1.5960   -0.3430 hc        1 MZL      0.040700
     39 H15        -1.4900   -0.6430    3.7130 ha        1 MZL      0.153000
     40 H16         2.5620    0.9490    3.8430 h4        1 MZL      0.023100
     41 HN17       -3.9660    0.3120   -4.5190 hn        1 MZL      0.321500
     42 H18        -1.5440   -0.4350    6.2190 ha        1 MZL      0.143000
     43 H21         0.4960    0.4620    7.4150 h4        1 MZL      0.021100
     44 H24        -4.5090   -3.1510   -6.9760 ha        1 MZL      0.163000
     45 H25        -4.1620    1.1800   -6.6640 h4        1 MZL      0.027100
     46 H26        -6.2500   -2.7760   -8.7770 ha        1 MZL      0.153000
     47 H28        -6.8500   -0.3970   -9.4050 h4        1 MZL      0.030100
@<TRIPOS>BOND
     1    1    2 1   
     2    1    3 1   
     3    1    4 1   
     4    2    5 ar  
     5    2    6 ar  
     6    3    7 2   
     7    3    8 1   
     8    4    9 2   
     9    5   10 ar  
    10    5   29 1   
    11    6   11 ar  
    12    6   30 1   
    13    7    9 1   
    14    7   31 1   
    15    8   12 1   
    16    8   32 1   
    17    8   33 1   
    18    9   13 1   
    19   10   14 ar  
    20   10   34 1   
    21   11   14 ar  
    22   11   35 1   
    23   12   36 1   
    24   12   37 1   
    25   12   38 1   
    26   13   15 ar  
    27   13   16 ar  
    28   14   17 1   
    29   15   18 ar  
    30   15   39 1   
    31   16   19 ar  
    32   16   40 1   
    33   17   20 1   
    34   17   41 1   
    35   18   21 ar  
    36   18   42 1   
    37   19   21 ar  
    38   20   22 1   
    39   20   23 2   
    40   21   43 1   
    41   22   24 ar  
    42   22   25 ar  
    43   24   26 ar  
    44   24   44 1   
    45   25   27 ar  
    46   25   45 1   
    47   26   28 ar  
    48   26   46 1   
    49   27   28 ar  
    50   28   47 1   
@<TRIPOS>SUBSTRUCTURE
     1 MZL         1 TEMP              0 ****  ****    0 ROOT
