@<TRIPOS>MOLECULE
MZL
   47    50     1     0     0
SMALL
bcc


@<TRIPOS>ATOM
      1 N1          0.0950   -0.1370    0.0370 na        1 MZL      0.167300
      2 C2         -0.7360   -0.2070   -1.1200 ca        1 MZL     -0.014200
      3 C3          1.5070   -0.0800    0.0380 cc        1 MZL     -0.081600
      4 N4         -0.4110   -0.0610    1.2780 nc        1 MZL     -0.497800
      5 C5         -0.4660   -1.1370   -2.1410 ca        1 MZL     -0.095500
      6 C6         -1.8520    0.6420   -1.2490 ca        1 MZL     -0.095500
      7 C7          1.8900    0.0260    1.3830 cd        1 MZL     -0.286300
      8 C8          2.3830   -0.0970   -1.1530 c3        1 MZL     -0.021100
      9 C9          0.6510    0.0330    2.1360 cd        1 MZL      0.359800
     10 C10        -1.2690   -1.2040   -3.2720 ca        1 MZL     -0.165000
     11 C11        -2.6600    0.5700   -2.3730 ca        1 MZL     -0.165000
     12 C12         3.1530   -1.3920   -1.2670 c3        1 MZL     -0.091100
     13 C13         0.5380    0.1240    3.5770 ca        1 MZL     -0.222800
     14 C14        -2.3840   -0.3510   -3.4140 ca        1 MZL      0.074600
     15 C15        -0.6210   -0.2730    4.2620 ca        1 MZL     -0.072000
     16 C16         1.6200    0.6220    4.3430 ca        1 MZL      0.405200
     17 N17        -3.2280   -0.3610   -4.5340 n         1 MZL     -0.467100
     18 C18        -0.6550   -0.1640    5.6530 ca        1 MZL     -0.250300
     19 N19         1.5980    0.7290    5.6830 nb        1 MZL     -0.667000
     20 C20        -3.1920   -1.2400   -5.6110 c         1 MZL      0.687700
     21 C21         0.4750    0.3400    6.3190 ca        1 MZL      0.392200
     22 C22        -4.2250   -1.0220   -6.6620 ca        1 MZL     -0.269900
     23 O23        -2.3670   -2.1670   -5.7070 o         1 MZL     -0.579100
     24 C24        -4.8030   -2.1390   -7.2820 ca        1 MZL     -0.039000
     25 C25        -4.6180    0.2630   -7.0880 ca        1 MZL      0.420200
     26 C26        -5.7570   -1.9350   -8.2770 ca        1 MZL     -0.251300
     27 N27        -5.5370    0.4710   -8.0500 nb        1 MZL     -0.665000
     28 C28        -6.0940   -0.6130   -8.6240 ca        1 MZL      0.417200
     29 H5          0.3880   -1.8300   -2.0530 ha        1 MZL      0.154000
     30 H6         -2.0990    1.3660   -0.4550 ha        1 MZL      0.154000
     31 H7          2.8960    0.0810    1.7810 ha        1 MZL      0.167000
     32 H8          3.1060    0.7600   -1.0590 hc        1 MZL      0.061200
     33 H8A         1.7900    0.0740   -2.0920 hc        1 MZL      0.061200
     34 H10        -1.0220   -1.9430   -4.0530 ha        1 MZL      0.158000
     35 H11        -3.5260    1.2470   -2.4420 ha        1 MZL      0.158000
     36 H12         3.8410   -1.3470   -2.1450 hc        1 MZL      0.040700
     37 H12A        2.4610   -2.2570   -1.4010 hc        1 MZL      0.040700
     38 H12B        3.7600   -1.5690   -0.3460 hc        1 MZL      0.040700
     39 H15        -1.4890   -0.6650    3.7120 ha        1 MZL      0.153000
     40 H16         2.5510    0.9540    3.8490 h4        1 MZL      0.023100
     41 HN17       -3.9700    0.3040   -4.5180 hn        1 MZL      0.321500
     42 H18        -1.5450   -0.4660    6.2190 ha        1 MZL      0.143000
     43 H21         0.4880    0.4410    7.4190 h4        1 MZL      0.021100
     44 H24        -4.4920   -3.1540   -6.9850 ha        1 MZL      0.163000
     45 H25        -4.1690    1.1780   -6.6600 h4        1 MZL      0.027100
     46 H26        -6.2350   -2.7830   -8.7860 ha        1 MZL      0.153000
     47 H28        -6.8470   -0.4060   -9.4070 h4        1 MZL      0.030100
@<TRIPOS>BOND
     1    1    2 1   
     2    1    3 1   
     3    1    4 1   
     4    2    5 ar  
     5    2    6 ar  
     6    3    7 2   
     7    3    8 1   
     8    4    9 2   
     9    5   10 ar  
    10    5   29 1   
    11    6   11 ar  
    12    6   30 1   
    13    7    9 1   
    14    7   31 1   
    15    8   12 1   
    16    8   32 1   
    17    8   33 1   
    18    9   13 1   
    19   10   14 ar  
    20   10   34 1   
    21   11   14 ar  
    22   11   35 1   
    23   12   36 1   
    24   12   37 1   
    25   12   38 1   
    26   13   15 ar  
    27   13   16 ar  
    28   14   17 1   
    29   15   18 ar  
    30   15   39 1   
    31   16   19 ar  
    32   16   40 1   
    33   17   20 1   
    34   17   41 1   
    35   18   21 ar  
    36   18   42 1   
    37   19   21 ar  
    38   20   22 1   
    39   20   23 2   
    40   21   43 1   
    41   22   24 ar  
    42   22   25 ar  
    43   24   26 ar  
    44   24   44 1   
    45   25   27 ar  
    46   25   45 1   
    47   26   28 ar  
    48   26   46 1   
    49   27   28 ar  
    50   28   47 1   
@<TRIPOS>SUBSTRUCTURE
     1 MZL         1 TEMP              0 ****  ****    0 ROOT
