@<TRIPOS>MOLECULE
MZL
   48    51     1     0     0
SMALL
bcc


@<TRIPOS>ATOM
      1 N1          0.0890    0.1490   -0.4360 na        1 MZL      0.116300
      2 C2         -0.6790    0.4150   -1.5840 ca        1 MZL      0.121800
      3 C3          1.5030    0.2610   -0.2920 cc        1 MZL     -0.059600
      4 N4         -0.5040   -0.1810    0.7440 nc        1 MZL     -0.508800
      5 C5         -0.1990    0.0940   -2.8770 ca        1 MZL     -0.131000
      6 C6         -1.9740    0.9850   -1.4660 ca        1 MZL     -0.131000
      7 C7          1.7800   -0.0410    1.0400 cd        1 MZL     -0.265300
      8 C8          2.4720    0.6740   -1.3300 c3        1 MZL     -0.029100
      9 C9          0.4870   -0.3210    1.6610 cd        1 MZL      0.424800
     10 C10        -0.9650    0.3500   -4.0040 ca        1 MZL     -0.083000
     11 C11        -2.7430    1.2360   -2.5910 ca        1 MZL     -0.083000
     12 C12         3.2540   -0.4980   -1.8770 c3        1 MZL     -0.097100
     13 C13         0.2930   -0.6910    3.0480 ca        1 MZL     -0.264800
     14 C14        -2.2410    0.9220   -3.8680 ca        1 MZL     -0.100400
     15 C15        -0.8520   -1.3760    3.4840 ca        1 MZL     -0.059000
     16 C16         1.2790   -0.3650    4.0100 ca        1 MZL      0.423200
     17 N17        -3.0460    1.2150   -5.0550 n4        1 MZL     -0.536200
     18 C18        -0.9670   -1.7070    4.8340 ca        1 MZL     -0.249300
     19 N19         1.1770   -0.6800    5.3120 nb        1 MZL     -0.657000
     20 C20        -4.4100    0.5350   -5.0100 c         1 MZL      0.590700
     21 C21         0.0710   -1.3400    5.7100 ca        1 MZL      0.416200
     22 C22        -4.4970   -0.8180   -5.5360 ca        1 MZL     -0.328900
     23 O23        -5.3060    1.2410   -4.5670 o         1 MZL     -0.430100
     24 C24        -5.7670   -1.2900   -5.9300 ca        1 MZL     -0.006000
     25 C25        -3.3930   -1.6970   -5.6410 ca        1 MZL      0.454200
     26 C26        -5.8760   -2.5860   -6.4260 ca        1 MZL     -0.241300
     27 N27        -3.4940   -2.9460   -6.1200 nb        1 MZL     -0.646000
     28 C28        -4.7120   -3.3780   -6.5080 ca        1 MZL      0.474200
     29 H5          0.7880   -0.3870   -3.0030 ha        1 MZL      0.186500
     30 H6         -2.3880    1.2350   -0.4710 ha        1 MZL      0.186500
     31 H7          2.7490   -0.0730    1.5270 ha        1 MZL      0.185000
     32 H8          1.9650    1.2270   -2.1660 hc        1 MZL      0.064200
     33 H8A         3.1880    1.4010   -0.8520 hc        1 MZL      0.064200
     34 H10        -0.5520    0.0930   -4.9950 ha        1 MZL      0.160500
     35 H11        -3.7460    1.6830   -2.4700 ha        1 MZL      0.160500
     36 H12         2.5810   -1.2560   -2.3440 hc        1 MZL      0.047700
     37 H12A        3.9790   -0.1410   -2.6480 hc        1 MZL      0.047700
     38 H12B        3.8250   -1.0010   -1.0590 hc        1 MZL      0.047700
     39 H15        -1.6470   -1.6510    2.7750 ha        1 MZL      0.150000
     40 H16         2.1950    0.1810    3.7190 h4        1 MZL      0.026100
     41 HN17       -3.1920    2.2350   -5.0970 hn        1 MZL      0.461800
     42 H18        -1.8470   -2.2440    5.2110 ha        1 MZL      0.153000
     43 H21         0.0210   -1.5850    6.7880 h4        1 MZL      0.034100
     44 H24        -6.6530   -0.6380   -5.8410 ha        1 MZL      0.176000
     45 H25        -2.3790   -1.4090   -5.3020 h4        1 MZL      0.028100
     46 H26        -6.8490   -2.9900   -6.7450 ha        1 MZL      0.182000
     47 H28        -4.7510   -4.4150   -6.9000 h4        1 MZL      0.061100
     48 H172       -2.5410    0.9130   -5.8950 hn        1 MZL      0.461800
@<TRIPOS>BOND
     1    1    2 1   
     2    1    3 1   
     3    1    4 1   
     4    2    5 ar  
     5    2    6 ar  
     6    3    7 2   
     7    3    8 1   
     8    4    9 2   
     9    5   10 ar  
    10    5   29 1   
    11    6   11 ar  
    12    6   30 1   
    13    7    9 1   
    14    7   31 1   
    15    8   12 1   
    16    8   32 1   
    17    8   33 1   
    18    9   13 1   
    19   10   14 ar  
    20   10   34 1   
    21   11   14 ar  
    22   11   35 1   
    23   12   36 1   
    24   12   37 1   
    25   12   38 1   
    26   13   15 ar  
    27   13   16 ar  
    28   14   17 1   
    29   15   18 ar  
    30   15   39 1   
    31   16   19 ar  
    32   16   40 1   
    33   17   20 1   
    34   17   41 1   
    35   17   48 1   
    36   18   21 ar  
    37   18   42 1   
    38   19   21 ar  
    39   20   22 1   
    40   20   23 2   
    41   21   43 1   
    42   22   24 ar  
    43   22   25 ar  
    44   24   26 ar  
    45   24   44 1   
    46   25   27 ar  
    47   25   45 1   
    48   26   28 ar  
    49   26   46 1   
    50   27   28 ar  
    51   28   47 1   
@<TRIPOS>SUBSTRUCTURE
     1 MZL         1 TEMP              0 ****  ****    0 ROOT
