@<TRIPOS>MOLECULE
MZL
   47    50     1     0     0
SMALL
bcc


@<TRIPOS>ATOM
      1 N1          2.0520    0.5260    0.2030 na        1 MZL      0.167300
      2 C2          0.6440    0.3040    0.2110 ca        1 MZL     -0.014200
      3 C3          2.6950    1.7640    0.4340 cc        1 MZL     -0.081600
      4 N4          2.9330   -0.4710    0.0240 nc        1 MZL     -0.497800
      5 C5         -0.2190    1.1500   -0.5100 ca        1 MZL     -0.095500
      6 C6          0.0970   -0.7800    0.9250 ca        1 MZL     -0.095500
      7 C7          4.0720    1.5020    0.3770 cd        1 MZL     -0.286300
      8 C8          2.0300    3.0550    0.7100 c3        1 MZL     -0.021100
      9 C9          4.1830    0.0810    0.1150 cd        1 MZL      0.359800
     10 C10        -1.5920    0.9410   -0.5000 ca        1 MZL     -0.165000
     11 C11        -1.2730   -0.9960    0.9280 ca        1 MZL     -0.165000
     12 C12         2.1690    4.0170   -0.4470 c3        1 MZL     -0.091100
     13 C13         5.4200   -0.6570   -0.0330 ca        1 MZL     -0.222800
     14 C14        -2.1500   -0.1370    0.2190 ca        1 MZL      0.074600
     15 C15         5.4730   -1.9070   -0.6700 ca        1 MZL     -0.072000
     16 C16         6.6300   -0.1210    0.4700 ca        1 MZL      0.405200
     17 N17        -3.5270   -0.3980    0.2770 n         1 MZL     -0.467100
     18 C18         6.7020   -2.5570   -0.7830 ca        1 MZL     -0.250300
     19 N19         7.8190   -0.7380    0.3660 nb        1 MZL     -0.667000
     20 C20        -4.5400    0.2570   -0.4130 c         1 MZL      0.687700
     21 C21         7.8460   -1.9360   -0.2530 ca        1 MZL      0.392200
     22 C22        -5.9220   -0.2420   -0.1660 ca        1 MZL     -0.269900
     23 O23        -4.3310    1.1940   -1.2040 o         1 MZL     -0.579100
     24 C24        -6.8260   -0.2850   -1.2370 ca        1 MZL     -0.039000
     25 C25        -6.3720   -0.6370    1.1100 ca        1 MZL      0.420200
     26 C26        -8.1240   -0.7360   -1.0020 ca        1 MZL     -0.251300
     27 N27        -7.6230   -1.0720    1.3490 nb        1 MZL     -0.665000
     28 C28        -8.4750   -1.1220    0.3060 ca        1 MZL      0.417200
     29 H5          0.1870    1.9920   -1.0970 ha        1 MZL      0.154000
     30 H6          0.7510   -1.4710    1.4810 ha        1 MZL      0.154000
     31 H7          4.8830    2.2100    0.4940 ha        1 MZL      0.167000
     32 H8          0.9420    2.9050    0.9490 hc        1 MZL      0.061200
     33 H8A         2.5110    3.5000    1.6250 hc        1 MZL      0.061200
     34 H10        -2.2360    1.6290   -1.0740 ha        1 MZL      0.158000
     35 H11        -1.6690   -1.8540    1.4950 ha        1 MZL      0.158000
     36 H12         3.2460    4.1880   -0.6880 hc        1 MZL      0.040700
     37 H12A        1.6650    3.6190   -1.3600 hc        1 MZL      0.040700
     38 H12B        1.7020    4.9970   -0.1820 hc        1 MZL      0.040700
     39 H15         4.5600   -2.3670   -1.0770 ha        1 MZL      0.153000
     40 H16         6.6380    0.8560    0.9870 h4        1 MZL      0.023100
     41 HN17       -3.7910   -1.1800    0.8360 hn        1 MZL      0.321500
     42 H18         6.7790   -3.5340   -1.2760 ha        1 MZL      0.143000
     43 H21         8.8380   -2.4170   -0.3220 h4        1 MZL      0.021100
     44 H24        -6.5060    0.0440   -2.2390 ha        1 MZL      0.163000
     45 H25        -5.7130   -0.5890    1.9970 h4        1 MZL      0.027100
     46 H26        -8.8620   -0.7860   -1.8140 ha        1 MZL      0.153000
     47 H28        -9.4930   -1.4860    0.5360 h4        1 MZL      0.030100
@<TRIPOS>BOND
     1    1    2 1   
     2    1    3 1   
     3    1    4 1   
     4    2    5 ar  
     5    2    6 ar  
     6    3    7 2   
     7    3    8 1   
     8    4    9 2   
     9    5   10 ar  
    10    5   29 1   
    11    6   11 ar  
    12    6   30 1   
    13    7    9 1   
    14    7   31 1   
    15    8   12 1   
    16    8   32 1   
    17    8   33 1   
    18    9   13 1   
    19   10   14 ar  
    20   10   34 1   
    21   11   14 ar  
    22   11   35 1   
    23   12   36 1   
    24   12   37 1   
    25   12   38 1   
    26   13   15 ar  
    27   13   16 ar  
    28   14   17 1   
    29   15   18 ar  
    30   15   39 1   
    31   16   19 ar  
    32   16   40 1   
    33   17   20 1   
    34   17   41 1   
    35   18   21 ar  
    36   18   42 1   
    37   19   21 ar  
    38   20   22 1   
    39   20   23 2   
    40   21   43 1   
    41   22   24 ar  
    42   22   25 ar  
    43   24   26 ar  
    44   24   44 1   
    45   25   27 ar  
    46   25   45 1   
    47   26   28 ar  
    48   26   46 1   
    49   27   28 ar  
    50   28   47 1   
@<TRIPOS>SUBSTRUCTURE
     1 MZL         1 TEMP              0 ****  ****    0 ROOT
