@<TRIPOS>MOLECULE
MZM
   25    25     1     0     0
SMALL
bcc


@<TRIPOS>ATOM
      1 N1          1.0320   -0.6470   -0.2380 n4        1 MZM     -0.827500
      2 S1          0.9420    0.8900    0.7310 sy        1 MZM      1.372800
      3 O1         -0.3930    1.1610    0.8260 o         1 MZM     -0.469300
      4 O2          1.8680    0.7220    1.7130 o         1 MZM     -0.469300
      5 C1          1.5660    2.1090   -0.3850 cc        1 MZM     -0.087700
      6 S2          0.9770    3.6290   -0.7010 ss        1 MZM      0.775700
      7 C2          2.3410    3.9860   -1.6030 cc        1 MZM     -0.114800
      8 N2          3.2220    2.8740   -1.6480 na        1 MZM      0.249400
      9 C5          4.5160    2.8870   -2.3530 c3        1 MZM     -0.031400
     10 N3          2.7770    1.8480   -0.9750 n2        1 MZM     -0.290800
     11 N4          2.6260    5.2490   -2.2540 n4        1 MZM     -0.596200
     12 C3          1.4980    6.3630   -2.0330 c         1 MZM      0.651100
     13 O3          0.5790    5.9310   -1.3640 o         1 MZM     -0.426100
     14 C4          1.7840    7.6610   -2.6650 c3        1 MZM     -0.200100
     15 HN11        1.6510   -1.3390    0.2220 hn        1 MZM      0.503467
     16 HN12        1.3720   -0.5630   -1.1980 hn        1 MZM      0.503467
     17 H51         4.3270    3.0910   -3.4430 h1        1 MZM      0.146033
     18 H52         5.0330    1.8850   -2.2500 h1        1 MZM      0.146033
     19 H53         5.1700    3.6760   -1.8840 h1        1 MZM      0.146033
     20 HN4         3.5190    5.6350   -1.8970 hn        1 MZM      0.500300
     21 H41         1.7950    8.4560   -1.8560 hc        1 MZM      0.172367
     22 H42         0.9230    7.9150   -3.3610 hc        1 MZM      0.172367
     23 H43         2.7420    7.7180   -3.2410 hc        1 MZM      0.172367
     24 H13         0.1050   -1.1030   -0.3040 hn        1 MZM      0.503467
     25 H421        2.7290    5.1060   -3.2740 hn        1 MZM      0.500300
@<TRIPOS>BOND
     1    1    2 1   
     2    1   15 1   
     3    1   16 1   
     4    1   24 1   
     5    2    3 2   
     6    2    4 2   
     7    2    5 1   
     8    5    6 1   
     9    5   10 2   
    10    6    7 1   
    11    7    8 2   
    12    7   11 1   
    13    8    9 1   
    14    8   10 1   
    15    9   17 1   
    16    9   18 1   
    17    9   19 1   
    18   11   12 1   
    19   11   20 1   
    20   11   25 1   
    21   12   13 2   
    22   12   14 1   
    23   14   21 1   
    24   14   22 1   
    25   14   23 1   
@<TRIPOS>SUBSTRUCTURE
     1 MZM         1 TEMP              0 ****  ****    0 ROOT
