@<TRIPOS>MOLECULE
MZM
   24    24     1     0     0
SMALL
bcc


@<TRIPOS>ATOM
      1 N1          0.8520   -0.0300    0.6710 n4        1 MZM     -0.805500
      2 S1          1.1810    0.1400   -1.1480 sy        1 MZM      1.412800
      3 O1          2.1780   -0.7720   -1.3450 o         1 MZM     -0.512300
      4 O2         -0.0790    0.0770   -1.6850 o         1 MZM     -0.512300
      5 C1          1.7370    1.7190   -1.2110 cc        1 MZM     -0.177700
      6 S2          1.1710    2.9580   -2.2540 ss        1 MZM      0.512700
      7 C2          2.4380    3.9530   -1.7150 cc        1 MZM      0.070200
      8 N2          3.2290    3.2990   -0.7400 na        1 MZM      0.159400
      9 C5          4.4050    3.9240   -0.1250 c3        1 MZM     -0.003400
     10 N3          2.8270    2.0780   -0.4810 n2        1 MZM     -0.286800
     11 N4          2.6090    5.2200   -2.2040 n         1 MZM     -0.419100
     12 C3          1.6620    5.6480   -3.1840 c         1 MZM      0.707100
     13 O3          0.7920    4.7850   -3.4510 o         1 MZM     -0.548100
     14 C4          1.7800    7.0020   -3.7880 c3        1 MZM     -0.170100
     15 HN11        1.4450   -0.7650    1.0770 hn        1 MZM      0.481133
     16 HN12       -0.1220   -0.3110    0.8390 hn        1 MZM      0.481133
     17 H51         4.8870    3.2180    0.6090 h1        1 MZM      0.119367
     18 H52         4.0700    4.8530    0.4120 h1        1 MZM      0.119367
     19 H53         5.1420    4.1700   -0.9380 h1        1 MZM      0.119367
     20 HN4         3.3560    5.8140   -1.9000 hn        1 MZM      0.386500
     21 H41         2.0680    7.7770   -3.0340 hc        1 MZM      0.128033
     22 H42         2.5500    6.9780   -4.6050 hc        1 MZM      0.128033
     23 H43         0.7890    7.2790   -4.2420 hc        1 MZM      0.128033
     24 H13         1.0120    0.8130    1.2200 hn        1 MZM      0.481133
@<TRIPOS>BOND
     1    1    2 1   
     2    1   15 1   
     3    1   16 1   
     4    1   24 1   
     5    2    3 2   
     6    2    4 2   
     7    2    5 1   
     8    5    6 1   
     9    5   10 2   
    10    6    7 1   
    11    7    8 2   
    12    7   11 1   
    13    8    9 1   
    14    8   10 1   
    15    9   17 1   
    16    9   18 1   
    17    9   19 1   
    18   11   12 1   
    19   11   20 1   
    20   12   13 2   
    21   12   14 1   
    22   14   21 1   
    23   14   22 1   
    24   14   23 1   
@<TRIPOS>SUBSTRUCTURE
     1 MZM         1 TEMP              0 ****  ****    0 ROOT
