@<TRIPOS>MOLECULE
MZM
   23    23     1     0     0
SMALL
bcc


@<TRIPOS>ATOM
      1 N1         -2.6110    1.8280    0.0530 n3        1 MZM     -1.046700
      2 S1         -2.7260    0.2500    0.0720 sy        1 MZM      1.463800
      3 O1         -3.1750   -0.2160    1.2990 o         1 MZM     -0.595800
      4 O2         -3.2260   -0.2420   -1.1240 o         1 MZM     -0.595800
      5 C1         -0.9680   -0.1800    0.0400 cc        1 MZM      0.067300
      6 S2          0.3740    0.8440    0.0000 ss        1 MZM      0.338700
      7 C2          1.3950   -0.5280   -0.0060 cc        1 MZM      0.097200
      8 N2          0.6310   -1.7050    0.0220 na        1 MZM      0.116400
      9 C5          1.2210   -3.0380    0.0250 c3        1 MZM      0.006600
     10 N3         -0.6870   -1.4880    0.0480 n2        1 MZM     -0.299800
     11 N4          2.7650   -0.4620   -0.0360 n         1 MZM     -0.444100
     12 C3          3.3950    0.8130   -0.0640 c         1 MZM      0.685100
     13 O3          2.6380    1.7990   -0.0580 o         1 MZM     -0.545100
     14 C4          4.8880    0.8550   -0.0960 c3        1 MZM     -0.170100
     15 HN11       -2.6400    2.3940    0.8700 hn        1 MZM      0.472800
     16 HN12       -2.6750    2.3760   -0.7740 hn        1 MZM      0.472800
     17 H51         1.8290   -3.1660   -0.9110 h1        1 MZM      0.099367
     18 H52         1.8680   -3.1460    0.9360 h1        1 MZM      0.099367
     19 H53         0.4110   -3.8200    0.0500 h1        1 MZM      0.099367
     20 HN4         3.3140   -1.2960   -0.0390 hn        1 MZM      0.362500
     21 H41         5.2130    1.9270   -0.1130 hc        1 MZM      0.105700
     22 H42         5.3160    0.3600    0.8130 hc        1 MZM      0.105700
     23 H43         5.2770    0.3420   -1.0120 hc        1 MZM      0.105700
@<TRIPOS>BOND
     1    1    2 1   
     2    1   15 1   
     3    1   16 1   
     4    2    3 2   
     5    2    4 2   
     6    2    5 1   
     7    5    6 1   
     8    5   10 2   
     9    6    7 1   
    10    7    8 2   
    11    7   11 1   
    12    8    9 1   
    13    8   10 1   
    14    9   17 1   
    15    9   18 1   
    16    9   19 1   
    17   11   12 1   
    18   11   20 1   
    19   12   13 2   
    20   12   14 1   
    21   14   21 1   
    22   14   22 1   
    23   14   23 1   
@<TRIPOS>SUBSTRUCTURE
     1 MZM         1 TEMP              0 ****  ****    0 ROOT
