@<TRIPOS>MOLECULE
MZM
   24    24     1     0     0
SMALL
bcc


@<TRIPOS>ATOM
      1 N1          1.0310   -0.0750    0.7040 nz        1 MZM     -0.805500
      2 S1          1.1670    0.1450   -1.1340 sy        1 MZM      1.412800
      3 O1          2.1260   -0.7710   -1.4610 o         1 MZM     -0.512300
      4 O2         -0.1430    0.1110   -1.5360 o         1 MZM     -0.512300
      5 C1          1.7360    1.7190   -1.2120 cc        1 MZM     -0.177700
      6 S2          1.0790    2.9940   -2.1540 ss        1 MZM      0.512700
      7 C2          2.4090    3.9590   -1.7250 cc        1 MZM      0.070200
      8 N2          3.2910    3.2690   -0.8580 na        1 MZM      0.159400
      9 C5          4.5330    3.8640   -0.3520 c3        1 MZM     -0.003400
     10 N3          2.9010    2.0460   -0.5910 n2        1 MZM     -0.286800
     11 N4          2.5450    5.2380   -2.1930 ns        1 MZM     -0.419100
     12 C3          1.5070    5.7050   -3.0560 c         1 MZM      0.707100
     13 O3          0.6020    4.8600   -3.2530 o         1 MZM     -0.548100
     14 C4          1.5790    7.0740   -3.6300 c3        1 MZM     -0.170100
     15 HN11        1.2590    0.7500    1.2570 hn        1 MZM      0.481133
     16 HN12        1.6540   -0.8280    1.0240 hn        1 MZM      0.481133
     17 H51         5.0800    3.1320    0.3070 h1        1 MZM      0.119367
     18 H52         5.1830    4.1250   -1.2320 h1        1 MZM      0.119367
     19 H53         4.2690    4.7800    0.2420 h1        1 MZM      0.119367
     20 HN4         3.3290    5.8150   -1.9540 hn        1 MZM      0.386500
     21 H41         1.9270    7.8280   -2.8790 hc        1 MZM      0.128367
     22 H42         0.5570    7.3640   -3.9970 hc        1 MZM      0.128367
     23 H43         2.2840    7.0750   -4.5050 hc        1 MZM      0.128367
     24 H13         0.0760   -0.3510    0.9660 hn        1 MZM      0.481133
@<TRIPOS>BOND
     1    1    2 1   
     2    1   15 1   
     3    1   16 1   
     4    1   24 1   
     5    2    3 2   
     6    2    4 2   
     7    2    5 1   
     8    5    6 1   
     9    5   10 2   
    10    6    7 1   
    11    7    8 2   
    12    7   11 1   
    13    8    9 1   
    14    8   10 1   
    15    9   17 1   
    16    9   18 1   
    17    9   19 1   
    18   11   12 1   
    19   11   20 1   
    20   12   13 2   
    21   12   14 1   
    22   14   21 1   
    23   14   22 1   
    24   14   23 1   
@<TRIPOS>SUBSTRUCTURE
     1 MZM         1 TEMP              0 ****  ****    0 ROOT
