@<TRIPOS>MOLECULE
MZO
   29    31     1     0     0
SMALL
bcc


@<TRIPOS>ATOM
      1 CAA         5.3300    1.5110    0.4110 c3        1 MZO      0.113700
      2 OAM         3.9220    1.4500    0.6050 os        1 MZO     -0.324900
      3 CAP         3.3070    0.2670    0.2400 ca        1 MZO      0.139100
      4 CAG         1.9140    0.2590    0.4340 ca        1 MZO     -0.149000
      5 CAF         3.9810   -0.8470   -0.2670 ca        1 MZO     -0.219000
      6 CAC         3.2440   -1.9880   -0.5860 ca        1 MZO     -0.078000
      7 CAE         1.8670   -2.0240   -0.4140 ca        1 MZO     -0.202000
      8 CAO         1.1830   -0.8910    0.0970 ca        1 MZO      0.173600
      9 N6         -0.2060   -0.9880    0.3190 nh        1 MZO     -0.727300
     10 C6         -1.1410   -0.0200   -0.0120 ca        1 MZO      0.756200
     11 C5         -2.5360   -0.3390    0.1280 ca        1 MZO     -0.224200
     12 N7         -3.2180   -1.5020    0.5150 nc        1 MZO     -0.544100
     13 C8         -4.5200   -1.1800    0.4540 cd        1 MZO      0.404700
     14 N9         -4.7540    0.1500    0.0410 na        1 MZO     -0.378000
     15 C4         -3.4950    0.7180   -0.1790 ca        1 MZO      0.450800
     16 N3         -3.1380    1.9710   -0.5950 nb        1 MZO     -0.725000
     17 C2         -1.7980    2.1200   -0.6910 ca        1 MZO      0.683900
     18 N1         -0.7940    1.2340   -0.4390 nb        1 MZO     -0.771000
     19 HAA         5.8480    0.7410    1.0330 h1        1 MZO      0.044367
     20 HAAA        5.5860    1.3800   -0.6680 h1        1 MZO      0.044367
     21 HAAB        5.5950    2.5420    0.7570 h1        1 MZO      0.044367
     22 HAG         1.4350    1.1600    0.8460 ha        1 MZO      0.173000
     23 HAF         5.0690   -0.8390   -0.4170 ha        1 MZO      0.139000
     24 HAC         3.7640   -2.8730   -0.9840 ha        1 MZO      0.133000
     25 HAE         1.3140   -2.9370   -0.6770 ha        1 MZO      0.134000
     26 HN6        -0.5640   -1.9140    0.4240 hn        1 MZO      0.458800
     27 H8         -5.3500   -1.8550    0.6940 h5        1 MZO      0.074800
     28 HN9        -5.6240    0.5990   -0.0720 hn        1 MZO      0.319700
     29 H2         -1.4510    3.1210   -1.0300 h5        1 MZO      0.056100
@<TRIPOS>BOND
     1    1    2 1   
     2    1   19 1   
     3    1   20 1   
     4    1   21 1   
     5    2    3 1   
     6    3    4 ar  
     7    3    5 ar  
     8    4    8 ar  
     9    4   22 1   
    10    5    6 ar  
    11    5   23 1   
    12    6    7 ar  
    13    6   24 1   
    14    7    8 ar  
    15    7   25 1   
    16    8    9 1   
    17    9   10 1   
    18    9   26 1   
    19   10   11 ar  
    20   10   18 ar  
    21   11   12 1   
    22   11   15 ar  
    23   12   13 2   
    24   13   14 1   
    25   13   27 1   
    26   14   15 1   
    27   14   28 1   
    28   15   16 ar  
    29   16   17 ar  
    30   17   18 ar  
    31   17   29 1   
@<TRIPOS>SUBSTRUCTURE
     1 MZO         1 TEMP              0 ****  ****    0 ROOT
