@<TRIPOS>MOLECULE
MZO
   29    31     1     0     0
SMALL
bcc


@<TRIPOS>ATOM
      1 CAA        -0.2680   -0.0320    0.1280 c3        1 MZO      0.113700
      2 OAM         1.1530   -0.0640    0.0550 os        1 MZO     -0.324900
      3 CAP         1.8260   -0.0440    1.2620 ca        1 MZO      0.139100
      4 CAG         3.2270   -0.0590    1.1400 ca        1 MZO     -0.149000
      5 CAF         1.2010   -0.0230    2.5130 ca        1 MZO     -0.219000
      6 CAC         1.9970   -0.0180    3.6580 ca        1 MZO     -0.078000
      7 CAE         3.3810   -0.0230    3.5710 ca        1 MZO     -0.202000
      8 CAO         4.0150   -0.0400    2.3020 ca        1 MZO      0.173600
      9 N6          5.4220   -0.1110    2.2530 nu        1 MZO     -0.727300
     10 C6          6.2350    0.6350    1.4150 ca        1 MZO      0.756200
     11 C5          7.6590    0.5660    1.6030 ca        1 MZO     -0.224200
     12 N7          8.4720   -0.1020    2.5300 nc        1 MZO     -0.544100
     13 C8          9.7290    0.2200    2.1900 cd        1 MZO      0.404700
     14 N9          9.8100    1.0790    1.0720 na        1 MZO     -0.378000
     15 C4          8.4910    1.3220    0.6710 ca        1 MZO      0.450800
     16 N3          7.9910    2.0870   -0.3460 nb        1 MZO     -0.725000
     17 C2          6.6400    2.0640   -0.3920 ca        1 MZO      0.683900
     18 N1          5.7450    1.4110    0.4000 nb        1 MZO     -0.771000
     19 HAA        -0.6550   -0.9340    0.6620 h1        1 MZO      0.044367
     20 HAAA       -0.6170    0.9010    0.6320 h1        1 MZO      0.044367
     21 HAAB       -0.5830   -0.0430   -0.9460 h1        1 MZO      0.044367
     22 HAG         3.6670   -0.0850    0.1320 ha        1 MZO      0.173000
     23 HAF         0.1070   -0.0120    2.6050 ha        1 MZO      0.139000
     24 HAC         1.5160   -0.0040    4.6490 ha        1 MZO      0.133000
     25 HAE         3.9810   -0.0150    4.4930 ha        1 MZO      0.134000
     26 HN6         5.8660   -0.4760    3.0700 hn        1 MZO      0.458800
     27 H8         10.6330   -0.1300    2.7030 h5        1 MZO      0.074800
     28 HN9        10.6230    1.4390    0.6490 hn        1 MZO      0.319700
     29 H2          6.1790    2.6740   -1.2000 h5        1 MZO      0.056100
@<TRIPOS>BOND
     1    1    2 1   
     2    1   19 1   
     3    1   20 1   
     4    1   21 1   
     5    2    3 1   
     6    3    4 ar  
     7    3    5 ar  
     8    4    8 ar  
     9    4   22 1   
    10    5    6 ar  
    11    5   23 1   
    12    6    7 ar  
    13    6   24 1   
    14    7    8 ar  
    15    7   25 1   
    16    8    9 1   
    17    9   10 1   
    18    9   26 1   
    19   10   11 ar  
    20   10   18 ar  
    21   11   12 1   
    22   11   15 ar  
    23   12   13 2   
    24   13   14 1   
    25   13   27 1   
    26   14   15 1   
    27   14   28 1   
    28   15   16 ar  
    29   16   17 ar  
    30   17   18 ar  
    31   17   29 1   
@<TRIPOS>SUBSTRUCTURE
     1 MZO         1 TEMP              0 ****  ****    0 ROOT
