@<TRIPOS>MOLECULE
MZO
   30    32     1     0     0
SMALL
bcc


@<TRIPOS>ATOM
      1 CAA        -0.3290    0.4760    0.8180 c3        1 MZO      0.105700
      2 OAM         0.9790    0.1470    0.3460 os        1 MZO     -0.309900
      3 CAP         1.9370   -0.0870    1.3000 ca        1 MZO      0.158100
      4 CAG         3.2040   -0.4150    0.7790 ca        1 MZO     -0.135000
      5 CAF         1.7270   -0.0190    2.6860 ca        1 MZO     -0.158000
      6 CAC         2.7850   -0.2770    3.5540 ca        1 MZO     -0.069000
      7 CAE         4.0510   -0.6040    3.0710 ca        1 MZO     -0.143000
      8 CAO         4.2430   -0.6780    1.6810 ca        1 MZO     -0.014400
      9 N6          5.5640   -1.0570    1.1560 n4        1 MZO     -0.615100
     10 C6          6.3570    0.1210    0.7350 ca        1 MZO      0.553200
     11 C5          7.3380    0.6360    1.6060 ca        1 MZO     -0.140200
     12 N7          7.8040    0.2860    2.8780 nc        1 MZO     -0.580100
     13 C8          8.7680    1.1850    3.1530 cd        1 MZO      0.496700
     14 N9          8.9790    2.1300    2.1310 na        1 MZO     -0.360000
     15 C4          8.0790    1.8160    1.1070 ca        1 MZO      0.452800
     16 N3          7.8450    2.3840   -0.1040 nb        1 MZO     -0.621000
     17 C2          6.8720    1.7660   -0.8190 ca        1 MZO      0.673900
     18 N1          6.1190    0.6780   -0.4770 nb        1 MZO     -0.681000
     19 HAA        -0.7490   -0.3620    1.4240 h1        1 MZO      0.063367
     20 HAAA       -0.3040    1.4240    1.4070 h1        1 MZO      0.063367
     21 HAAB       -0.9090    0.6120   -0.1310 h1        1 MZO      0.063367
     22 HAG         3.3410   -0.4470   -0.3150 ha        1 MZO      0.183000
     23 HAF         0.7350    0.2370    3.0920 ha        1 MZO      0.170000
     24 HAC         2.6220   -0.2210    4.6440 ha        1 MZO      0.168000
     25 HAE         4.8730   -0.7950    3.7790 ha        1 MZO      0.164000
     26 HN6         6.0910   -1.5510    1.8910 hn        1 MZO      0.477800
     27 H8          9.3570    1.2070    4.0850 h5        1 MZO      0.107800
     28 HN9         9.6340    2.8740    2.1220 hn        1 MZO      0.350700
     29 H2          6.6510    2.2000   -1.8220 h5        1 MZO      0.098100
     30 H62         5.4290   -1.6850    0.3500 hn        1 MZO      0.477800
@<TRIPOS>BOND
     1    1    2 1   
     2    1   19 1   
     3    1   20 1   
     4    1   21 1   
     5    2    3 1   
     6    3    4 ar  
     7    3    5 ar  
     8    4    8 ar  
     9    4   22 1   
    10    5    6 ar  
    11    5   23 1   
    12    6    7 ar  
    13    6   24 1   
    14    7    8 ar  
    15    7   25 1   
    16    8    9 1   
    17    9   10 1   
    18    9   26 1   
    19    9   30 1   
    20   10   11 ar  
    21   10   18 ar  
    22   11   12 1   
    23   11   15 ar  
    24   12   13 2   
    25   13   14 1   
    26   13   27 1   
    27   14   15 1   
    28   14   28 1   
    29   15   16 ar  
    30   16   17 ar  
    31   17   18 ar  
    32   17   29 1   
@<TRIPOS>SUBSTRUCTURE
     1 MZO         1 TEMP              0 ****  ****    0 ROOT
