@<TRIPOS>MOLECULE
MZO
   29    31     1     0     0
SMALL
bcc


@<TRIPOS>ATOM
      1 CAA        -0.2680   -0.0320    0.1320 c3        1 MZO      0.113700
      2 OAM         1.1520   -0.0620    0.0570 os        1 MZO     -0.324900
      3 CAP         1.8260   -0.0450    1.2640 ca        1 MZO      0.139100
      4 CAG         3.2270   -0.0590    1.1400 ca        1 MZO     -0.149000
      5 CAF         1.2020   -0.0270    2.5140 ca        1 MZO     -0.219000
      6 CAC         1.9990   -0.0240    3.6590 ca        1 MZO     -0.078000
      7 CAE         3.3830   -0.0290    3.5710 ca        1 MZO     -0.202000
      8 CAO         4.0160   -0.0420    2.3010 ca        1 MZO      0.173600
      9 N6          5.4230   -0.1130    2.2510 nh        1 MZO     -0.727300
     10 C6          6.2350    0.6360    1.4140 ca        1 MZO      0.756200
     11 C5          7.6590    0.5670    1.6000 ca        1 MZO     -0.224200
     12 N7          8.4730   -0.1030    2.5250 nc        1 MZO     -0.544100
     13 C8          9.7300    0.2210    2.1840 cd        1 MZO      0.404700
     14 N9          9.8090    1.0830    1.0680 na        1 MZO     -0.378000
     15 C4          8.4900    1.3270    0.6700 ca        1 MZO      0.450800
     16 N3          7.9880    2.0940   -0.3450 nb        1 MZO     -0.725000
     17 C2          6.6370    2.0710   -0.3900 ca        1 MZO      0.683900
     18 N1          5.7430    1.4150    0.4020 nb        1 MZO     -0.771000
     19 HAA        -0.6550   -0.9350    0.6640 h1        1 MZO      0.044367
     20 HAAA       -0.6190    0.9000    0.6380 h1        1 MZO      0.044367
     21 HAAB       -0.5850   -0.0410   -0.9420 h1        1 MZO      0.044367
     22 HAG         3.6660   -0.0820    0.1320 ha        1 MZO      0.173000
     23 HAF         0.1080   -0.0170    2.6080 ha        1 MZO      0.139000
     24 HAC         1.5190   -0.0130    4.6500 ha        1 MZO      0.133000
     25 HAE         3.9840   -0.0230    4.4920 ha        1 MZO      0.134000
     26 HN6         5.8680   -0.4800    3.0670 hn        1 MZO      0.458800
     27 H8         10.6340   -0.1310    2.6950 h5        1 MZO      0.074800
     28 HN9        10.6220    1.4440    0.6450 hn        1 MZO      0.319700
     29 H2          6.1750    2.6830   -1.1950 h5        1 MZO      0.056100
@<TRIPOS>BOND
     1    1    2 1   
     2    1   19 1   
     3    1   20 1   
     4    1   21 1   
     5    2    3 1   
     6    3    4 ar  
     7    3    5 ar  
     8    4    8 ar  
     9    4   22 1   
    10    5    6 ar  
    11    5   23 1   
    12    6    7 ar  
    13    6   24 1   
    14    7    8 ar  
    15    7   25 1   
    16    8    9 1   
    17    9   10 1   
    18    9   26 1   
    19   10   11 ar  
    20   10   18 ar  
    21   11   12 1   
    22   11   15 ar  
    23   12   13 2   
    24   13   14 1   
    25   13   27 1   
    26   14   15 1   
    27   14   28 1   
    28   15   16 ar  
    29   16   17 ar  
    30   17   18 ar  
    31   17   29 1   
@<TRIPOS>SUBSTRUCTURE
     1 MZO         1 TEMP              0 ****  ****    0 ROOT
