@<TRIPOS>MOLECULE
MZO
   29    24     1     0     0
SMALL
bcc


@<TRIPOS>ATOM
      1 CAA        -4.3000    0.3800   -2.7700 c3        1 MZO     -0.077000
      2 OAM        -3.0880    1.1150   -2.6780 os        1 MZO     -0.211000
      3 CAP        -2.4770    1.0580   -1.4000 c2        1 MZO      0.092000
      4 CAG        -1.4540    0.1480   -1.1580 c2        1 MZO     -0.217000
      5 CAF        -2.8830    1.9310   -0.3960 c1        1 MZO     -0.164000
      6 CAC        -2.2660    1.8930    0.8500 c1        1 MZO     -0.124500
      7 CAE        -1.2430    0.9830    1.0910 c1        1 MZO     -0.124500
      8 CAO        -0.8370    0.1100    0.0870 c1        1 MZO      0.093000
      9 N6          0.1610   -0.8780    0.3600 n3        1 MZO     -0.252000
     10 C6          1.4450   -0.4810    0.8560 c2        1 MZO      0.224000
     11 C5          2.7940   -0.4430    0.5200 c1        1 MZO     -0.209000
     12 N7          3.4690    0.1770   -0.4920 n1        1 MZO     -0.093000
     13 C8          4.7850   -0.1150   -0.3590 c1        1 MZO     -0.055000
     14 N9          4.9300   -0.9120    0.7290 n2        1 MZO     -0.229000
     15 C4          3.6950   -1.1140    1.2720 c1        1 MZO      0.052000
     16 N3          3.2790   -1.8270    2.3610 n1        1 MZO     -0.195000
     17 C2          1.9530   -1.8630    2.6890 c1        1 MZO      0.017000
     18 N1          1.0390   -1.1840    1.9280 n1        1 MZO     -0.260000
     19 HAA        -4.4640    0.1350   -3.7070 h1        1 MZO      0.084000
     20 HAAA       -5.0430    0.9320   -2.4410 h1        1 MZO      0.084000
     21 HAAB       -4.2310   -0.4340   -2.2250 h1        1 MZO      0.084000
     22 HAG        -1.1680   -0.4680   -1.8670 ha        1 MZO      0.144000
     23 HAF        -3.6050    2.5730   -0.5670 ha        1 MZO      0.150000
     24 HAC        -2.5520    2.5090    1.5580 ha        1 MZO      0.139000
     25 HAE        -0.8080    0.9560    1.9700 ha        1 MZO      0.139000
     26 HN6        -0.0160   -1.7640    0.2050 hn        1 MZO      0.241000
     27 H8          5.5100    0.2150   -0.9330 DU        1 MZO      0.237000
     28 HN9         5.7210   -1.2550    1.0450 DU        1 MZO      0.237000
     29 H2          1.6550   -2.3760    3.4720 ha        1 MZO      0.192000
@<TRIPOS>BOND
     1    1    2 1   
     2    1   19 1   
     3    1   20 1   
     4    1   21 1   
     5    2    3 1   
     6    3    4 1   
     7    3    5 1   
     8    4    8 1   
     9    4   22 1   
    10    5   23 1   
    11    6    7 1   
    12    6   24 1   
    13    7   25 1   
    14    8    9 1   
    15    9   10 1   
    16    9   26 1   
    17   10   11 1   
    18   10   18 1   
    19   11   15 1   
    20   12   13 1   
    21   13   14 1   
    22   14   15 1   
    23   16   17 1   
    24   17   29 1   
@<TRIPOS>SUBSTRUCTURE
     1 MZO         1 TEMP              0 ****  ****    0 ROOT
