@<TRIPOS>MOLECULE
MZP
   34    35     1     0     0
SMALL
bcc


@<TRIPOS>ATOM
      1 P          -3.3700    1.6900    0.2800 p5        1 MZP      1.308900
      2 O1P        -3.9200    0.4980   -0.4560 o         1 MZP     -0.917500
      3 O2P        -3.7850    1.8060    1.7160 o         1 MZP     -0.917500
      4 O3P        -3.1130    2.9510   -0.4840 o         1 MZP     -0.917500
      5 O5'        -1.7080    1.0830    0.4800 os        1 MZP     -0.556200
      6 C5'        -1.6740   -0.1560    1.0480 c3        1 MZP      0.222400
      7 C4'        -1.4820   -1.2870    0.0120 c3        1 MZP      0.040100
      8 O4'        -0.4450   -1.0320   -0.9640 os        1 MZP     -0.403600
      9 C3'        -1.0320   -2.5770    0.7150 c3        1 MZP      0.077100
     10 O3'        -1.4500   -3.7590    0.0480 oh        1 MZP     -0.623800
     11 C2'         0.5180   -2.4880    0.6880 c3        1 MZP      0.088100
     12 O2'         1.1460   -3.7240    0.4510 oh        1 MZP     -0.587800
     13 C1'         0.8180   -1.4760   -0.4730 c3        1 MZP      0.272500
     14 N1          1.6490   -0.3410   -0.1180 n         1 MZP     -0.386400
     15 C2          1.1730    0.9400    0.0510 cc        1 MZP      0.265000
     16 N3          2.2120    1.7960    0.1910 na        1 MZP     -0.289200
     17 C4          3.4420    1.0830    0.1130 cc        1 MZP     -0.238700
     18 C6          4.7490    1.6630    0.2190 c         1 MZP      0.619800
     19 O6          5.8120    1.0120    0.3490 o         1 MZP     -0.656100
     20 C5          3.1130   -0.3130   -0.1160 c         1 MZP      0.637200
     21 N6          4.8550    3.0740    0.2160 n         1 MZP     -0.663000
     22 O5          3.7970   -1.3260   -0.3200 o         1 MZP     -0.647500
     23 H5'1       -2.6350   -0.3710    1.5990 h1        1 MZP     -0.000800
     24 H5'2       -0.8040   -0.2180    1.7730 h1        1 MZP     -0.000800
     25 H4'C       -2.4230   -1.3690   -0.6060 h1        1 MZP      0.157700
     26 H3'C       -1.4240   -2.6610    1.7600 h1        1 MZP      0.088700
     27 H3'O       -1.7020   -3.5040   -0.8490 ho        1 MZP      0.410000
     28 H2'C        0.9200   -2.1350    1.6730 h1        1 MZP      0.094700
     29 H2'O        0.6250   -4.1920   -0.2150 ho        1 MZP      0.403000
     30 H1'C        1.3380   -2.0080   -1.3250 h2        1 MZP      0.079700
     31 HC2         0.0710    1.2300    0.0370 h5        1 MZP      0.206800
     32 HN3         2.1270    2.7470    0.4450 hn        1 MZP      0.312700
     33 HN61        5.7880    3.4090    0.1360 hn        1 MZP      0.262000
     34 HN62        4.2080    3.5650   -0.3530 hn        1 MZP      0.262000
@<TRIPOS>BOND
     1    1    2 1   
     2    1    3 1   
     3    1    4 1   
     4    1    5 1   
     5    5    6 1   
     6    6    7 1   
     7    6   23 1   
     8    6   24 1   
     9    7    8 1   
    10    7    9 1   
    11    7   25 1   
    12    8   13 1   
    13    9   10 1   
    14    9   11 1   
    15    9   26 1   
    16   10   27 1   
    17   11   12 1   
    18   11   13 1   
    19   11   28 1   
    20   12   29 1   
    21   13   14 1   
    22   13   30 1   
    23   14   15 2   
    24   14   20 1   
    25   15   16 1   
    26   15   31 1   
    27   16   17 2   
    28   16   32 1   
    29   17   18 1   
    30   17   20 1   
    31   18   19 2   
    32   18   21 1   
    33   20   22 2   
    34   21   33 1   
    35   21   34 1   
@<TRIPOS>SUBSTRUCTURE
     1 MZP         1 TEMP              0 ****  ****    0 ROOT
