@<TRIPOS>MOLECULE
MZR
   31    32     1     0     0
SMALL
bcc


@<TRIPOS>ATOM
      1 N1         -4.4480    1.8660   -0.6080 n         1 MZR     -0.648000
      2 C4         -1.5340   -0.2610    0.4640 cc        1 MZR      0.117500
      3 C5         -2.3520    0.6530   -0.2520 cd        1 MZR      0.143800
      4 C6         -3.7320    0.9690    0.1320 c         1 MZR      0.617600
      5 O6         -4.2420    0.4100    1.1370 o         1 MZR     -0.675100
      6 N7         -1.6290    1.1670   -1.3400 nd        1 MZR     -0.617000
      7 C8         -0.4220    0.5890   -1.2860 cc        1 MZR      0.382400
      8 N9         -0.3050   -0.3220   -0.2020 na        1 MZR     -0.242900
      9 C1'         0.8500   -1.0640    0.2370 c3        1 MZR      0.206800
     10 C2'         1.7180   -1.6350   -0.9350 c3        1 MZR      0.132100
     11 O2'         1.9110   -3.0130   -0.7570 oh        1 MZR     -0.562800
     12 C3'         3.0190   -0.8010   -0.8980 c3        1 MZR      0.081100
     13 O3'         4.0930   -1.7120   -0.7600 oh        1 MZR     -0.587800
     14 C4'         2.8970    0.1190    0.3300 c3        1 MZR      0.048100
     15 O4'         1.7130   -0.2510    1.0470 os        1 MZR     -0.410600
     16 C5'         2.8240    1.5990   -0.0460 c3        1 MZR      0.117400
     17 O5'         2.8530    2.4130    1.1050 oh        1 MZR     -0.587800
     18 HN1        -4.0560    2.3090   -1.3990 hn        1 MZR      0.322500
     19 HN1A       -5.3790    2.0750   -0.3450 hn        1 MZR      0.322500
     20 HO3        -2.7060   -0.8210    1.8280 ho        1 MZR      0.491000
     21 H8          0.4000    0.7520   -1.9900 h5        1 MZR      0.062100
     22 H1'         0.4890   -1.8880    0.9270 h2        1 MZR      0.130700
     23 H2'         1.2050   -1.5460   -1.9310 h1        1 MZR      0.103700
     24 HO2'        2.5850   -3.1430   -0.0740 ho        1 MZR      0.428000
     25 H3'         3.1360   -0.2060   -1.8420 h1        1 MZR      0.062700
     26 HO3'        4.9070   -1.1920   -0.7540 ho        1 MZR      0.420000
     27 H4'         3.7390   -0.0500    1.0590 h1        1 MZR      0.096700
     28 H5'         3.7310    1.8960   -0.6360 h1        1 MZR      0.051700
     29 H5'A        1.8940    1.8000   -0.6440 h1        1 MZR      0.051700
     30 HO5'        2.1070    2.1480    1.6600 ho        1 MZR      0.418000
     31 O3         -1.7770   -1.0110    1.5660 oh        1 MZR     -0.477100
@<TRIPOS>BOND
     1    1    4 1   
     2    1   18 1   
     3    1   19 1   
     4    2    3 2   
     5    2    8 1   
     6    2   31 1   
     7    3    4 1   
     8    3    6 1   
     9    4    5 2   
    10    6    7 2   
    11    7    8 1   
    12    7   21 1   
    13    8    9 1   
    14    9   10 1   
    15    9   15 1   
    16    9   22 1   
    17   10   11 1   
    18   10   12 1   
    19   10   23 1   
    20   11   24 1   
    21   12   13 1   
    22   12   14 1   
    23   12   25 1   
    24   13   26 1   
    25   14   15 1   
    26   14   16 1   
    27   14   27 1   
    28   16   17 1   
    29   16   28 1   
    30   16   29 1   
    31   17   30 1   
    32   20   31 1   
@<TRIPOS>SUBSTRUCTURE
     1 MZR         1 TEMP              0 ****  ****    0 ROOT
