@<TRIPOS>MOLECULE
MZR
   32    29     1     0     0
SMALL
bcc


@<TRIPOS>ATOM
      1 N1          0.8120   -0.6850    0.8170 nz        1 MZR     -0.739400
      2 C4          3.4750    0.1320   -1.8250 c2        1 MZR      0.523100
      3 C5          2.2170   -0.2410   -1.2220 ce        1 MZR      0.195500
      4 C6          2.1560   -0.3430    0.1950 c         1 MZR      0.565300
      5 O6          3.0470   -0.1870    1.0390 o         1 MZR     -0.539100
      6 N7          1.1160   -0.4910   -2.0060 n1        1 MZR     -1.135500
      7 C8          0.1990   -0.7050   -2.7260 c1        1 MZR      0.507800
      8 N9          3.6390    0.3770   -3.1380 nu        1 MZR     -0.697000
      9 C1'         4.9470    0.7040   -3.6940 c3        1 MZR      0.288900
     10 C2'         4.9580    0.6520   -5.1320 c1        1 MZR     -0.134100
     11 O2'         5.1700   -1.8820   -1.4670 oh        1 MZR     -0.847000
     12 C3'         4.9980    0.6220   -6.3280 cg        1 MZR     -0.091200
     13 O3'         7.0700   -3.6230   -1.4440 oh        1 MZR     -0.847000
     14 C4'         5.0320    0.5950   -7.7600 c         1 MZR      0.545300
     15 O4'         4.0820    0.1870   -8.4340 o         1 MZR     -0.481100
     16 C5'         6.3160    1.0860   -8.3900 c3        1 MZR      0.051400
     17 O5'         6.1230    1.5040   -9.7190 oh        1 MZR     -0.569800
     18 HN1         0.9170   -0.7120    1.8390 hn        1 MZR      0.464133
     19 HN1A        0.4910   -1.5980    0.4860 hn        1 MZR      0.464133
     20 HO3         4.6080   -0.2090   -0.2920 ho        1 MZR      0.510000
     21 H8          2.8630    0.3180   -3.7650 hn        1 MZR      0.483800
     22 H1'         5.2370    1.7420   -3.3440 h1        1 MZR      0.104200
     23 H2'         5.7020   -0.0320   -3.2700 h1        1 MZR      0.104200
     24 HO2'        5.0950   -2.8380   -1.3830 ho        1 MZR      0.425000
     25 H3'         6.1170   -1.7320   -1.5670 ho        1 MZR      0.425000
     26 HO3'        7.6040   -3.8930   -0.6910 ho        1 MZR      0.425000
     27 H4'         7.3990   -4.1600   -2.1710 ho        1 MZR      0.425000
     28 H5'         6.7060    1.9940   -7.8530 h1        1 MZR      0.080200
     29 H5'A        7.0750    0.2570   -8.3370 h1        1 MZR      0.080200
     30 HO5'        5.6510    0.8000  -10.1890 ho        1 MZR      0.424000
     31 H13         0.1180    0.0240    0.5670 hn        1 MZR      0.464133
     32 O3          4.5940    0.3590   -1.0940 oh        1 MZR     -0.474100
@<TRIPOS>BOND
     1    1    4 1   
     2    1   18 1   
     3    1   19 1   
     4    1   31 1   
     5    2    3 2   
     6    2    8 1   
     7    2   32 1   
     8    3    4 1   
     9    3    6 1   
    10    4    5 2   
    11    6    7 3   
    12    8    9 1   
    13    8   21 1   
    14    9   10 1   
    15    9   22 1   
    16    9   23 1   
    17   10   12 3   
    18   11   24 1   
    19   11   25 1   
    20   12   14 1   
    21   13   26 1   
    22   13   27 1   
    23   14   15 2   
    24   14   16 1   
    25   16   17 1   
    26   16   28 1   
    27   16   29 1   
    28   17   30 1   
    29   20   32 1   
@<TRIPOS>SUBSTRUCTURE
     1 MZR         1 TEMP              0 ****  ****    0 ROOT
