@<TRIPOS>MOLECULE
MZR
   32    28     1     0     0
SMALL
bcc


@<TRIPOS>ATOM
      1 N1         -0.4500    0.7370    0.8300 n3        1 MZR     -1.056400
      2 C4          3.2820   -0.3630   -1.7340 ce        1 MZR      0.640900
      3 C5          2.0170   -0.0980   -1.0700 ce        1 MZR      0.179000
      4 C6          1.9610   -0.2990    0.2880 c1        1 MZR      0.751600
      5 O6          2.0020   -0.5160    1.4340 o         1 MZR     -0.213500
      6 N7          0.9200    0.3390   -1.7620 n1        1 MZR     -1.117500
      7 C8         -0.0750    0.7210   -2.2840 c1        1 MZR      0.557800
      8 N9          3.4770   -0.2180   -3.0520 nh        1 MZR     -0.352100
      9 C1'         4.7500   -0.4740   -3.7210 c3        1 MZR      0.099400
     10 C2'         4.7060   -0.1140   -5.1120 c1        1 MZR     -0.150100
     11 O2'         6.7300   -1.6550   -2.1060 oh        1 MZR     -0.856500
     12 C3'         4.7020    0.1780   -6.2730 cg        1 MZR     -0.065200
     13 O3'         8.9690   -2.6450   -1.3510 oh        1 MZR     -0.856500
     14 C4'         4.6890    0.5470   -7.6600 c         1 MZR      0.541300
     15 O4'         3.6840    1.0080   -8.2050 o         1 MZR     -0.472100
     16 C5'         5.9860    0.3180   -8.4050 c3        1 MZR      0.053400
     17 O5'         6.0980    1.1590   -9.5260 oh        1 MZR     -0.566800
     18 HN1        -0.3940    1.7290    0.9490 hn        1 MZR      0.357800
     19 HN1A       -0.6670    0.3230    1.7150 hn        1 MZR      0.357800
     20 HO3         5.1060   -0.9850   -1.3000 ho        1 MZR      0.517000
     21 H8          2.7170    0.0940   -3.6300 hn        1 MZR      0.342700
     22 H1'         5.5690    0.1170   -3.2020 h1        1 MZR      0.110200
     23 H2'         5.0060   -1.5770   -3.6180 h1        1 MZR      0.110200
     24 HO2'        6.9450   -2.5820   -1.9480 ho        1 MZR      0.432500
     25 H3'         7.5580   -1.1910   -1.9360 ho        1 MZR      0.432500
     26 HO3'        9.3210   -2.7990   -0.4700 ho        1 MZR      0.432500
     27 H4'         9.6650   -2.9500   -1.9400 ho        1 MZR      0.432500
     28 H5'         6.8710    0.5720   -7.7610 h1        1 MZR      0.081200
     29 H5'A        6.0320   -0.7650   -8.7070 h1        1 MZR      0.081200
     30 HO5'        5.2980    1.0540  -10.0610 ho        1 MZR      0.425000
     31 H13        -1.1930    0.5350    0.1910 hn        1 MZR      0.357800
     32 O3          4.2440   -0.7750   -0.8720 oh        1 MZR     -0.587600
@<TRIPOS>BOND
     1    1   18 1   
     2    1   19 1   
     3    1   31 1   
     4    2    3 1   
     5    2    8 2   
     6    2   32 1   
     7    3    4 2   
     8    3    6 1   
     9    4    5 2   
    10    6    7 3   
    11    8    9 1   
    12    8   21 1   
    13    9   10 1   
    14    9   22 1   
    15    9   23 1   
    16   10   12 3   
    17   11   24 1   
    18   11   25 1   
    19   12   14 1   
    20   13   26 1   
    21   13   27 1   
    22   14   15 2   
    23   14   16 1   
    24   16   17 1   
    25   16   28 1   
    26   16   29 1   
    27   17   30 1   
    28   20   32 1   
@<TRIPOS>SUBSTRUCTURE
     1 MZR         1 TEMP              0 ****  ****    0 ROOT
