@<TRIPOS>MOLECULE
MZR
   32    29     1     0     0
SMALL
bcc


@<TRIPOS>ATOM
      1 N1         -1.0690   -0.2210   -0.1060 n3        1 MZR     -1.056400
      2 C4          3.3500    0.2210   -1.4430 ce        1 MZR      0.633900
      3 C5          1.9410   -0.0290   -1.2190 ce        1 MZR      0.186000
      4 C6          1.5760   -0.5790   -0.0120 c1        1 MZR      0.752600
      5 O6          1.3660   -1.0730    1.0230 o         1 MZR     -0.210500
      6 N7          0.9980    0.2840   -2.1620 n1        1 MZR     -1.117500
      7 C8          0.1240    0.5330   -2.9250 c1        1 MZR      0.560800
      8 N9          3.8510    0.7670   -2.5630 nh        1 MZR     -0.335100
      9 C1'         5.2580    1.0450   -2.7640 c3        1 MZR      0.033500
     10 C2'         6.0780   -0.1880   -3.0550 c2        1 MZR      0.076900
     11 O2'         6.7160   -0.6020   -1.9120 oh        1 MZR     -0.533100
     12 C3'         6.1820   -0.7890   -4.2540 ce        1 MZR     -0.296200
     13 O3'         8.6440   -2.2330   -5.6190 oh        1 MZR     -0.824000
     14 C4'         5.4330   -0.3480   -5.4380 c         1 MZR      0.553300
     15 O4'         4.4200    0.3670   -5.3610 o         1 MZR     -0.585100
     16 C5'         5.9540   -0.8450   -6.7650 c3        1 MZR      0.045400
     17 O5'         5.6820    0.0580   -7.8080 oh        1 MZR     -0.569800
     18 HN1        -1.5300   -0.4280   -0.9700 hn        1 MZR      0.358467
     19 HN1A       -1.3110    0.7100    0.1680 hn        1 MZR      0.358467
     20 HO3         5.0820   -0.0810   -0.5570 ho        1 MZR      0.504000
     21 H8          3.2670    0.8720   -3.3790 hn        1 MZR      0.359700
     22 H1'         5.3280    1.7420   -3.6550 h1        1 MZR      0.119700
     23 H2'         5.6770    1.5750   -1.8580 h1        1 MZR      0.119700
     24 HO2'        7.3590   -1.2980   -2.1310 ho        1 MZR      0.463000
     25 H3'         6.8740   -1.6390   -4.4150 ha        1 MZR      0.196000
     26 HO3'        8.8120   -3.1100   -5.9750 ho        1 MZR      0.413000
     27 H4'         9.4360   -1.7370   -5.8490 ho        1 MZR      0.413000
     28 H5'         7.0760   -0.9490   -6.7420 h1        1 MZR      0.089200
     29 H5'A        5.4910   -1.8510   -6.9670 h1        1 MZR      0.089200
     30 HO5'        4.7270    0.2140   -7.8240 ho        1 MZR      0.419000
     31 H13        -1.4010   -0.8550    0.5930 hn        1 MZR      0.358467
     32 O3          4.1190   -0.1080   -0.3690 oh        1 MZR     -0.576600
@<TRIPOS>BOND
     1    1   18 1   
     2    1   19 1   
     3    1   31 1   
     4    2    3 1   
     5    2    8 2   
     6    2   32 1   
     7    3    4 2   
     8    3    6 1   
     9    4    5 2   
    10    6    7 3   
    11    8    9 1   
    12    8   21 1   
    13    9   10 1   
    14    9   22 1   
    15    9   23 1   
    16   10   11 1   
    17   10   12 2   
    18   11   24 1   
    19   12   14 1   
    20   12   25 1   
    21   13   26 1   
    22   13   27 1   
    23   14   15 2   
    24   14   16 1   
    25   16   17 1   
    26   16   28 1   
    27   16   29 1   
    28   17   30 1   
    29   20   32 1   
@<TRIPOS>SUBSTRUCTURE
     1 MZR         1 TEMP              0 ****  ****    0 ROOT
