@<TRIPOS>MOLECULE
MZS
   26    27     1     0     0
SMALL
bcc


@<TRIPOS>ATOM
      1 F          -0.1270   -0.1500   -0.0220 f         1 MZS     -0.178900
      2 C2          1.2310   -0.0680   -0.0010 ca        1 MZS      0.084900
      3 C1          1.9130   -0.1060    1.2270 ca        1 MZS     -0.186500
      4 C3          1.9450    0.0570   -1.2080 ca        1 MZS     -0.186500
      5 C4          3.3340    0.1240   -1.1780 ca        1 MZS     -0.088500
      6 C5          4.0200    0.0600    0.0420 ca        1 MZS     -0.084300
      7 C           3.3040   -0.0360    1.2370 ca        1 MZS     -0.088500
      8 C6          5.5270    0.0660    0.0370 c3        1 MZS      0.100600
      9 N           6.1330    1.3720    0.0020 na        1 MZS      0.057400
     10 N1          6.2480    2.1530    1.1050 nc        1 MZS     -0.563800
     11 C9          6.7810    3.3310    0.7020 cd        1 MZS      0.295800
     12 C10         7.1270    4.4850    1.6220 c         1 MZS      0.836100
     13 O1          6.3290    5.4630    1.6860 o         1 MZS     -0.847300
     14 O           8.2090    4.4280    2.2750 o         1 MZS     -0.847300
     15 C8          6.9880    3.3070   -0.7380 cd        1 MZS     -0.282300
     16 C7          6.5520    2.0460   -1.1680 cc        1 MZS     -0.145900
     17 C11         6.5460    1.4870   -2.5650 c         1 MZS      0.935200
     18 O2          5.9430    0.3920   -2.8090 o         1 MZS     -0.853300
     19 O3          7.1430    2.1350   -3.4690 o         1 MZS     -0.853300
     20 H1          1.3460   -0.1770    2.1640 ha        1 MZS      0.124000
     21 H3          1.4010    0.1090   -2.1600 ha        1 MZS      0.124000
     22 H           3.8450   -0.0360    2.1960 ha        1 MZS      0.176500
     23 H4          3.9290    0.2410   -2.1110 ha        1 MZS      0.176500
     24 H61C        5.8850   -0.4790    0.9590 h1        1 MZS      0.071200
     25 H62C        5.8820   -0.4870   -0.8860 h1        1 MZS      0.071200
     26 H8          7.4030    4.0980   -1.3480 ha        1 MZS      0.154000
@<TRIPOS>BOND
     1    1    2 1   
     2    2    3 ar  
     3    2    4 ar  
     4    3    7 ar  
     5    3   20 1   
     6    4    5 ar  
     7    4   21 1   
     8    5    6 ar  
     9    5   23 1   
    10    6    7 ar  
    11    6    8 1   
    12    7   22 1   
    13    8    9 1   
    14    8   24 1   
    15    8   25 1   
    16    9   10 1   
    17    9   16 1   
    18   10   11 2   
    19   11   12 1   
    20   11   15 1   
    21   12   13 1   
    22   12   14 1   
    23   15   16 2   
    24   15   26 1   
    25   16   17 1   
    26   17   18 1   
    27   17   19 1   
@<TRIPOS>SUBSTRUCTURE
     1 MZS         1 TEMP              0 ****  ****    0 ROOT
