@<TRIPOS>MOLECULE
MZT
   28    27     1     0     0
SMALL
bcc


@<TRIPOS>ATOM
      1 N1          0.1890   -0.0350    0.3130 n4        1 MZT     -0.585800
      2 C8          0.1550    0.9870    1.4080 c3        1 MZT      0.080100
      3 O4          2.6320    1.6350    3.0130 o         1 MZT     -0.837300
      4 C5          2.9980    1.3210    1.8490 c         1 MZT      0.894600
      5 O7          2.8350    2.0740    0.8350 o         1 MZT     -0.837300
      6 C6          3.5380   -0.0950    1.6000 c3        1 MZT     -0.210400
      7 C2          1.6280   -0.4530    0.0050 c3        1 MZT      0.105500
      8 C9         -0.6390   -1.2030    0.7100 c3        1 MZT      0.080100
      9 C10        -0.4050    0.5940   -0.9030 c3        1 MZT      0.080100
     10 C3          2.3920   -1.0120    1.2190 c3        1 MZT     -0.068400
     11 C21         1.7220   -1.4380   -1.1510 c3        1 MZT     -0.119100
     12 H81C       -0.9120    1.2430    1.6280 hx        1 MZT      0.097700
     13 H82C        0.7330    1.9060    1.0840 hx        1 MZT      0.097700
     14 H83C        0.6630    0.5970    2.3340 hx        1 MZT      0.097700
     15 H2          2.1390    0.5280   -0.3050 hx        1 MZT      0.175700
     16 H91C       -0.6750   -1.9460   -0.1280 hx        1 MZT      0.097700
     17 H92C       -0.1930   -1.6860    1.6190 hx        1 MZT      0.097700
     18 H93C       -1.6800   -0.8590    0.9470 hx        1 MZT      0.097700
     19 H101       -0.5520   -0.1760   -1.7030 hx        1 MZT      0.097700
     20 H102        0.2840    1.4020   -1.2700 hx        1 MZT      0.097700
     21 H103       -1.3980    1.0440   -0.6380 hx        1 MZT      0.097700
     22 H61C        4.0270   -0.4790    2.5290 hc        1 MZT      0.054700
     23 H62C        4.2990   -0.0630    0.7810 hc        1 MZT      0.054700
     24 H31C        1.7320   -1.1460    2.1150 hc        1 MZT      0.045200
     25 H32C        2.7890   -2.0290    0.9610 hc        1 MZT      0.045200
     26 H211        1.2500   -2.4200   -0.9100 hc        1 MZT      0.054700
     27 H212        1.2720   -1.0340   -2.0890 hc        1 MZT      0.054700
     28 H213        2.8110   -1.6130   -1.3480 hc        1 MZT      0.054700
@<TRIPOS>BOND
     1    1    2 1   
     2    1    7 1   
     3    1    8 1   
     4    1    9 1   
     5    2   12 1   
     6    2   13 1   
     7    2   14 1   
     8    3    4 1   
     9    4    5 1   
    10    4    6 1   
    11    6   10 1   
    12    6   22 1   
    13    6   23 1   
    14    7   10 1   
    15    7   11 1   
    16    7   15 1   
    17    8   16 1   
    18    8   17 1   
    19    8   18 1   
    20    9   19 1   
    21    9   20 1   
    22    9   21 1   
    23   10   24 1   
    24   10   25 1   
    25   11   26 1   
    26   11   27 1   
    27   11   28 1   
@<TRIPOS>SUBSTRUCTURE
     1 MZT         1 TEMP              0 ****  ****    0 ROOT
