@<TRIPOS>MOLECULE
MZT
   28    27     1     0     0
SMALL
bcc


@<TRIPOS>ATOM
      1 N1          0.2840    0.1810    0.1940 n4        1 MZT     -0.578800
      2 C8          0.2000    1.6740    0.1140 c3        1 MZT      0.081767
      3 O4          2.2690    1.2320    2.3610 o         1 MZT     -0.839800
      4 C5          2.5120    0.0820    2.8630 c         1 MZT      0.896600
      5 O7          2.1770   -0.2370    4.0310 o         1 MZT     -0.839800
      6 C6          3.1640   -0.9740    1.9590 c3        1 MZT     -0.210400
      7 C2          1.7580   -0.2030    0.0220 c3        1 MZT      0.106500
      8 C9         -0.2990   -0.2260    1.5090 c3        1 MZT      0.081767
      9 C10        -0.5550   -0.4220   -0.8770 c3        1 MZT      0.081767
     10 C3          2.2350   -1.4110    0.8420 c3        1 MZT     -0.066400
     11 C21         2.1440   -0.3840   -1.4400 c3        1 MZT     -0.118100
     12 H81C       -0.8750    1.9880    0.1510 hx        1 MZT      0.096700
     13 H82C        0.7650    2.1050    0.9970 hx        1 MZT      0.096700
     14 H83C        0.6650    2.0210   -0.8430 hx        1 MZT      0.096700
     15 H2          2.3350    0.7040    0.4300 hx        1 MZT      0.177700
     16 H91C       -0.4100   -1.3380    1.5560 hx        1 MZT      0.096700
     17 H92C        0.3620    0.1390    2.3520 hx        1 MZT      0.096700
     18 H93C       -1.3130    0.2470    1.6100 hx        1 MZT      0.096700
     19 H101       -0.3000    0.0290   -1.8710 hx        1 MZT      0.096700
     20 H102       -1.6390   -0.2250   -0.6580 hx        1 MZT      0.096700
     21 H103       -0.3760   -1.5280   -0.9050 hx        1 MZT      0.096700
     22 H61C        3.4380   -1.8660    2.5760 hc        1 MZT      0.054200
     23 H62C        4.1010   -0.5420    1.5270 hc        1 MZT      0.054200
     24 H31C        2.7890   -2.1080    0.1560 hc        1 MZT      0.044700
     25 H32C        1.3920   -2.0090    1.2710 hc        1 MZT      0.044700
     26 H211        3.2590   -0.4760   -1.4790 hc        1 MZT      0.053033
     27 H212        1.7030   -1.3080   -1.8830 hc        1 MZT      0.053033
     28 H213        1.8530    0.4970   -2.0610 hc        1 MZT      0.053033
@<TRIPOS>BOND
     1    1    2 1   
     2    1    7 1   
     3    1    8 1   
     4    1    9 1   
     5    2   12 1   
     6    2   13 1   
     7    2   14 1   
     8    3    4 1   
     9    4    5 1   
    10    4    6 1   
    11    6   10 1   
    12    6   22 1   
    13    6   23 1   
    14    7   10 1   
    15    7   11 1   
    16    7   15 1   
    17    8   16 1   
    18    8   17 1   
    19    8   18 1   
    20    9   19 1   
    21    9   20 1   
    22    9   21 1   
    23   10   24 1   
    24   10   25 1   
    25   11   26 1   
    26   11   27 1   
    27   11   28 1   
@<TRIPOS>SUBSTRUCTURE
     1 MZT         1 TEMP              0 ****  ****    0 ROOT
