@<TRIPOS>MOLECULE
MZT
   28    27     1     0     0
SMALL
bcc


@<TRIPOS>ATOM
      1 N1          0.1870   -0.0350    0.3230 n4        1 MZT     -0.585800
      2 C8          0.1760    1.0250    1.3820 c3        1 MZT      0.080100
      3 O4          2.6800    1.7100    2.9280 o         1 MZT     -0.837300
      4 C5          3.0270    1.3530    1.7720 c         1 MZT      0.894600
      5 O7          2.8550    2.0710    0.7350 o         1 MZT     -0.837300
      6 C6          3.5540   -0.0740    1.5640 c3        1 MZT     -0.210400
      7 C2          1.6180   -0.4740    0.0100 c3        1 MZT      0.105500
      8 C9         -0.6430   -1.1820    0.7720 c3        1 MZT      0.080100
      9 C10        -0.4200    0.5550   -0.9060 c3        1 MZT      0.080100
     10 C3          2.3960   -0.9960    1.2320 c3        1 MZT     -0.068400
     11 C21         1.6900   -1.4990   -1.1130 c3        1 MZT     -0.119100
     12 H81C        0.6940    0.6640    2.3140 hx        1 MZT      0.097811
     13 H82C        0.7550    1.9280    1.0180 hx        1 MZT      0.097811
     14 H83C       -0.8860    1.2960    1.6080 hx        1 MZT      0.097811
     15 H2          2.1320    0.4920   -0.3420 hx        1 MZT      0.175700
     16 H91C       -1.6780   -0.8230    1.0120 hx        1 MZT      0.097811
     17 H92C       -0.6960   -1.9540   -0.0380 hx        1 MZT      0.097811
     18 H93C       -0.1870   -1.6360    1.6920 hx        1 MZT      0.097811
     19 H101       -0.5840   -0.2410   -1.6760 hx        1 MZT      0.097811
     20 H102        0.2700    1.3450   -1.3100 hx        1 MZT      0.097811
     21 H103       -1.4060    1.0220   -0.6430 hx        1 MZT      0.097811
     22 H61C        4.0530   -0.4300    2.4990 hc        1 MZT      0.054700
     23 H62C        4.3030   -0.0770    0.7340 hc        1 MZT      0.054700
     24 H31C        2.7820   -2.0250    1.0040 hc        1 MZT      0.045200
     25 H32C        1.7480   -1.0940    2.1410 hc        1 MZT      0.045200
     26 H211        1.2290   -1.1250   -2.0580 hc        1 MZT      0.054700
     27 H212        1.2140   -2.4680   -0.8310 hc        1 MZT      0.054700
     28 H213        2.7750   -1.6890   -1.3180 hc        1 MZT      0.054700
@<TRIPOS>BOND
     1    1    2 1   
     2    1    7 1   
     3    1    8 1   
     4    1    9 1   
     5    2   12 1   
     6    2   13 1   
     7    2   14 1   
     8    3    4 1   
     9    4    5 1   
    10    4    6 1   
    11    6   10 1   
    12    6   22 1   
    13    6   23 1   
    14    7   10 1   
    15    7   11 1   
    16    7   15 1   
    17    8   16 1   
    18    8   17 1   
    19    8   18 1   
    20    9   19 1   
    21    9   20 1   
    22    9   21 1   
    23   10   24 1   
    24   10   25 1   
    25   11   26 1   
    26   11   27 1   
    27   11   28 1   
@<TRIPOS>SUBSTRUCTURE
     1 MZT         1 TEMP              0 ****  ****    0 ROOT
