@<TRIPOS>MOLECULE
MZX
   29    26     1     0     0
SMALL
bcc


@<TRIPOS>ATOM
      1 C1         -1.2170    0.1610   -0.5300 c1        1 MZX      0.141000
      2 C2          0.1930    0.1000   -0.5410 c2        1 MZX     -0.138000
      3 C3          0.9000    0.0230    0.6700 c1        1 MZX      0.129000
      4 C4          0.2040    0.0070    1.8890 c1        1 MZX     -0.053000
      5 C5         -1.1930    0.0680    1.8980 c1        1 MZX     -0.057000
      6 C6         -1.9050    0.1460    0.6800 c1        1 MZX     -0.248000
      7 C7          0.9450    0.1230   -1.8610 c2        1 MZX      0.045000
      8 C8          2.3970    0.1480   -1.8620 c1        1 MZX     -0.243000
      9 C9          3.1360    0.0850   -0.5780 c1        1 MZX      0.336000
     10 N10         2.4100    0.0140    0.6690 n3        1 MZX     -0.291000
     11 O11        -2.1030    0.9560   -1.2950 o         1 MZX     -0.209000
     12 O12         0.9170    0.3650    3.0470 os        1 MZX     -0.224000
     13 C13         0.8850   -0.6050    4.0510 c3        1 MZX     -0.079000
     14 C14        -3.2960    0.2650   -1.7090 c3        1 MZX     -0.079000
     15 C15         0.1760   -0.0210   -3.1890 c3        1 MZX     -0.187000
     16 O17         4.3650    0.0860   -0.5740 o         1 MZX     -0.358000
     17 H5         -1.6680    0.0570    2.7330 ha        1 MZX      0.149000
     18 H6         -2.9000    0.1890    0.6880 ha        1 MZX      0.145000
     19 H8          2.8950    0.1960   -2.7240 ha        1 MZX      0.164000
     20 HN10        2.8820   -0.0260    1.4890 hn        1 MZX      0.258000
     21 H13         0.8360   -1.5030    3.6390 h1        1 MZX      0.081000
     22 H13A        1.7020   -0.5390    4.5980 h1        1 MZX      0.081000
     23 H13B        0.1000   -0.4620    4.6170 h1        1 MZX      0.081000
     24 H14        -3.1470   -0.7120   -1.6550 h1        1 MZX      0.088333
     25 H14A       -3.5110    0.5100   -2.6220 h1        1 MZX      0.088333
     26 H14B       -4.0470    0.5170   -1.1150 h1        1 MZX      0.088333
     27 H15         0.8050   -0.2500   -3.9090 hc        1 MZX      0.097333
     28 H15A       -0.4920   -0.7280   -3.1030 hc        1 MZX      0.097333
     29 H15B       -0.2710    0.8290   -3.4030 hc        1 MZX      0.097333
@<TRIPOS>BOND
     1    1    2 1   
     2    1    6 1   
     3    2    3 1   
     4    2    7 1   
     5    3   10 1   
     6    4    5 1   
     7    4   12 1   
     8    5   17 1   
     9    6   18 1   
    10    7    8 1   
    11    7   15 1   
    12    8   19 1   
    13    9   10 1   
    14    9   16 1   
    15   10   20 1   
    16   11   14 1   
    17   12   13 1   
    18   13   21 1   
    19   13   22 1   
    20   13   23 1   
    21   14   24 1   
    22   14   25 1   
    23   14   26 1   
    24   15   27 1   
    25   15   28 1   
    26   15   29 1   
@<TRIPOS>SUBSTRUCTURE
     1 MZX         1 TEMP              0 ****  ****    0 ROOT
