@<TRIPOS>MOLECULE
MZX
   29    30     1     0     0
SMALL
bcc


@<TRIPOS>ATOM
      1 C1         -0.0760   -0.0450    0.0220 ca        1 MZX      0.166100
      2 C2          1.3460   -0.0420   -0.0130 ca        1 MZX     -0.136800
      3 C3          2.0450   -0.1150    1.2270 ca        1 MZX      0.117600
      4 C4          1.2960   -0.1990    2.4480 ca        1 MZX      0.026100
      5 C5         -0.0870   -0.2030    2.4330 ca        1 MZX     -0.108000
      6 C6         -0.7780   -0.1220    1.2210 ca        1 MZX     -0.231000
      7 C7          2.1310    0.0350   -1.2310 cc        1 MZX      0.049600
      8 C8          3.4880    0.0370   -1.1690 cd        1 MZX     -0.259200
      9 C9          4.2100   -0.0360    0.1000 c         1 MZX      0.696700
     10 N10         3.4290   -0.1100    1.2610 n         1 MZX     -0.433100
     11 O11        -0.7130    0.0360   -1.2020 os        1 MZX     -0.326900
     12 O12         2.0430   -0.3320    3.6120 os        1 MZX     -0.339900
     13 C13         1.4300    0.1840    4.7890 c3        1 MZX      0.117700
     14 C14        -2.1370    0.0110   -1.1850 c3        1 MZX      0.110700
     15 C15         1.4690    0.1100   -2.5560 c3        1 MZX     -0.064900
     16 O17         5.4510   -0.0350    0.2180 o         1 MZX     -0.635500
     17 H5         -0.6550   -0.2690    3.3730 ha        1 MZX      0.144000
     18 H6         -1.8760   -0.1230    1.2420 ha        1 MZX      0.144000
     19 H8          4.1230    0.0930   -2.0650 ha        1 MZX      0.164000
     20 HN10        3.8820   -0.1710    2.1490 hn        1 MZX      0.347500
     21 H13         0.6340   -0.5170    5.1420 h1        1 MZX      0.044700
     22 H13A        1.0040    1.2000    4.6120 h1        1 MZX      0.044700
     23 H13B        2.2700    0.2250    5.5270 h1        1 MZX      0.044700
     24 H14        -2.5110   -0.9440   -0.7420 h1        1 MZX      0.047700
     25 H14A       -2.5410    0.8910   -0.6290 h1        1 MZX      0.047700
     26 H14B       -2.4050    0.0740   -2.2710 h1        1 MZX      0.047700
     27 H15         0.8210    1.0210   -2.6110 hc        1 MZX      0.057700
     28 H15A        0.8210   -0.7890   -2.7140 hc        1 MZX      0.057700
     29 H15B        2.2200    0.1570   -3.3820 hc        1 MZX      0.057700
@<TRIPOS>BOND
     1    1    2 ar  
     2    1    6 ar  
     3    1   11 1   
     4    2    3 ar  
     5    2    7 1   
     6    3    4 ar  
     7    3   10 1   
     8    4    5 ar  
     9    4   12 1   
    10    5    6 ar  
    11    5   17 1   
    12    6   18 1   
    13    7    8 2   
    14    7   15 1   
    15    8    9 1   
    16    8   19 1   
    17    9   10 1   
    18    9   16 2   
    19   10   20 1   
    20   11   14 1   
    21   12   13 1   
    22   13   21 1   
    23   13   22 1   
    24   13   23 1   
    25   14   24 1   
    26   14   25 1   
    27   14   26 1   
    28   15   27 1   
    29   15   28 1   
    30   15   29 1   
@<TRIPOS>SUBSTRUCTURE
     1 MZX         1 TEMP              0 ****  ****    0 ROOT
