@<TRIPOS>MOLECULE
MZX
   29    30     1     0     0
SMALL
bcc


@<TRIPOS>ATOM
      1 C1         -1.5270    0.8170    0.0480 ca        1 MZX      0.166100
      2 C2         -0.6120   -0.2730    0.0430 ca        1 MZX     -0.136800
      3 C3          0.7800    0.0230    0.1150 ca        1 MZX      0.117600
      4 C4          1.2020    1.3920    0.1990 ca        1 MZX      0.026100
      5 C5          0.2750    2.4200    0.2050 ca        1 MZX     -0.108000
      6 C6         -1.0910    2.1370    0.1250 ca        1 MZX     -0.231000
      7 C7         -1.0060   -1.6670   -0.0340 cc        1 MZX      0.049600
      8 C8         -0.0620   -2.6440   -0.0380 cd        1 MZX     -0.259200
      9 C9          1.3670   -2.3460    0.0330 c         1 MZX      0.696700
     10 N10         1.7220   -0.9930    0.1080 n         1 MZX     -0.433100
     11 O11        -2.8650    0.4860   -0.0320 os        1 MZX     -0.326900
     12 O12         2.5690    1.6020    0.3310 os        1 MZX     -0.339900
     13 C13         3.0450    2.8400   -0.1850 c3        1 MZX      0.117700
     14 C14        -3.7940    1.5650   -0.0050 c3        1 MZX      0.110700
     15 C15        -2.4380   -2.0460   -0.1080 c3        1 MZX     -0.064900
     16 O17         2.2760   -3.1990    0.0310 o         1 MZX     -0.635500
     17 H5          0.6050    3.4680    0.2710 ha        1 MZX      0.144000
     18 H6         -1.8020    2.9740    0.1270 ha        1 MZX      0.144000
     19 H8         -0.3150   -3.7120   -0.0940 ha        1 MZX      0.164000
     20 HN10        2.6870   -0.7450    0.1680 hn        1 MZX      0.347500
     21 H13         2.6300    3.0430   -1.2010 h1        1 MZX      0.044700
     22 H13A        2.7850    3.6710    0.5170 h1        1 MZX      0.044700
     23 H13B        4.1550    2.6990   -0.2280 h1        1 MZX      0.044700
     24 H14        -3.7090    2.1380    0.9490 h1        1 MZX      0.047700
     25 H14A       -3.6450    2.2370   -0.8850 h1        1 MZX      0.047700
     26 H14B       -4.7860    1.0490   -0.0680 h1        1 MZX      0.047700
     27 H15        -2.9090   -1.5950   -1.0180 hc        1 MZX      0.057700
     28 H15A       -2.5610   -3.1560   -0.1560 hc        1 MZX      0.057700
     29 H15B       -2.9840   -1.6650    0.7920 hc        1 MZX      0.057700
@<TRIPOS>BOND
     1    1    2 ar  
     2    1    6 ar  
     3    1   11 1   
     4    2    3 ar  
     5    2    7 1   
     6    3    4 ar  
     7    3   10 1   
     8    4    5 ar  
     9    4   12 1   
    10    5    6 ar  
    11    5   17 1   
    12    6   18 1   
    13    7    8 2   
    14    7   15 1   
    15    8    9 1   
    16    8   19 1   
    17    9   10 1   
    18    9   16 2   
    19   10   20 1   
    20   11   14 1   
    21   12   13 1   
    22   13   21 1   
    23   13   22 1   
    24   13   23 1   
    25   14   24 1   
    26   14   25 1   
    27   14   26 1   
    28   15   27 1   
    29   15   28 1   
    30   15   29 1   
@<TRIPOS>SUBSTRUCTURE
     1 MZX         1 TEMP              0 ****  ****    0 ROOT
