@<TRIPOS>MOLECULE
MZX
   29    30     1     0     0
SMALL
bcc


@<TRIPOS>ATOM
      1 C1         -0.0650    0.0020    0.0210 ca        1 MZX      0.160100
      2 C2          1.3580    0.0010   -0.0220 ca        1 MZX     -0.132800
      3 C3          2.0640   -0.0000    1.2160 ca        1 MZX      0.114600
      4 C4          1.3210   -0.0000    2.4460 ca        1 MZX      0.038100
      5 C5         -0.0610    0.0010    2.4380 ca        1 MZX     -0.123000
      6 C6         -0.7580    0.0020    1.2250 ca        1 MZX     -0.225000
      7 C7          2.1350    0.0010   -1.2480 cc        1 MZX      0.048600
      8 C8          3.4920   -0.0000   -1.1940 cd        1 MZX     -0.258200
      9 C9          4.2220   -0.0010    0.0720 c         1 MZX      0.695700
     10 N10         3.4490   -0.0010    1.2400 ns        1 MZX     -0.432100
     11 O11        -0.7080    0.0030   -1.2020 os        1 MZX     -0.326900
     12 O12         2.0920   -0.0020    3.6020 os        1 MZX     -0.338900
     13 C13         1.3770   -0.0010    4.8300 c3        1 MZX      0.119700
     14 C14        -2.1320    0.0040   -1.1760 c3        1 MZX      0.110700
     15 C15         1.4640    0.0020   -2.5700 c3        1 MZX     -0.064900
     16 O17         5.4640   -0.0020    0.1810 o         1 MZX     -0.636500
     17 H5         -0.6340    0.0000    3.3770 ha        1 MZX      0.143000
     18 H6         -1.8570    0.0020    1.2540 ha        1 MZX      0.143000
     19 H8          4.1210   -0.0000   -2.0970 ha        1 MZX      0.164000
     20 HN10        3.9090   -0.0020    2.1260 hn        1 MZX      0.347500
     21 H13         0.7470   -0.9190    4.9210 h1        1 MZX      0.045700
     22 H13A        0.7490    0.9180    4.9220 h1        1 MZX      0.045700
     23 H13B        2.1900   -0.0020    5.6010 h1        1 MZX      0.045700
     24 H14        -2.5200   -0.9140   -0.6730 h1        1 MZX      0.047033
     25 H14A       -2.5170    0.9240   -0.6720 h1        1 MZX      0.047033
     26 H14B       -2.4080    0.0050   -2.2610 h1        1 MZX      0.047033
     27 H15         0.8160    0.9090   -2.6720 hc        1 MZX      0.057700
     28 H15A        0.8150   -0.9050   -2.6730 hc        1 MZX      0.057700
     29 H15B        2.2100    0.0010   -3.4020 hc        1 MZX      0.057700
@<TRIPOS>BOND
     1    1    2 ar  
     2    1    6 ar  
     3    1   11 1   
     4    2    3 ar  
     5    2    7 1   
     6    3    4 ar  
     7    3   10 1   
     8    4    5 ar  
     9    4   12 1   
    10    5    6 ar  
    11    5   17 1   
    12    6   18 1   
    13    7    8 2   
    14    7   15 1   
    15    8    9 1   
    16    8   19 1   
    17    9   10 1   
    18    9   16 2   
    19   10   20 1   
    20   11   14 1   
    21   12   13 1   
    22   13   21 1   
    23   13   22 1   
    24   13   23 1   
    25   14   24 1   
    26   14   25 1   
    27   14   26 1   
    28   15   27 1   
    29   15   28 1   
    30   15   29 1   
@<TRIPOS>SUBSTRUCTURE
     1 MZX         1 TEMP              0 ****  ****    0 ROOT
