@<TRIPOS>MOLECULE
MZZ
   23    24     1     0     0
SMALL
bcc


@<TRIPOS>ATOM
      1 C1         -3.2060    0.4210   -0.0380 ca        1 MZZ      0.193600
      2 C2         -2.8280   -0.8100   -0.6330 ca        1 MZZ     -0.212500
      3 C3         -1.5190   -1.2570   -0.5490 ca        1 MZZ     -0.040000
      4 C4         -0.5460   -0.4970    0.1160 ca        1 MZZ     -0.212600
      5 C5         -0.9100    0.7100    0.7210 ca        1 MZZ     -0.040000
      6 C6         -2.2180    1.1670    0.6550 ca        1 MZZ     -0.212500
      7 N7         -4.4920    0.9160   -0.1880 nh        1 MZZ     -0.837200
      8 C8          0.8280   -1.0410    0.2060 c         1 MZZ      0.597500
      9 N9          1.9100   -0.1650   -0.0150 n         1 MZZ     -0.233000
     10 O12         1.0630   -2.2320    0.4600 o         1 MZZ     -0.544100
     11 C17         3.2720   -0.4740    0.1860 cc        1 MZZ     -0.214600
     12 C18         3.9930    0.6600   -0.1970 cd        1 MZZ      0.289200
     13 N19         3.1170    1.6640   -0.6410 nd        1 MZZ     -0.658000
     14 C20         1.8830    1.1560   -0.5300 cc        1 MZZ      0.411400
     15 H2         -3.5730   -1.4170   -1.1680 ha        1 MZZ      0.140500
     16 H3         -1.2350   -2.2220   -1.0000 ha        1 MZZ      0.148500
     17 H5         -0.1610    1.3020    1.2720 ha        1 MZZ      0.148500
     18 H6         -2.4830    2.1170    1.1410 ha        1 MZZ      0.140500
     19 HN7        -5.1940    0.2590   -0.4350 hn        1 MZZ      0.409800
     20 HN7A       -4.7740    1.6200    0.4530 hn        1 MZZ      0.409800
     21 H17         3.5790   -1.4460    0.5700 h4        1 MZZ      0.195000
     22 H18         5.0710    0.8190   -0.1830 h4        1 MZZ      0.046100
     23 H20         0.9470    1.6570   -0.8050 h5        1 MZZ      0.070100
@<TRIPOS>BOND
     1    1    2 ar  
     2    1    6 ar  
     3    1    7 1   
     4    2    3 ar  
     5    2   15 1   
     6    3    4 ar  
     7    3   16 1   
     8    4    5 ar  
     9    4    8 1   
    10    5    6 ar  
    11    5   17 1   
    12    6   18 1   
    13    7   19 1   
    14    7   20 1   
    15    8    9 1   
    16    8   10 2   
    17    9   11 1   
    18    9   14 1   
    19   11   12 2   
    20   11   21 1   
    21   12   13 1   
    22   12   22 1   
    23   13   14 2   
    24   14   23 1   
@<TRIPOS>SUBSTRUCTURE
     1 MZZ         1 TEMP              0 ****  ****    0 ROOT
