@<TRIPOS>MOLECULE
MZZ
   24    25     1     0     0
SMALL
bcc


@<TRIPOS>ATOM
      1 C1         -0.0080   -0.0460   -0.0240 ca        1 MZZ     -0.056400
      2 C2          1.3850    0.1390    0.0070 ca        1 MZZ     -0.103500
      3 C3          2.0410    0.1340    1.2360 ca        1 MZZ     -0.065000
      4 C4          1.3160   -0.0440    2.4200 ca        1 MZZ     -0.082600
      5 C5         -0.0690   -0.2280    2.3810 ca        1 MZZ     -0.065000
      6 C6         -0.7420   -0.2330    1.1600 ca        1 MZZ     -0.103500
      7 N7         -0.7050   -0.0450   -1.3120 n4        1 MZZ     -0.704000
      8 C8          2.0730   -0.1130    3.7110 c         1 MZZ      0.574500
      9 N9          1.6620    0.7150    4.7540 n         1 MZZ     -0.244000
     10 O12         3.0320   -0.8860    3.8360 o         1 MZZ     -0.500100
     11 C17         2.2090    0.7280    6.0630 cc        1 MZZ     -0.196600
     12 C18         1.5300    1.7260    6.7600 cd        1 MZZ      0.316200
     13 N19         0.5790    2.3450    5.9230 nd        1 MZZ     -0.618000
     14 C20         0.6710    1.7390    4.7390 cc        1 MZZ      0.399400
     15 H2          1.9720    0.2810   -0.9160 ha        1 MZZ      0.166500
     16 H3          3.1390    0.2560    1.2760 ha        1 MZZ      0.190500
     17 H5         -0.6400   -0.3810    3.3150 ha        1 MZZ      0.190500
     18 H6         -1.8340   -0.3880    1.1480 ha        1 MZZ      0.166500
     19 HN7        -0.9350    0.9210   -1.5770 hn        1 MZZ      0.467800
     20 HN7A       -1.5720   -0.5910   -1.2430 hn        1 MZZ      0.467800
     21 H17         3.0050    0.0380    6.3490 h4        1 MZZ      0.209000
     22 H18         1.6540    2.0450    7.7970 h4        1 MZZ      0.067100
     23 H20         0.0880    1.9760    3.8430 h5        1 MZZ      0.057100
     24 H73        -0.1030   -0.4570   -2.0340 hn        1 MZZ      0.467800
@<TRIPOS>BOND
     1    1    2 ar  
     2    1    6 ar  
     3    1    7 1   
     4    2    3 ar  
     5    2   15 1   
     6    3    4 ar  
     7    3   16 1   
     8    4    5 ar  
     9    4    8 1   
    10    5    6 ar  
    11    5   17 1   
    12    6   18 1   
    13    7   19 1   
    14    7   20 1   
    15    7   24 1   
    16    8    9 1   
    17    8   10 2   
    18    9   11 1   
    19    9   14 1   
    20   11   12 2   
    21   11   21 1   
    22   12   13 1   
    23   12   22 1   
    24   13   14 2   
    25   14   23 1   
@<TRIPOS>SUBSTRUCTURE
     1 MZZ         1 TEMP              0 ****  ****    0 ROOT
