@<TRIPOS>MOLECULE
MZZ
   23    24     1     0     0
SMALL
bcc


@<TRIPOS>ATOM
      1 C1         -0.0450   -0.0530   -0.0570 ca        1 MZZ      0.197600
      2 C2          1.3580    0.1590   -0.0400 ca        1 MZZ     -0.214000
      3 C3          2.0500    0.1800    1.1600 ca        1 MZZ     -0.039000
      4 C4          1.3740    0.0190    2.3770 ca        1 MZZ     -0.213600
      5 C5         -0.0080   -0.1950    2.3750 ca        1 MZZ     -0.039000
      6 C6         -0.7140   -0.2290    1.1810 ca        1 MZZ     -0.214000
      7 N7         -0.7320   -0.1590   -1.2550 nv        1 MZZ     -0.840200
      8 C8          2.1690    0.0190    3.6260 c         1 MZZ      0.597500
      9 N9          1.6670    0.7280    4.7390 n         1 MZZ     -0.232000
     10 O12         3.2570   -0.5660    3.7310 o         1 MZZ     -0.543100
     11 C17         2.2090    0.7010    6.0410 cc        1 MZZ     -0.213600
     12 C18         1.4340    1.5770    6.8070 cd        1 MZZ      0.289200
     13 N19         0.4310    2.1570    6.0130 nd        1 MZZ     -0.658000
     14 C20         0.5860    1.6440    4.7850 cc        1 MZZ      0.410400
     15 H2          1.9080    0.2940   -0.9840 ha        1 MZZ      0.141000
     16 H3          3.1440    0.3220    1.1640 ha        1 MZZ      0.148500
     17 H5         -0.5480   -0.3530    3.3230 ha        1 MZZ      0.148500
     18 H6         -1.8000   -0.4070    1.2010 ha        1 MZZ      0.141000
     19 HN7        -0.2870    0.2160   -2.0590 hn        1 MZZ      0.411800
     20 HN7A       -1.7170   -0.0490   -1.2160 hn        1 MZZ      0.411800
     21 H17         3.0700    0.0780    6.2820 h4        1 MZZ      0.196000
     22 H18         1.5300    1.8260    7.8630 h4        1 MZZ      0.046100
     23 H20        -0.0130    1.8850    3.9010 h5        1 MZZ      0.068100
@<TRIPOS>BOND
     1    1    2 ar  
     2    1    6 ar  
     3    1    7 1   
     4    2    3 ar  
     5    2   15 1   
     6    3    4 ar  
     7    3   16 1   
     8    4    5 ar  
     9    4    8 1   
    10    5    6 ar  
    11    5   17 1   
    12    6   18 1   
    13    7   19 1   
    14    7   20 1   
    15    8    9 1   
    16    8   10 2   
    17    9   11 1   
    18    9   14 1   
    19   11   12 2   
    20   11   21 1   
    21   12   13 1   
    22   12   22 1   
    23   13   14 2   
    24   14   23 1   
@<TRIPOS>SUBSTRUCTURE
     1 MZZ         1 TEMP              0 ****  ****    0 ROOT
