@<TRIPOS>MOLECULE
B00
   33    35     1     0     0
SMALL
bcc


@<TRIPOS>ATOM
      1 O          -3.3040   -0.6710    2.0850 o         1 B00     -0.638500
      2 C1         -2.5160   -0.5840    1.1240 c         1 B00      0.708700
      3 N2         -2.7160    0.4540    0.1670 n         1 B00     -0.396300
      4 C5         -3.8380    1.3450    0.2980 c3        1 B00      0.057300
      5 C4         -1.8300    0.5530   -0.9290 cc        1 B00      0.678800
      6 N3         -2.1020    1.5100   -1.9310 nh        1 B00     -0.889800
      7 N1         -0.7650   -0.2620   -1.1070 nd        1 B00     -0.695300
      8 C3         -0.5600   -1.2730   -0.1890 cd        1 B00      0.253400
      9 C2         -1.3830   -1.4650    0.8970 cc        1 B00     -0.337200
     10 C6          0.5920   -2.1850   -0.3810 cx        1 B00     -0.083500
     11 C14         1.4760   -2.1350   -1.5970 cx        1 B00     -0.099400
     12 C7          2.0290   -1.7020   -0.2690 cx        1 B00     -0.063400
     13 C8          2.3790   -0.3040    0.0180 ca        1 B00     -0.050300
     14 C13         2.3460    0.1590    1.3410 ca        1 B00     -0.116000
     15 C12         2.7160    1.4690    1.6370 ca        1 B00     -0.133000
     16 C11         3.1280    2.3280    0.6180 ca        1 B00     -0.132000
     17 C10         3.1680    1.8720   -0.6990 ca        1 B00     -0.133000
     18 C9          2.7960    0.5630   -1.0000 ca        1 B00     -0.116000
     19 H1         -4.4360    1.0590    1.2060 h1        1 B00      0.060033
     20 H2         -3.4820    2.4030    0.4240 h1        1 B00      0.060033
     21 H3         -4.5020    1.2800   -0.6050 h1        1 B00      0.060033
     22 H4         -2.4910    2.3690   -1.6120 hn        1 B00      0.419300
     23 H5         -1.3770    1.6160   -2.6090 hn        1 B00      0.419300
     24 H6         -1.2340   -2.2660    1.6310 ha        1 B00      0.168000
     25 H7          0.3750   -3.1860    0.0530 hc        1 B00      0.090700
     26 H8          1.8220   -3.0930   -2.0270 hc        1 B00      0.082200
     27 H9          1.2840   -1.3790   -2.3790 hc        1 B00      0.082200
     28 H10         2.7270   -2.4010    0.2450 hc        1 B00      0.086700
     29 H11         2.0250   -0.5170    2.1470 ha        1 B00      0.134500
     30 H12         2.6840    1.8250    2.6770 ha        1 B00      0.129500
     31 H13         3.4230    3.3610    0.8540 ha        1 B00      0.129000
     32 H14         3.4980    2.5450   -1.5040 ha        1 B00      0.129500
     33 H15         2.8290    0.2080   -2.0410 ha        1 B00      0.134500
@<TRIPOS>BOND
     1    1    2 2   
     2    2    3 1   
     3    2    9 1   
     4    3    4 1   
     5    3    5 1   
     6    4   19 1   
     7    4   20 1   
     8    4   21 1   
     9    5    6 1   
    10    5    7 2   
    11    6   22 1   
    12    6   23 1   
    13    7    8 1   
    14    8    9 2   
    15    8   10 1   
    16    9   24 1   
    17   10   11 1   
    18   10   12 1   
    19   10   25 1   
    20   11   12 1   
    21   11   26 1   
    22   11   27 1   
    23   12   13 1   
    24   12   28 1   
    25   13   14 ar  
    26   13   18 ar  
    27   14   15 ar  
    28   14   29 1   
    29   15   16 ar  
    30   15   30 1   
    31   16   17 ar  
    32   16   31 1   
    33   17   18 ar  
    34   17   32 1   
    35   18   33 1   
@<TRIPOS>SUBSTRUCTURE
     1 B00         1 TEMP              0 ****  ****    0 ROOT
