@<TRIPOS>MOLECULE
B00
   34    36     1     0     0
SMALL
bcc


@<TRIPOS>ATOM
      1 O          -0.2650    0.4430   -0.2460 o         1 B00     -0.536500
      2 C1          0.9560    0.2660   -0.2080 c         1 B00      0.702700
      3 N2          1.5720    0.0900    1.0850 n         1 B00     -0.389300
      4 C5          0.7820    0.0940    2.2870 c3        1 B00      0.029300
      5 C4          2.9560   -0.0950    1.1040 cc        1 B00      0.529800
      6 N3          3.6210   -0.2890    2.4380 nz        1 B00     -0.800600
      7 N1          3.7750   -0.1230    0.0620 nd        1 B00     -0.576300
      8 C3          3.2050    0.0170   -1.2090 cd        1 B00      0.233400
      9 C2          1.8560    0.2110   -1.3600 cc        1 B00     -0.232200
     10 C6          4.0890   -0.0660   -2.3870 cx        1 B00     -0.115500
     11 C14         5.5590    0.2670   -2.3190 cx        1 B00     -0.087400
     12 C7          5.1410   -1.1570   -2.5360 cx        1 B00     -0.039400
     13 C8          5.3540   -2.1960   -1.5190 ca        1 B00     -0.068300
     14 C13         4.4850   -3.2950   -1.4570 ca        1 B00     -0.124000
     15 C12         4.7060   -4.3140   -0.5340 ca        1 B00     -0.137500
     16 C11         5.8000   -4.2520    0.3310 ca        1 B00     -0.131000
     17 C10         6.6730   -3.1670    0.2670 ca        1 B00     -0.137500
     18 C9          6.4530   -2.1420   -0.6530 ca        1 B00     -0.124000
     19 H1         -0.2990    0.2650    2.0120 h1        1 B00      0.079700
     20 H2          1.1030    0.9250    2.9710 h1        1 B00      0.079700
     21 H3          0.8560   -0.8930    2.8170 h1        1 B00      0.079700
     22 H4          3.4700    0.5440    3.0180 hn        1 B00      0.482133
     23 H5          3.2190   -1.1130    2.9000 hn        1 B00      0.482133
     24 H6          1.3740    0.3320   -2.3440 ha        1 B00      0.207000
     25 H7          3.5430    0.2260   -3.3120 hc        1 B00      0.113700
     26 H8          5.9980    0.8300   -3.1640 hc        1 B00      0.090200
     27 H9          6.0080    0.5610   -1.3530 hc        1 B00      0.090200
     28 H10         5.2490   -1.5730   -3.5650 hc        1 B00      0.111700
     29 H11         3.6370   -3.3620   -2.1560 ha        1 B00      0.139500
     30 H12         4.0290   -5.1820   -0.5030 ha        1 B00      0.142500
     31 H13         5.9860   -5.0710    1.0420 ha        1 B00      0.143000
     32 H14         7.5550   -3.1310    0.9240 ha        1 B00      0.142500
     33 H15         7.1600   -1.3010   -0.7170 ha        1 B00      0.139500
     34 H33         4.6330   -0.4350    2.3000 hn        1 B00      0.482133
@<TRIPOS>BOND
     1    1    2 2   
     2    2    3 1   
     3    2    9 1   
     4    3    4 1   
     5    3    5 1   
     6    4   19 1   
     7    4   20 1   
     8    4   21 1   
     9    5    6 1   
    10    5    7 2   
    11    6   22 1   
    12    6   23 1   
    13    6   34 1   
    14    7    8 1   
    15    8    9 2   
    16    8   10 1   
    17    9   24 1   
    18   10   11 1   
    19   10   12 1   
    20   10   25 1   
    21   11   12 1   
    22   11   26 1   
    23   11   27 1   
    24   12   13 1   
    25   12   28 1   
    26   13   14 ar  
    27   13   18 ar  
    28   14   15 ar  
    29   14   29 1   
    30   15   16 ar  
    31   15   30 1   
    32   16   17 ar  
    33   16   31 1   
    34   17   18 ar  
    35   17   32 1   
    36   18   33 1   
@<TRIPOS>SUBSTRUCTURE
     1 B00         1 TEMP              0 ****  ****    0 ROOT
