@<TRIPOS>MOLECULE
B00
   34    36     1     0     0
SMALL
bcc


@<TRIPOS>ATOM
      1 O          -0.2700    0.4190   -0.2780 o         1 B00     -0.536500
      2 C1          0.9510    0.2510   -0.2300 c         1 B00      0.702700
      3 N2          1.5580    0.0790    1.0680 n         1 B00     -0.389300
      4 C5          0.7590    0.0780    2.2640 c3        1 B00      0.029300
      5 C4          2.9430   -0.0980    1.0970 cc        1 B00      0.529800
      6 N3          3.5990   -0.2860    2.4370 n4        1 B00     -0.800600
      7 N1          3.7700   -0.1210    0.0620 nd        1 B00     -0.576300
      8 C3          3.2090    0.0150   -1.2130 cd        1 B00      0.233400
      9 C2          1.8600    0.2010   -1.3750 cc        1 B00     -0.232200
     10 C6          4.1040   -0.0630   -2.3840 cx        1 B00     -0.115500
     11 C14         5.5710    0.2750   -2.3040 cx        1 B00     -0.087400
     12 C7          5.1610   -1.1500   -2.5260 cx        1 B00     -0.039400
     13 C8          5.3690   -2.1890   -1.5080 ca        1 B00     -0.068300
     14 C13         4.5040   -3.2910   -1.4540 ca        1 B00     -0.124000
     15 C12         4.7220   -4.3110   -0.5300 ca        1 B00     -0.137500
     16 C11         5.8080   -4.2450    0.3430 ca        1 B00     -0.131000
     17 C10         6.6780   -3.1560    0.2880 ca        1 B00     -0.137500
     18 C9          6.4610   -2.1320   -0.6330 ca        1 B00     -0.124000
     19 H1          1.0680    0.9120    2.9500 h1        1 B00      0.079700
     20 H2          0.8350   -0.9090    2.7950 h1        1 B00      0.079700
     21 H3         -0.3220    0.2410    1.9800 h1        1 B00      0.079700
     22 H4          4.6130   -0.4250    2.3070 hn        1 B00      0.482133
     23 H5          3.4370    0.5450    3.0160 hn        1 B00      0.482133
     24 H6          1.3850    0.3180   -2.3630 ha        1 B00      0.207000
     25 H7          3.5630    0.2280   -3.3130 hc        1 B00      0.113700
     26 H8          6.0120    0.5700   -1.3350 hc        1 B00      0.090200
     27 H9          6.0150    0.8410   -3.1450 hc        1 B00      0.090200
     28 H10         5.2780   -1.5640   -3.5540 hc        1 B00      0.111700
     29 H11         3.6620   -3.3610   -2.1600 ha        1 B00      0.139500
     30 H12         4.0470   -5.1810   -0.5050 ha        1 B00      0.142500
     31 H13         5.9930   -5.0630    1.0560 ha        1 B00      0.143000
     32 H14         7.5550   -3.1180    0.9520 ha        1 B00      0.142500
     33 H15         7.1650   -1.2880   -0.6920 ha        1 B00      0.139500
     34 H33         3.1990   -1.1130    2.8960 hn        1 B00      0.482133
@<TRIPOS>BOND
     1    1    2 2   
     2    2    3 1   
     3    2    9 1   
     4    3    4 1   
     5    3    5 1   
     6    4   19 1   
     7    4   20 1   
     8    4   21 1   
     9    5    6 1   
    10    5    7 2   
    11    6   22 1   
    12    6   23 1   
    13    6   34 1   
    14    7    8 1   
    15    8    9 2   
    16    8   10 1   
    17    9   24 1   
    18   10   11 1   
    19   10   12 1   
    20   10   25 1   
    21   11   12 1   
    22   11   26 1   
    23   11   27 1   
    24   12   13 1   
    25   12   28 1   
    26   13   14 ar  
    27   13   18 ar  
    28   14   15 ar  
    29   14   29 1   
    30   15   16 ar  
    31   15   30 1   
    32   16   17 ar  
    33   16   31 1   
    34   17   18 ar  
    35   17   32 1   
    36   18   33 1   
@<TRIPOS>SUBSTRUCTURE
     1 B00         1 TEMP              0 ****  ****    0 ROOT
