@<TRIPOS>MOLECULE
B00
   34    36     1     0     0
SMALL
bcc


@<TRIPOS>ATOM
      1 O          -0.2330    0.4880   -0.1840 o         1 B00     -0.536500
      2 C1          0.9850    0.2940   -0.1650 c         1 B00      0.702700
      3 N2          1.6200    0.1160    1.1190 n         1 B00     -0.389300
      4 C5          0.8500    0.1370    2.3340 c3        1 B00      0.029300
      5 C4          3.0010   -0.0900    1.1160 cc        1 B00      0.529800
      6 N3          3.6850   -0.2870    2.4400 n4        1 B00     -0.800600
      7 N1          3.8020   -0.1350    0.0610 nd        1 B00     -0.576300
      8 C3          3.2130    0.0070   -1.2010 cd        1 B00      0.233400
      9 C2          1.8650    0.2200   -1.3310 cc        1 B00     -0.232200
     10 C6          4.0770   -0.0950   -2.3930 cx        1 B00     -0.115500
     11 C14         5.5520    0.2140   -2.3500 cx        1 B00     -0.087400
     12 C7          5.1090   -1.2030   -2.5550 cx        1 B00     -0.039400
     13 C8          5.3210   -2.2410   -1.5360 ca        1 B00     -0.068300
     14 C13         4.4360   -3.3260   -1.4550 ca        1 B00     -0.124000
     15 C12         4.6560   -4.3450   -0.5310 ca        1 B00     -0.137500
     16 C11         5.7640   -4.2970    0.3150 ca        1 B00     -0.131000
     17 C10         6.6540   -3.2250    0.2330 ca        1 B00     -0.137500
     18 C9          6.4350   -2.2010   -0.6880 ca        1 B00     -0.124000
     19 H1          1.1940    0.9670    3.0090 h1        1 B00      0.079700
     20 H2         -0.2340    0.3230    2.0760 h1        1 B00      0.079700
     21 H3          0.9180   -0.8490    2.8670 h1        1 B00      0.079700
     22 H4          3.5550    0.5510    3.0190 hn        1 B00      0.482133
     23 H5          3.2780   -1.1030    2.9130 hn        1 B00      0.482133
     24 H6          1.3690    0.3430   -2.3080 ha        1 B00      0.207000
     25 H7          3.5190    0.2020   -3.3100 hc        1 B00      0.113700
     26 H8          5.9870    0.7670   -3.2050 hc        1 B00      0.090200
     27 H9          6.0220    0.5050   -1.3940 hc        1 B00      0.090200
     28 H10         5.1930   -1.6250   -3.5830 hc        1 B00      0.111700
     29 H11         3.5760   -3.3820   -2.1400 ha        1 B00      0.139500
     30 H12         3.9650   -5.2010   -0.4850 ha        1 B00      0.142500
     31 H13         5.9500   -5.1150    1.0270 ha        1 B00      0.143000
     32 H14         7.5470   -3.2020    0.8750 ha        1 B00      0.142500
     33 H15         7.1540   -1.3720   -0.7680 ha        1 B00      0.139500
     34 H33         4.6930   -0.4480    2.2860 hn        1 B00      0.482133
@<TRIPOS>BOND
     1    1    2 2   
     2    2    3 1   
     3    2    9 1   
     4    3    4 1   
     5    3    5 1   
     6    4   19 1   
     7    4   20 1   
     8    4   21 1   
     9    5    6 1   
    10    5    7 2   
    11    6   22 1   
    12    6   23 1   
    13    6   34 1   
    14    7    8 1   
    15    8    9 2   
    16    8   10 1   
    17    9   24 1   
    18   10   11 1   
    19   10   12 1   
    20   10   25 1   
    21   11   12 1   
    22   11   26 1   
    23   11   27 1   
    24   12   13 1   
    25   12   28 1   
    26   13   14 ar  
    27   13   18 ar  
    28   14   15 ar  
    29   14   29 1   
    30   15   16 ar  
    31   15   30 1   
    32   16   17 ar  
    33   16   31 1   
    34   17   18 ar  
    35   17   32 1   
    36   18   33 1   
@<TRIPOS>SUBSTRUCTURE
     1 B00         1 TEMP              0 ****  ****    0 ROOT
