@<TRIPOS>MOLECULE
B01
   50    47     1     0     0
SMALL
bcc


@<TRIPOS>ATOM
      1 N21        -1.1340   -2.8490    0.6770 n3        1 B01     -0.335000
      2 C8         -0.5760   -1.9490    1.5910 c3        1 B01     -0.036000
      3 C9         -0.0810   -0.7040    0.8460 c2        1 B01      0.304000
      4 O25        -0.8990    0.0880    0.3410 o         1 B01     -0.390000
      5 C7         -1.6480   -1.5420    2.6320 c3        1 B01     -0.157000
      6 C6         -2.5810   -2.7360    2.9070 c1        1 B01     -0.081000
      7 C1         -2.1400   -3.8000    3.7010 c1        1 B01     -0.124000
      8 C5         -3.8880   -2.7480    2.3810 c1        1 B01     -0.126000
      9 C2         -2.9890   -4.8630    3.9690 c1        1 B01     -0.126000
     10 C4         -4.7270   -3.8050    2.6500 c1        1 B01     -0.126000
     11 C3         -4.2790   -4.8720    3.4490 c1        1 B01     -0.126000
     12 N22         1.3470   -0.4920    0.6550 n         1 B01     -0.305000
     13 C10         1.9180    0.4830   -0.0250 c3        1 B01      0.005000
     14 C11         1.0210    0.8850   -1.1480 c2        1 B01      0.293000
     15 O26         0.3140    0.0300   -1.7140 o         1 B01     -0.378000
     16 C14         3.3210   -0.1790   -0.5010 c3        1 B01     -0.167000
     17 C15         3.7300   -0.9290    0.4680 c3        1 B01     -0.173000
     18 C16         2.4920   -1.3640    1.1950 c3        1 B01     -0.020000
     19 C12         0.2870    2.5600   -2.7820 c3        1 B01      0.018000
     20 C13         0.6550    3.9770   -3.2380 c2        1 B01     -0.037000
     21 C17         0.7700    6.3160   -2.8130 c1        1 B01     -0.126000
     22 C18         1.1400    6.5540   -4.1410 c1        1 B01     -0.126000
     23 C19         1.2680    5.5020   -5.0170 c1        1 B01     -0.026000
     24 C20         1.0300    4.2140   -4.5840 c2        1 B01     -0.167000
     25 N23         1.0360    2.2180   -1.6270 n         1 B01     -0.354000
     26 N24         0.5310    5.0120   -2.3790 n1        1 B01     -0.136000
     27 CL27        1.7160    5.7930   -6.6580 cl        1 B01     -0.001000
     28 HN21       -2.0230   -2.6100    0.5040 hn        1 B01      0.155500
     29 HN2A       -1.1100   -3.6690    1.0160 hn        1 B01      0.155500
     30 H8          0.2130   -2.3960    2.0710 h1        1 B01      0.116000
     31 H7         -2.1950   -0.7600    2.2730 hc        1 B01      0.112500
     32 H7A        -1.2320   -1.2890    3.4240 hc        1 B01      0.112500
     33 H1         -1.2360   -3.7940    4.0690 ha        1 B01      0.133000
     34 H5         -4.2020   -2.0010    1.8190 ha        1 B01      0.141667
     35 H2         -2.6910   -5.5880    4.5090 ha        1 B01      0.141667
     36 H4         -5.6460   -3.8160    2.2820 ha        1 B01      0.141667
     37 H3         -4.8700   -5.6150    3.6370 ha        1 B01      0.141667
     38 H10         2.0660    1.3560    0.4330 h1        1 B01      0.124000
     39 H14         3.1770   -0.7260   -1.3180 hc        1 B01      0.112500
     40 H14A        4.0040    0.5510   -0.6860 hc        1 B01      0.112500
     41 H15         4.2230   -1.7390    0.1010 hc        1 B01      0.094500
     42 H15A        4.3450   -0.3890    1.1020 hc        1 B01      0.094500
     43 H16         2.6030   -1.2170    2.1810 h1        1 B01      0.098000
     44 H16A        2.3000   -2.3720    1.0010 h1        1 B01      0.098000
     45 H12        -0.6230    2.5250   -2.5830 h1        1 B01      0.114000
     46 H12A        0.4930    1.9020   -3.5250 h1        1 B01      0.114000
     47 H17         0.6790    7.0570   -2.1940 ha        1 B01      0.141667
     48 H18         1.3160    7.5150   -4.4610 ha        1 B01      0.141667
     49 H20         1.1260    3.4150   -5.2490 ha        1 B01      0.162000
     50 HN23        1.6480    2.8590   -1.2420 hn        1 B01      0.260000
@<TRIPOS>BOND
     1    1    2 1   
     2    1   28 1   
     3    1   29 1   
     4    2    3 1   
     5    2    5 1   
     6    2   30 1   
     7    3    4 1   
     8    3   12 1   
     9    5    6 1   
    10    5   31 1   
    11    5   32 1   
    12    6    7 1   
    13    7   33 1   
    14    8   10 1   
    15    8   34 1   
    16    9   11 1   
    17    9   35 1   
    18   10   36 1   
    19   11   37 1   
    20   12   13 1   
    21   12   18 1   
    22   13   14 1   
    23   13   16 1   
    24   13   38 1   
    25   14   15 1   
    26   14   25 1   
    27   16   17 1   
    28   16   39 1   
    29   16   40 1   
    30   17   18 1   
    31   17   41 1   
    32   17   42 1   
    33   18   43 1   
    34   18   44 1   
    35   19   20 1   
    36   19   25 1   
    37   19   45 1   
    38   19   46 1   
    39   20   24 1   
    40   20   26 1   
    41   21   22 1   
    42   21   47 1   
    43   22   48 1   
    44   23   24 1   
    45   23   27 1   
    46   24   49 1   
    47   25   50 1   
@<TRIPOS>SUBSTRUCTURE
     1 B01         1 TEMP              0 ****  ****    0 ROOT
