@<TRIPOS>MOLECULE
B01
   50    52     1     0     0
SMALL
bcc


@<TRIPOS>ATOM
      1 N21        -2.9760    2.1160   -0.6140 n3        1 B01     -0.889800
      2 C8         -2.9810    0.7500   -0.1450 c3        1 B01      0.122500
      3 C9         -1.5770    0.2630    0.2970 c         1 B01      0.613100
      4 O25        -0.7840    1.0570    0.8510 o         1 B01     -0.630100
      5 C7         -3.9210    0.5380    1.0600 c3        1 B01     -0.029100
      6 C6         -5.3460    0.4750    0.6380 ca        1 B01     -0.084300
      7 C1         -5.9910   -0.7630    0.5270 ca        1 B01     -0.117500
      8 C5         -6.0600    1.6470    0.3660 ca        1 B01     -0.117500
      9 C2         -7.3320   -0.8260    0.1490 ca        1 B01     -0.131500
     10 C4         -7.4000    1.5810   -0.0130 ca        1 B01     -0.131500
     11 C3         -8.0380    0.3450   -0.1220 ca        1 B01     -0.127000
     12 N22        -1.1880   -1.0320    0.0250 n         1 B01     -0.456800
     13 C10         0.0530   -1.5930    0.5470 c3        1 B01      0.032700
     14 C11         1.2640   -1.3120   -0.3760 c         1 B01      0.648100
     15 O26         1.9010   -2.2400   -0.9120 o         1 B01     -0.615100
     16 C14        -0.1720   -3.1120    0.7090 c3        1 B01     -0.088400
     17 C15        -1.4960   -3.4280    0.0230 c3        1 B01     -0.090400
     18 C16        -2.1060   -2.0790   -0.3910 c3        1 B01      0.086000
     19 C12         2.7700    0.3900   -1.3010 c3        1 B01      0.038700
     20 C13         3.9620    0.7750   -0.4390 ca        1 B01      0.385600
     21 C17         4.8460    1.8350    1.4110 ca        1 B01      0.408200
     22 C18         6.1670    1.5140    1.0460 ca        1 B01     -0.245300
     23 C19         6.3560    0.7810   -0.1300 ca        1 B01      0.052400
     24 C20         5.2450    0.3980   -0.8890 ca        1 B01     -0.233300
     25 N23         1.5810    0.0130   -0.5950 n         1 B01     -0.541900
     26 N24         3.7620    1.4850    0.6970 nb        1 B01     -0.664000
     27 CL27        7.9190    0.3570   -0.6310 cl        1 B01     -0.078400
     28 HN21       -2.6640    2.7390    0.1080 hn        1 B01      0.362800
     29 HN2A       -2.3730    2.2100   -1.4080 hn        1 B01      0.362800
     30 H8         -3.3440    0.1110   -1.0050 h1        1 B01      0.081700
     31 H7         -3.7790    1.3670    1.8050 hc        1 B01      0.059700
     32 H7A        -3.6340   -0.4190    1.5720 hc        1 B01      0.059700
     33 H1         -5.4390   -1.6900    0.7420 ha        1 B01      0.134000
     34 H5         -5.5550    2.6230    0.4420 ha        1 B01      0.134000
     35 H2         -7.8320   -1.8020    0.0650 ha        1 B01      0.131500
     36 H4         -7.9530    2.5070   -0.2280 ha        1 B01      0.131500
     37 H3         -9.0950    0.2950   -0.4200 ha        1 B01      0.131000
     38 H10         0.2890   -1.1200    1.5460 h1        1 B01      0.085700
     39 H14         0.6680   -3.6910    0.2490 hc        1 B01      0.074700
     40 H14A       -0.2160   -3.3650    1.7960 hc        1 B01      0.074700
     41 H15        -1.3340   -4.0680   -0.8790 hc        1 B01      0.057700
     42 H15A       -2.1870   -3.9730    0.7120 hc        1 B01      0.057700
     43 H16        -2.2370   -2.0290   -1.5070 h1        1 B01      0.049700
     44 H16A       -3.1150   -1.9360    0.0870 h1        1 B01      0.049700
     45 H12         2.5230    1.2870   -1.9420 h1        1 B01      0.075700
     46 H12A        3.0810   -0.4620   -1.9740 h1        1 B01      0.075700
     47 H17         4.6440    2.4100    2.3330 h4        1 B01      0.028100
     48 H18         7.0130    1.8310    1.6700 ha        1 B01      0.158000
     49 H20         5.3620   -0.1890   -1.8110 ha        1 B01      0.161000
     50 HN23        1.1650    0.7060   -0.0070 hn        1 B01      0.345500
@<TRIPOS>BOND
     1    1    2 1   
     2    1   28 1   
     3    1   29 1   
     4    2    3 1   
     5    2    5 1   
     6    2   30 1   
     7    3    4 2   
     8    3   12 1   
     9    5    6 1   
    10    5   31 1   
    11    5   32 1   
    12    6    7 ar  
    13    6    8 ar  
    14    7    9 ar  
    15    7   33 1   
    16    8   10 ar  
    17    8   34 1   
    18    9   11 ar  
    19    9   35 1   
    20   10   11 ar  
    21   10   36 1   
    22   11   37 1   
    23   12   13 1   
    24   12   18 1   
    25   13   14 1   
    26   13   16 1   
    27   13   38 1   
    28   14   15 2   
    29   14   25 1   
    30   16   17 1   
    31   16   39 1   
    32   16   40 1   
    33   17   18 1   
    34   17   41 1   
    35   17   42 1   
    36   18   43 1   
    37   18   44 1   
    38   19   20 1   
    39   19   25 1   
    40   19   45 1   
    41   19   46 1   
    42   20   24 ar  
    43   20   26 ar  
    44   21   22 ar  
    45   21   26 ar  
    46   21   47 1   
    47   22   23 ar  
    48   22   48 1   
    49   23   24 ar  
    50   23   27 1   
    51   24   49 1   
    52   25   50 1   
@<TRIPOS>SUBSTRUCTURE
     1 B01         1 TEMP              0 ****  ****    0 ROOT
