@<TRIPOS>MOLECULE
B02
   46    42     1     0     0
SMALL
bcc


@<TRIPOS>ATOM
      1 O          -4.7360    0.1450    2.1670 o         1 B02     -0.363000
      2 C1         -3.9360    1.0010    1.8320 c1        1 B02      0.347000
      3 N2         -3.3150    1.8200    2.8170 n3        1 B02     -0.286000
      4 C5         -3.7520    1.7500    4.1880 c3        1 B02     -0.098000
      5 C4         -2.3290    2.8320    2.4130 c2        1 B02      0.236000
      6 N3         -1.7690    3.7120    3.3900 n3        1 B02     -0.332000
      7 N1         -1.9890    2.9980    0.9980 n1        1 B02     -0.269000
      8 C3         -2.7400    2.3180    0.0030 c1        1 B02      0.117000
      9 C2         -3.6760    1.2480    0.4020 c1        1 B02     -0.318000
     10 C6         -2.7780    2.9170   -1.5690 cu        1 B02     -0.127000
     11 C21        -1.5140    3.1050   -1.8690 cx        1 B02     -0.178000
     12 C7         -2.0050    2.0130   -2.2960 cx        1 B02     -0.109000
     13 C8         -0.5900    0.5860   -1.4290 c2        1 B02     -0.044000
     14 C13         0.6830    1.0150   -1.0610 c2        1 B02     -0.113000
     15 C12         1.6620    0.0850   -0.7210 c1        1 B02     -0.120000
     16 C11         1.3700   -1.2750   -0.7500 c1        1 B02     -0.037000
     17 C10         0.0970   -1.7050   -1.1180 c1        1 B02     -0.118000
     18 C9         -0.8820   -0.7760   -1.4570 c1        1 B02     -0.120000
     19 C14         2.4990   -2.2980   -0.5830 c2        1 B02     -0.033000
     20 C19         2.5520   -3.0960    0.5550 c2        1 B02     -0.123000
     21 C18         3.5590   -4.0470    0.6920 c1        1 B02     -0.128000
     22 C17         4.5140   -4.2000   -0.3100 c1        1 B02     -0.129000
     23 C16         4.4620   -3.4020   -1.4480 c1        1 B02     -0.071000
     24 C20         5.4370   -3.6520   -2.6020 c3        1 B02     -0.179000
     25 C15         3.4540   -2.4500   -1.5850 c1        1 B02     -0.120000
     26 H1         -3.9050    2.6570    4.5290 h1        1 B02      0.099333
     27 H2         -4.5880    1.2340    4.2400 h1        1 B02      0.099333
     28 H3         -3.0600    1.3090    4.7300 h1        1 B02      0.099333
     29 H4         -0.9900    4.1620    3.2080 hn        1 B02      0.217000
     30 H5         -2.2060    3.8570    4.1780 hn        1 B02      0.217000
     31 H6         -4.1980    0.7730   -0.2820 ha        1 B02      0.168000
     32 H7         -3.6520    3.3650   -1.5590 ha        1 B02      0.130000
     33 H8         -0.8880    3.0190   -1.1190 hc        1 B02      0.121000
     34 H9         -1.3420    3.7870   -2.5570 hc        1 B02      0.121000
     35 H10        -2.0640    2.0510   -3.2770 hc        1 B02      0.126000
     36 H11         0.8890    1.9730   -1.0400 ha        1 B02      0.134000
     37 H12         2.5590    0.3890   -0.4620 ha        1 B02      0.134000
     38 H13        -0.1090   -2.6650   -1.1380 ha        1 B02      0.136000
     39 H14        -1.7800   -1.0800   -1.7170 ha        1 B02      0.135000
     40 H15         1.8800   -2.9890    1.2610 ha        1 B02      0.136000
     41 H16         3.5960   -4.6100    1.4950 ha        1 B02      0.131000
     42 H17         5.2240   -4.8710   -0.2140 ha        1 B02      0.131000
     43 H18         5.0050   -3.4190   -3.4540 hc        1 B02      0.083333
     44 H19         5.6930   -4.6000   -2.6150 hc        1 B02      0.083333
     45 H20         6.2400   -3.0980   -2.4790 hc        1 B02      0.083333
     46 H21         3.4170   -1.8880   -2.3870 ha        1 B02      0.134000
@<TRIPOS>BOND
     1    1    2 1   
     2    2    3 1   
     3    3    4 1   
     4    3    5 1   
     5    4   26 1   
     6    4   27 1   
     7    4   28 1   
     8    5    6 1   
     9    5    7 1   
    10    6   29 1   
    11    6   30 1   
    12    8    9 1   
    13    9   31 1   
    14   10   11 1   
    15   10   12 1   
    16   10   32 1   
    17   11   12 1   
    18   11   33 1   
    19   11   34 1   
    20   12   13 1   
    21   12   35 1   
    22   13   14 1   
    23   13   18 1   
    24   14   15 1   
    25   14   36 1   
    26   15   37 1   
    27   16   17 1   
    28   16   19 1   
    29   17   38 1   
    30   18   39 1   
    31   19   20 1   
    32   19   25 1   
    33   20   21 1   
    34   20   40 1   
    35   21   41 1   
    36   22   23 1   
    37   22   42 1   
    38   23   24 1   
    39   24   43 1   
    40   24   44 1   
    41   24   45 1   
    42   25   46 1   
@<TRIPOS>SUBSTRUCTURE
     1 B02         1 TEMP              0 ****  ****    0 ROOT
