@<TRIPOS>MOLECULE
B02
   47    50     1     0     0
SMALL
bcc


@<TRIPOS>ATOM
      1 O          -0.1090    1.1800   -0.3360 o         1 B02     -0.537500
      2 C1          1.0350    0.7210   -0.2920 c         1 B02      0.702700
      3 N2          1.5080    0.2060    0.9710 n         1 B02     -0.389300
      4 C5          0.6560    0.1890    2.1280 c3        1 B02      0.030300
      5 C4          2.8140   -0.2870    1.0000 cc        1 B02      0.530800
      6 N3          3.3290   -0.8490    2.2960 n4        1 B02     -0.799600
      7 N1          3.6780   -0.3230   -0.0040 nd        1 B02     -0.574300
      8 C3          3.2350    0.1230   -1.2550 cd        1 B02      0.230400
      9 C2          1.9730    0.6360   -1.4130 cc        1 B02     -0.232200
     10 C6          4.1530   -0.0000   -2.4040 cx        1 B02     -0.114500
     11 C21         5.6350    0.2490   -2.2680 cx        1 B02     -0.088400
     12 C7          5.1500   -1.1450   -2.5370 cx        1 B02     -0.041400
     13 C8          5.2680   -2.2030   -1.5230 ca        1 B02     -0.060300
     14 C13         6.3680   -2.2470   -0.6570 ca        1 B02     -0.122000
     15 C12         6.4700   -3.2490    0.3030 ca        1 B02     -0.137000
     16 C11         5.4740   -4.2290    0.4200 cp        1 B02     -0.036000
     17 C10         4.3890   -4.2010   -0.4690 ca        1 B02     -0.137000
     18 C9          4.2910   -3.2030   -1.4340 ca        1 B02     -0.122000
     19 C14         5.5690   -5.2670    1.4450 cp        1 B02     -0.056000
     20 C19         6.0860   -4.9660    2.7140 ca        1 B02     -0.145000
     21 C18         6.1720   -5.9560    3.6890 ca        1 B02     -0.123000
     22 C17         5.7500   -7.2550    3.4120 ca        1 B02     -0.117000
     23 C16         5.2410   -7.5740    2.1470 ca        1 B02     -0.061300
     24 C20         4.8210   -8.9600    1.8390 c3        1 B02     -0.062800
     25 C15         5.1510   -6.5760    1.1700 ca        1 B02     -0.114000
     26 H1          1.1030    0.7970    2.9600 h1        1 B02      0.079367
     27 H2          0.4720   -0.8640    2.4740 h1        1 B02      0.079367
     28 H3         -0.3400    0.6470    1.8560 h1        1 B02      0.079367
     29 H4          3.3370   -0.1120    3.0100 hn        1 B02      0.482800
     30 H5          4.2870   -1.2100    2.1570 hn        1 B02      0.482800
     31 H6          1.5910    1.0040   -2.3790 ha        1 B02      0.206000
     32 H7          3.6600    0.3400   -3.3410 hc        1 B02      0.112700
     33 H8          6.1400    0.8070   -3.0790 hc        1 B02      0.091200
     34 H9          6.0530    0.4940   -1.2760 hc        1 B02      0.091200
     35 H10         5.2760   -1.5490   -3.5670 hc        1 B02      0.112700
     36 H11         7.1650   -1.4920   -0.7490 ha        1 B02      0.141500
     37 H12         7.3570   -3.2920    0.9560 ha        1 B02      0.145500
     38 H13         3.6160   -4.9830   -0.4130 ha        1 B02      0.145500
     39 H14         3.4460   -3.2070   -2.1400 ha        1 B02      0.141500
     40 H15         6.4390   -3.9490    2.9360 ha        1 B02      0.115000
     41 H16         6.5850   -5.7150    4.6810 ha        1 B02      0.138000
     42 H17         5.8240   -8.0360    4.1840 ha        1 B02      0.146000
     43 H18         5.7050   -9.5560    1.4940 hc        1 B02      0.054033
     44 H19         4.0500   -8.9800    1.0300 hc        1 B02      0.054033
     45 H20         4.3970   -9.4600    2.7450 hc        1 B02      0.054033
     46 H21         4.7660   -6.8300    0.1700 ha        1 B02      0.141000
     47 H33         2.7180   -1.6190    2.5950 hn        1 B02      0.482800
@<TRIPOS>BOND
     1    1    2 2   
     2    2    3 1   
     3    2    9 1   
     4    3    4 1   
     5    3    5 1   
     6    4   26 1   
     7    4   27 1   
     8    4   28 1   
     9    5    6 1   
    10    5    7 2   
    11    6   29 1   
    12    6   30 1   
    13    6   47 1   
    14    7    8 1   
    15    8    9 2   
    16    8   10 1   
    17    9   31 1   
    18   10   11 1   
    19   10   12 1   
    20   10   32 1   
    21   11   12 1   
    22   11   33 1   
    23   11   34 1   
    24   12   13 1   
    25   12   35 1   
    26   13   14 ar  
    27   13   18 ar  
    28   14   15 ar  
    29   14   36 1   
    30   15   16 ar  
    31   15   37 1   
    32   16   17 ar  
    33   16   19 1   
    34   17   18 ar  
    35   17   38 1   
    36   18   39 1   
    37   19   20 ar  
    38   19   25 ar  
    39   20   21 ar  
    40   20   40 1   
    41   21   22 ar  
    42   21   41 1   
    43   22   23 ar  
    44   22   42 1   
    45   23   24 1   
    46   23   25 ar  
    47   24   43 1   
    48   24   44 1   
    49   24   45 1   
    50   25   46 1   
@<TRIPOS>SUBSTRUCTURE
     1 B02         1 TEMP              0 ****  ****    0 ROOT
