@<TRIPOS>MOLECULE
B02
   47    50     1     0     0
SMALL
bcc


@<TRIPOS>ATOM
      1 O          -0.0890    1.1960   -0.3530 o         1 B02     -0.537500
      2 C1          1.0530    0.7320   -0.3090 c         1 B02      0.702700
      3 N2          1.5250    0.2190    0.9550 n         1 B02     -0.389300
      4 C5          0.6740    0.2100    2.1140 c3        1 B02      0.030300
      5 C4          2.8290   -0.2780    0.9850 cc        1 B02      0.530800
      6 N3          3.3430   -0.8390    2.2820 nz        1 B02     -0.799600
      7 N1          3.6920   -0.3210   -0.0200 nd        1 B02     -0.574300
      8 C3          3.2490    0.1230   -1.2720 cd        1 B02      0.230400
      9 C2          1.9890    0.6400   -1.4300 cc        1 B02     -0.232200
     10 C6          4.1650   -0.0080   -2.4210 cx        1 B02     -0.114500
     11 C21         5.6480    0.2370   -2.2880 cx        1 B02     -0.088400
     12 C7          5.1580   -1.1560   -2.5510 cx        1 B02     -0.041400
     13 C8          5.2740   -2.2110   -1.5340 ca        1 B02     -0.060300
     14 C13         6.3750   -2.2550   -0.6690 ca        1 B02     -0.122000
     15 C12         6.4750   -3.2540    0.2950 ca        1 B02     -0.137000
     16 C11         5.4760   -4.2310    0.4170 cp        1 B02     -0.036000
     17 C10         4.3900   -4.2020   -0.4720 ca        1 B02     -0.137000
     18 C9          4.2940   -3.2080   -1.4400 ca        1 B02     -0.122000
     19 C14         5.5680   -5.2650    1.4460 cp        1 B02     -0.056000
     20 C19         6.0870   -4.9600    2.7130 ca        1 B02     -0.145000
     21 C18         6.1710   -5.9470    3.6920 ca        1 B02     -0.123000
     22 C17         5.7450   -7.2460    3.4190 ca        1 B02     -0.117000
     23 C16         5.2330   -7.5680    2.1560 ca        1 B02     -0.061300
     24 C20         4.8090   -8.9540    1.8540 c3        1 B02     -0.062800
     25 C15         5.1460   -6.5730    1.1760 ca        1 B02     -0.114000
     26 H1          0.4870   -0.8420    2.4630 h1        1 B02      0.079367
     27 H2         -0.3200    0.6710    1.8410 h1        1 B02      0.079367
     28 H3          1.1240    0.8180    2.9440 h1        1 B02      0.079367
     29 H4          3.3550   -0.1000    2.9930 hn        1 B02      0.482800
     30 H5          4.3000   -1.2040    2.1430 hn        1 B02      0.482800
     31 H6          1.6070    1.0060   -2.3970 ha        1 B02      0.206000
     32 H7          3.6730    0.3310   -3.3600 hc        1 B02      0.112700
     33 H8          6.1540    0.7910   -3.1020 hc        1 B02      0.091200
     34 H9          6.0690    0.4840   -1.2970 hc        1 B02      0.091200
     35 H10         5.2820   -1.5640   -3.5800 hc        1 B02      0.112700
     36 H11         7.1740   -1.5030   -0.7630 ha        1 B02      0.141500
     37 H12         7.3620   -3.2970    0.9470 ha        1 B02      0.145500
     38 H13         3.6150   -4.9820   -0.4120 ha        1 B02      0.145500
     39 H14         3.4490   -3.2110   -2.1450 ha        1 B02      0.141500
     40 H15         6.4440   -3.9440    2.9310 ha        1 B02      0.115000
     41 H16         6.5850   -5.7040    4.6820 ha        1 B02      0.138000
     42 H17         5.8170   -8.0240    4.1940 ha        1 B02      0.146000
     43 H18         5.6910   -9.5540    1.5120 hc        1 B02      0.054033
     44 H19         4.0390   -8.9740    1.0440 hc        1 B02      0.054033
     45 H20         4.3830   -9.4490    2.7610 hc        1 B02      0.054033
     46 H21         4.7600   -6.8300    0.1770 ha        1 B02      0.141000
     47 H33         2.7300   -1.6050    2.5850 hn        1 B02      0.482800
@<TRIPOS>BOND
     1    1    2 2   
     2    2    3 1   
     3    2    9 1   
     4    3    4 1   
     5    3    5 1   
     6    4   26 1   
     7    4   27 1   
     8    4   28 1   
     9    5    6 1   
    10    5    7 2   
    11    6   29 1   
    12    6   30 1   
    13    6   47 1   
    14    7    8 1   
    15    8    9 2   
    16    8   10 1   
    17    9   31 1   
    18   10   11 1   
    19   10   12 1   
    20   10   32 1   
    21   11   12 1   
    22   11   33 1   
    23   11   34 1   
    24   12   13 1   
    25   12   35 1   
    26   13   14 ar  
    27   13   18 ar  
    28   14   15 ar  
    29   14   36 1   
    30   15   16 ar  
    31   15   37 1   
    32   16   17 ar  
    33   16   19 1   
    34   17   18 ar  
    35   17   38 1   
    36   18   39 1   
    37   19   20 ar  
    38   19   25 ar  
    39   20   21 ar  
    40   20   40 1   
    41   21   22 ar  
    42   21   41 1   
    43   22   23 ar  
    44   22   42 1   
    45   23   24 1   
    46   23   25 ar  
    47   24   43 1   
    48   24   44 1   
    49   24   45 1   
    50   25   46 1   
@<TRIPOS>SUBSTRUCTURE
     1 B02         1 TEMP              0 ****  ****    0 ROOT
