@<TRIPOS>MOLECULE
B02
   47    50     1     0     0
SMALL
bcc


@<TRIPOS>ATOM
      1 O          -0.1000    1.1850   -0.3340 o         1 B02     -0.537500
      2 C1          1.0440    0.7250   -0.2890 c         1 B02      0.702700
      3 N2          1.5130    0.2030    0.9720 n         1 B02     -0.389300
      4 C5          0.6570    0.1790    2.1270 c3        1 B02      0.030300
      5 C4          2.8190   -0.2890    1.0020 cc        1 B02      0.530800
      6 N3          3.3300   -0.8600    2.2950 n4        1 B02     -0.799600
      7 N1          3.6860   -0.3190   -0.0000 nd        1 B02     -0.574300
      8 C3          3.2460    0.1350   -1.2490 cd        1 B02      0.230400
      9 C2          1.9840    0.6480   -1.4080 cc        1 B02     -0.232200
     10 C6          4.1680    0.0190   -2.3960 cx        1 B02     -0.114500
     11 C21         5.6490    0.2690   -2.2550 cx        1 B02     -0.088400
     12 C7          5.1660   -1.1240   -2.5330 cx        1 B02     -0.041400
     13 C8          5.2830   -2.1880   -1.5250 ca        1 B02     -0.060300
     14 C13         6.3800   -2.2350   -0.6560 ca        1 B02     -0.122000
     15 C12         6.4810   -3.2430    0.2990 ca        1 B02     -0.137000
     16 C11         5.4850   -4.2250    0.4080 cp        1 B02     -0.036000
     17 C10         4.4030   -4.1930   -0.4850 ca        1 B02     -0.137000
     18 C9          4.3070   -3.1900   -1.4450 ca        1 B02     -0.122000
     19 C14         5.5780   -5.2680    1.4280 cp        1 B02     -0.056000
     20 C19         6.0900   -4.9730    2.7000 ca        1 B02     -0.145000
     21 C18         6.1750   -5.9680    3.6700 ca        1 B02     -0.123000
     22 C17         5.7550   -7.2660    3.3840 ca        1 B02     -0.117000
     23 C16         5.2510   -7.5790    2.1150 ca        1 B02     -0.061300
     24 C20         4.8340   -8.9640    1.7990 c3        1 B02     -0.062800
     25 C15         5.1630   -6.5760    1.1440 ca        1 B02     -0.114000
     26 H1          1.1020    0.7810    2.9640 h1        1 B02      0.079367
     27 H2         -0.3370    0.6380    1.8540 h1        1 B02      0.079367
     28 H3          0.4730   -0.8760    2.4660 h1        1 B02      0.079367
     29 H4          4.2890   -1.2190    2.1580 hn        1 B02      0.482800
     30 H5          2.7190   -1.6320    2.5880 hn        1 B02      0.482800
     31 H6          1.6050    1.0210   -2.3730 ha        1 B02      0.206000
     32 H7          3.6770    0.3640   -3.3330 hc        1 B02      0.112700
     33 H8          6.1560    0.8320   -3.0610 hc        1 B02      0.091200
     34 H9          6.0640    0.5090   -1.2600 hc        1 B02      0.091200
     35 H10         5.2960   -1.5220   -3.5650 hc        1 B02      0.112700
     36 H11         7.1760   -1.4790   -0.7400 ha        1 B02      0.141500
     37 H12         7.3650   -3.2870    0.9540 ha        1 B02      0.145500
     38 H13         3.6310   -4.9760   -0.4350 ha        1 B02      0.145500
     39 H14         3.4640   -3.1910   -2.1530 ha        1 B02      0.141500
     40 H15         6.4420   -3.9570    2.9290 ha        1 B02      0.114000
     41 H16         6.5840   -5.7320    4.6640 ha        1 B02      0.138000
     42 H17         5.8280   -8.0510    4.1520 ha        1 B02      0.146000
     43 H18         4.0690   -8.9800    0.9840 hc        1 B02      0.054033
     44 H19         4.4030   -9.4670    2.7000 hc        1 B02      0.054033
     45 H20         5.7210   -9.5580    1.4580 hc        1 B02      0.054033
     46 H21         4.7820   -6.8240    0.1410 ha        1 B02      0.141000
     47 H33         3.3360   -0.1280    3.0140 hn        1 B02      0.482800
@<TRIPOS>BOND
     1    1    2 2   
     2    2    3 1   
     3    2    9 1   
     4    3    4 1   
     5    3    5 1   
     6    4   26 1   
     7    4   27 1   
     8    4   28 1   
     9    5    6 1   
    10    5    7 2   
    11    6   29 1   
    12    6   30 1   
    13    6   47 1   
    14    7    8 1   
    15    8    9 2   
    16    8   10 1   
    17    9   31 1   
    18   10   11 1   
    19   10   12 1   
    20   10   32 1   
    21   11   12 1   
    22   11   33 1   
    23   11   34 1   
    24   12   13 1   
    25   12   35 1   
    26   13   14 ar  
    27   13   18 ar  
    28   14   15 ar  
    29   14   36 1   
    30   15   16 ar  
    31   15   37 1   
    32   16   17 ar  
    33   16   19 1   
    34   17   18 ar  
    35   17   38 1   
    36   18   39 1   
    37   19   20 ar  
    38   19   25 ar  
    39   20   21 ar  
    40   20   40 1   
    41   21   22 ar  
    42   21   41 1   
    43   22   23 ar  
    44   22   42 1   
    45   23   24 1   
    46   23   25 ar  
    47   24   43 1   
    48   24   44 1   
    49   24   45 1   
    50   25   46 1   
@<TRIPOS>SUBSTRUCTURE
     1 B02         1 TEMP              0 ****  ****    0 ROOT
