@<TRIPOS>MOLECULE
B02
   46    49     1     0     0
SMALL
bcc


@<TRIPOS>ATOM
      1 O           4.1880    2.0050   -2.4530 o         1 B02     -0.637500
      2 C1          3.7640    1.4120   -1.4430 c         1 B02      0.708700
      3 N2          3.3070    2.1850   -0.3350 n         1 B02     -0.396300
      4 C5          3.3820    3.6210   -0.3830 c3        1 B02      0.057300
      5 C4          2.8340    1.5170    0.8160 cc        1 B02      0.679800
      6 N3          2.4910    2.2880    1.9490 nh        1 B02     -0.889800
      7 N1          2.7490    0.1710    0.9190 nd        1 B02     -0.695300
      8 C3          3.1860   -0.5910   -0.1460 cd        1 B02      0.252400
      9 C2          3.6870   -0.0330   -1.2990 cc        1 B02     -0.337200
     10 C6          3.1100   -2.0670   -0.0430 cx        1 B02     -0.082500
     11 C21         2.7640   -2.7770    1.2380 cx        1 B02     -0.099400
     12 C7          1.7850   -2.7980    0.0990 cx        1 B02     -0.063400
     13 C8          0.4940   -2.1020    0.1670 ca        1 B02     -0.045300
     14 C13        -0.1860   -1.9530    1.3810 ca        1 B02     -0.118000
     15 C12        -1.4310   -1.3310    1.4230 ca        1 B02     -0.121500
     16 C11        -2.0240   -0.8450    0.2500 cp        1 B02     -0.040000
     17 C10        -1.3440   -0.9970   -0.9670 ca        1 B02     -0.121500
     18 C9         -0.1010   -1.6210   -1.0080 ca        1 B02     -0.118000
     19 C14        -3.3310   -0.1920    0.2940 cp        1 B02     -0.032000
     20 C19        -3.6560    0.6760    1.3460 ca        1 B02     -0.126000
     21 C18        -4.9030    1.2960    1.3820 ca        1 B02     -0.128000
     22 C17        -5.8370    1.0580    0.3760 ca        1 B02     -0.129000
     23 C16        -5.5270    0.1940   -0.6800 ca        1 B02     -0.076300
     24 C20        -6.5120   -0.0540   -1.7590 c3        1 B02     -0.054800
     25 C15        -4.2740   -0.4270   -0.7150 ca        1 B02     -0.119000
     26 H1          3.8320    3.9380   -1.3640 h1        1 B02      0.060367
     27 H2          2.3540    4.0680   -0.3010 h1        1 B02      0.060367
     28 H3          4.0250    4.0110    0.4500 h1        1 B02      0.060367
     29 H4          2.0700    3.1700    1.7580 hn        1 B02      0.418800
     30 H5          2.0470    1.7730    2.6800 hn        1 B02      0.418800
     31 H6          4.0420   -0.6250   -2.1500 ha        1 B02      0.168000
     32 H7          3.8660   -2.5460   -0.7030 hc        1 B02      0.090700
     33 H8          3.3130   -3.7040    1.4830 hc        1 B02      0.082700
     34 H9          2.5320   -2.1850    2.1420 hc        1 B02      0.082700
     35 H10         1.6980   -3.7440   -0.4820 hc        1 B02      0.087700
     36 H11         0.2680   -2.3310    2.3100 ha        1 B02      0.135500
     37 H12        -1.9590   -1.2290    2.3840 ha        1 B02      0.134000
     38 H13        -1.7940   -0.6150   -1.8950 ha        1 B02      0.134000
     39 H14         0.4230   -1.7340   -1.9690 ha        1 B02      0.135500
     40 H15        -2.9210    0.8700    2.1410 ha        1 B02      0.131000
     41 H16        -5.1510    1.9770    2.2090 ha        1 B02      0.130000
     42 H17        -6.8210    1.5490    0.4100 ha        1 B02      0.132000
     43 H18        -6.3690    0.6900   -2.5830 hc        1 B02      0.045033
     44 H19        -6.3880   -1.0780   -2.1880 hc        1 B02      0.045033
     45 H20        -7.5570    0.0450   -1.3770 hc        1 B02      0.045033
     46 H21        -4.0300   -1.1150   -1.5400 ha        1 B02      0.136000
@<TRIPOS>BOND
     1    1    2 2   
     2    2    3 1   
     3    2    9 1   
     4    3    4 1   
     5    3    5 1   
     6    4   26 1   
     7    4   27 1   
     8    4   28 1   
     9    5    6 1   
    10    5    7 2   
    11    6   29 1   
    12    6   30 1   
    13    7    8 1   
    14    8    9 2   
    15    8   10 1   
    16    9   31 1   
    17   10   11 1   
    18   10   12 1   
    19   10   32 1   
    20   11   12 1   
    21   11   33 1   
    22   11   34 1   
    23   12   13 1   
    24   12   35 1   
    25   13   14 ar  
    26   13   18 ar  
    27   14   15 ar  
    28   14   36 1   
    29   15   16 ar  
    30   15   37 1   
    31   16   17 ar  
    32   16   19 1   
    33   17   18 ar  
    34   17   38 1   
    35   18   39 1   
    36   19   20 ar  
    37   19   25 ar  
    38   20   21 ar  
    39   20   40 1   
    40   21   22 ar  
    41   21   41 1   
    42   22   23 ar  
    43   22   42 1   
    44   23   24 1   
    45   23   25 ar  
    46   24   43 1   
    47   24   44 1   
    48   24   45 1   
    49   25   46 1   
@<TRIPOS>SUBSTRUCTURE
     1 B02         1 TEMP              0 ****  ****    0 ROOT
