@<TRIPOS>MOLECULE
B03
   50    47     1     0     0
SMALL
bcc


@<TRIPOS>ATOM
      1 N10        -1.3400   -2.5990    1.0310 n3        1 B03     -0.336000
      2 C8         -0.7240   -1.7470    1.9790 c3        1 B03     -0.020000
      3 C9         -0.2180   -0.5090    1.2880 c2        1 B03      0.251000
      4 O12        -1.0060    0.3550    0.9350 o         1 B03     -0.373000
      5 C7         -1.7470   -1.3540    3.0480 c3        1 B03     -0.113000
      6 C4         -2.6440   -2.5480    3.3570 c1        1 B03     -0.071000
      7 C3         -2.2160   -3.5240    4.2460 c1        1 B03     -0.128000
      8 C5         -3.9130   -2.6290    2.7950 c1        1 B03     -0.124500
      9 C2         -3.0560   -4.5810    4.5750 c1        1 B03     -0.124500
     10 C6         -4.7540   -3.6880    3.1250 c1        1 B03     -0.124500
     11 C1         -4.3260   -4.6620    4.0140 c1        1 B03     -0.124500
     12 N11         1.1970   -0.4080    0.9100 n         1 B03     -0.319000
     13 C13         1.8720    0.7470    0.0500 c3        1 B03      0.000000
     14 C17         1.4310    0.7690   -1.4500 c2        1 B03      0.293000
     15 O28         0.9140   -0.2220   -1.9470 o         1 B03     -0.377000
     16 C15         3.1880    0.5020    0.2400 c3        1 B03     -0.167000
     17 C16         3.3320   -1.0690    0.5360 c3        1 B03     -0.169000
     18 C14         2.3220   -1.4040    1.2690 c3        1 B03     -0.031000
     19 N18         1.4860    2.0110   -2.2020 n         1 B03     -0.350000
     20 C19         0.6800    2.1710   -3.3990 c3        1 B03      0.016000
     21 C20         0.9360    3.5450   -4.0000 c2        1 B03     -0.049000
     22 C22         1.1180    3.6780   -5.3730 c2        1 B03     -0.169000
     23 C23         1.2080    4.9190   -5.9300 c1        1 B03     -0.092000
     24 C24         1.1180    6.0270   -5.1420 c1        1 B03     -0.124500
     25 C25         0.9360    5.8910   -3.7740 c1        1 B03     -0.124500
     26 N21         0.8470    4.6510   -3.2170 n1        1 B03     -0.139000
     27 HN10       -0.7200   -3.1870    0.6990 hn        1 B03      0.157500
     28 HN1A       -1.6890   -2.0890    0.3360 hn        1 B03      0.157500
     29 H8          0.0200   -2.2090    2.3960 h1        1 B03      0.116000
     30 H7         -1.2810   -1.0790    3.8610 hc        1 B03      0.107500
     31 H7A        -2.2960   -0.6090    2.7180 hc        1 B03      0.107500
     32 H3         -1.3220   -3.4670    4.6410 ha        1 B03      0.128000
     33 H5         -4.2160   -1.9400    2.1660 ha        1 B03      0.137667
     34 H2         -2.7540   -5.2660    5.2000 ha        1 B03      0.137667
     35 H6         -5.6500   -3.7450    2.7290 ha        1 B03      0.137667
     36 H1         -4.9170   -5.4080    4.2460 ha        1 B03      0.137667
     37 H13         1.6100    1.6420    0.3520 h1        1 B03      0.126000
     38 H15         3.5170    1.0190    1.0090 hc        1 B03      0.114000
     39 H15A        3.6930    0.7390   -0.5640 hc        1 B03      0.114000
     40 H16         4.1720   -1.2450    1.0190 hc        1 B03      0.096500
     41 H16A        3.3170   -1.5710   -0.3060 hc        1 B03      0.096500
     42 H14         2.5520   -1.3250    2.2160 h1        1 B03      0.087500
     43 H14A        2.0430   -2.3210    1.0620 h1        1 B03      0.087500
     44 HN18        2.0580    2.6720   -1.9490 hn        1 B03      0.258000
     45 H19        -0.2680    2.0880   -3.1670 h1        1 B03      0.112500
     46 H19A        0.9180    1.4830   -4.0460 h1        1 B03      0.112500
     47 H22         1.1810    2.8890   -5.9330 ha        1 B03      0.147000
     48 H23         1.3360    5.0140   -6.8960 ha        1 B03      0.139000
     49 H24         1.1820    6.9130   -5.5380 ha        1 B03      0.137667
     50 H25         0.8730    6.6820   -3.2120 ha        1 B03      0.137667
@<TRIPOS>BOND
     1    1    2 1   
     2    1   27 1   
     3    1   28 1   
     4    2    3 1   
     5    2    5 1   
     6    2   29 1   
     7    3    4 1   
     8    3   12 1   
     9    5    6 1   
    10    5   30 1   
    11    5   31 1   
    12    6    7 1   
    13    7   32 1   
    14    8   10 1   
    15    8   33 1   
    16    9   11 1   
    17    9   34 1   
    18   10   35 1   
    19   11   36 1   
    20   12   13 1   
    21   12   18 1   
    22   13   14 1   
    23   13   16 1   
    24   13   37 1   
    25   14   15 1   
    26   14   19 1   
    27   16   17 1   
    28   16   38 1   
    29   16   39 1   
    30   17   18 1   
    31   17   40 1   
    32   17   41 1   
    33   18   42 1   
    34   18   43 1   
    35   19   20 1   
    36   19   44 1   
    37   20   21 1   
    38   20   45 1   
    39   20   46 1   
    40   21   22 1   
    41   21   26 1   
    42   22   23 1   
    43   22   47 1   
    44   23   48 1   
    45   24   25 1   
    46   24   49 1   
    47   25   50 1   
@<TRIPOS>SUBSTRUCTURE
     1 B03         1 TEMP              0 ****  ****    0 ROOT
