@<TRIPOS>MOLECULE
B03
   50    52     1     0     0
SMALL
bcc


@<TRIPOS>ATOM
      1 N10        -2.2060    1.6000   -0.8600 n3        1 B03     -0.898800
      2 C8         -2.2370    0.2890   -0.2490 c3        1 B03      0.118500
      3 C9         -0.8180   -0.1370    0.1870 c         1 B03      0.665100
      4 O12        -0.0900    0.6580    0.8200 o         1 B03     -0.625100
      5 C7         -3.1250    0.1480    1.0070 c3        1 B03     -0.078100
      6 C4         -4.5470    0.4560    0.7030 ca        1 B03     -0.087300
      7 C3         -5.3960   -0.5430    0.2110 ca        1 B03     -0.128500
      8 C5         -5.0530    1.7450    0.9110 ca        1 B03     -0.128500
      9 C2         -6.7300   -0.2570   -0.0700 ca        1 B03     -0.125000
     10 C6         -6.3890    2.0290    0.6290 ca        1 B03     -0.125000
     11 C1         -7.2290    1.0290    0.1380 ca        1 B03     -0.127000
     12 N11        -0.3600   -1.3940   -0.1450 n         1 B03     -0.456800
     13 C13         0.9110   -1.9090    0.3550 c3        1 B03      0.033700
     14 C17         2.1090   -1.5040   -0.5380 c         1 B03      0.650100
     15 O28         2.8150   -2.3650   -1.1000 o         1 B03     -0.621100
     16 C15         0.7740   -3.4450    0.4270 c3        1 B03     -0.088400
     17 C16        -0.5140   -3.7990   -0.3060 c3        1 B03     -0.090400
     18 C14        -1.2120   -2.4670   -0.6260 c3        1 B03      0.090000
     19 N18         2.3390   -0.1550   -0.6930 n         1 B03     -0.539900
     20 C19         3.4940    0.3360   -1.3870 c3        1 B03      0.039700
     21 C20         4.6520    0.7800   -0.5100 ca        1 B03      0.376600
     22 C22         5.9620    0.4710   -0.9340 ca        1 B03     -0.234300
     23 C23         7.0410    0.9050   -0.1620 ca        1 B03     -0.093000
     24 C24         6.7910    1.6250    1.0060 ca        1 B03     -0.248300
     25 C25         5.4520    1.8830    1.3540 ca        1 B03      0.397200
     26 N21         4.3980    1.4790    0.6230 nb        1 B03     -0.664000
     27 HN10       -3.1300    1.9910   -0.8680 hn        1 B03      0.365300
     28 HN1A       -1.5880    2.2140   -0.3630 hn        1 B03      0.365300
     29 H8         -2.6390   -0.4100   -1.0420 h1        1 B03      0.077700
     30 H7         -2.7400    0.8320    1.8100 hc        1 B03      0.063200
     31 H7A        -3.0380   -0.9030    1.3890 hc        1 B03      0.063200
     32 H3         -5.0040   -1.5580    0.0470 ha        1 B03      0.131000
     33 H5         -4.3960    2.5340    1.3060 ha        1 B03      0.131000
     34 H2         -7.3910   -1.0470   -0.4560 ha        1 B03      0.134000
     35 H6         -6.7800    3.0430    0.7960 ha        1 B03      0.134000
     36 H1         -8.2820    1.2540   -0.0830 ha        1 B03      0.134000
     37 H13         1.1120   -1.4810    1.3830 h1        1 B03      0.085700
     38 H15         1.6580   -3.9460   -0.0430 hc        1 B03      0.074700
     39 H15A        0.7230   -3.7610    1.4980 hc        1 B03      0.074700
     40 H16        -1.1730   -4.4430    0.3250 hc        1 B03      0.057200
     41 H16A       -0.2930   -4.3520   -1.2520 hc        1 B03      0.057200
     42 H14        -2.2210   -2.4220   -0.1280 h1        1 B03      0.048200
     43 H14A       -1.3610   -2.3510   -1.7350 h1        1 B03      0.048200
     44 HN18        1.8590    0.4880   -0.0990 hn        1 B03      0.347500
     45 H19         3.8670   -0.4660   -2.0890 h1        1 B03      0.074200
     46 H19A        3.1750    1.2310   -1.9990 h1        1 B03      0.074200
     47 H22         6.1250   -0.1080   -1.8530 ha        1 B03      0.147000
     48 H23         8.0720    0.6780   -0.4700 ha        1 B03      0.138000
     49 H24         7.6100    1.9830    1.6420 ha        1 B03      0.142000
     50 H25         5.2040    2.4470    2.2710 h4        1 B03      0.022100
@<TRIPOS>BOND
     1    1    2 1   
     2    1   27 1   
     3    1   28 1   
     4    2    3 1   
     5    2    5 1   
     6    2   29 1   
     7    3    4 2   
     8    3   12 1   
     9    5    6 1   
    10    5   30 1   
    11    5   31 1   
    12    6    7 ar  
    13    6    8 ar  
    14    7    9 ar  
    15    7   32 1   
    16    8   10 ar  
    17    8   33 1   
    18    9   11 ar  
    19    9   34 1   
    20   10   11 ar  
    21   10   35 1   
    22   11   36 1   
    23   12   13 1   
    24   12   18 1   
    25   13   14 1   
    26   13   16 1   
    27   13   37 1   
    28   14   15 2   
    29   14   19 1   
    30   16   17 1   
    31   16   38 1   
    32   16   39 1   
    33   17   18 1   
    34   17   40 1   
    35   17   41 1   
    36   18   42 1   
    37   18   43 1   
    38   19   20 1   
    39   19   44 1   
    40   20   21 1   
    41   20   45 1   
    42   20   46 1   
    43   21   22 ar  
    44   21   26 ar  
    45   22   23 ar  
    46   22   47 1   
    47   23   24 ar  
    48   23   48 1   
    49   24   25 ar  
    50   24   49 1   
    51   25   26 ar  
    52   25   50 1   
@<TRIPOS>SUBSTRUCTURE
     1 B03         1 TEMP              0 ****  ****    0 ROOT
