@<TRIPOS>MOLECULE
B04
   54    56     1     0     0
SMALL
bcc


@<TRIPOS>ATOM
      1 N4          2.3310   -2.6590   -0.2040 n3        1 B04     -0.889800
      2 C3          2.3760   -1.2390    0.0380 c3        1 B04      0.128500
      3 C5          0.9850   -0.6340    0.3630 c         1 B04      0.616100
      4 O7          0.0950   -1.3320    0.9030 o         1 B04     -0.660100
      5 C2          3.3240   -0.8590    1.1990 c3        1 B04     -0.028100
      6 C1          4.6330   -0.3640    0.6940 ca        1 B04     -0.105300
      7 C8          5.0910    0.9080    1.0570 ca        1 B04     -0.126000
      8 C12         5.4320   -1.1760   -0.1200 ca        1 B04     -0.126000
      9 C9          6.3310    1.3620    0.6110 ca        1 B04     -0.126000
     10 C11         6.6700   -0.7190   -0.5670 ca        1 B04     -0.126000
     11 C10         7.1220    0.5500   -0.2030 ca        1 B04     -0.119000
     12 N6          0.6990    0.6680   -0.0050 n         1 B04     -0.458800
     13 C13        -0.4610    1.3750    0.5190 c3        1 B04      0.043700
     14 C14        -1.7460    1.1540   -0.3070 c         1 B04      0.667100
     15 O15        -2.4720    2.0950   -0.6840 o         1 B04     -0.629100
     16 C19        -0.1000    2.8780    0.5630 c3        1 B04     -0.087400
     17 C20         1.2280    3.0240   -0.1700 c3        1 B04     -0.093400
     18 C21         1.7100    1.6000   -0.4850 c3        1 B04      0.074000
     19 N16        -2.1220   -0.1520   -0.5770 n         1 B04     -0.575900
     20 C17        -3.2700   -0.4620   -1.3600 c3        1 B04      0.131300
     21 C18        -4.5430   -0.6020   -0.5210 ca        1 B04     -0.006600
     22 C22        -4.6450   -1.7160    0.3360 ca        1 B04     -0.141000
     23 C23        -5.7760   -1.8980    1.1300 ca        1 B04     -0.015000
     24 C24        -6.8090   -0.9560    1.0570 ca        1 B04     -0.138000
     25 C25        -6.6790    0.1370    0.1980 ca        1 B04     -0.039300
     26 N26        -5.5620    0.3170   -0.5780 na        1 B04      0.053900
     27 C27        -5.4830    1.4810   -1.4510 c3        1 B04     -0.052400
     28 HN4         2.0730   -3.1650    0.6210 hn        1 B04      0.365300
     29 HN4A        1.6920   -2.8770   -0.9420 hn        1 B04      0.365300
     30 H3          2.7550   -0.7630   -0.9170 h1        1 B04      0.090700
     31 H2          3.5030   -1.7460    1.8660 hc        1 B04      0.063700
     32 H2A         2.8370   -0.0720    1.8360 hc        1 B04      0.063700
     33 H8          4.4790    1.5490    1.7090 ha        1 B04      0.138000
     34 H12         5.0780   -2.1800   -0.4030 ha        1 B04      0.138000
     35 H9          6.6880    2.3600    0.9050 ha        1 B04      0.138500
     36 H11         7.2940   -1.3630   -1.2040 ha        1 B04      0.138500
     37 H10         8.1010    0.9080   -0.5530 ha        1 B04      0.140000
     38 H13        -0.7030    0.9940    1.5570 h1        1 B04      0.090700
     39 H19        -0.8960    3.5010    0.0860 hc        1 B04      0.079200
     40 H19A       -0.0040    3.1980    1.6310 hc        1 B04      0.079200
     41 H20         1.1010    3.6060   -1.1150 hc        1 B04      0.068200
     42 H20A        1.9790    3.5580    0.4630 hc        1 B04      0.068200
     43 H21         2.7040    1.3980    0.0090 h1        1 B04      0.067200
     44 H21A        1.8340    1.4570   -1.5950 h1        1 B04      0.067200
     45 HN16       -1.6000   -0.9090   -0.1870 hn        1 B04      0.359500
     46 H17        -3.4030    0.3240   -2.1600 h1        1 B04      0.095200
     47 H17A       -3.1190   -1.4610   -1.8670 h1        1 B04      0.095200
     48 H22        -3.8080   -2.4360    0.3680 ha        1 B04      0.194000
     49 H23        -5.8560   -2.7690    1.8050 ha        1 B04      0.190000
     50 H24        -7.7240   -1.0590    1.6650 ha        1 B04      0.197000
     51 H25        -7.4790    0.9020    0.1160 h4        1 B04      0.206000
     52 H27        -5.5070    1.1420   -2.5220 h1        1 B04      0.110033
     53 H27A       -6.3540    2.1640   -1.2600 h1        1 B04      0.110033
     54 H27B       -4.5240    2.0430   -1.2480 h1        1 B04      0.110033
@<TRIPOS>BOND
     1    1    2 1   
     2    1   28 1   
     3    1   29 1   
     4    2    3 1   
     5    2    5 1   
     6    2   30 1   
     7    3    4 2   
     8    3   12 1   
     9    5    6 1   
    10    5   31 1   
    11    5   32 1   
    12    6    7 ar  
    13    6    8 ar  
    14    7    9 ar  
    15    7   33 1   
    16    8   10 ar  
    17    8   34 1   
    18    9   11 ar  
    19    9   35 1   
    20   10   11 ar  
    21   10   36 1   
    22   11   37 1   
    23   12   13 1   
    24   12   18 1   
    25   13   14 1   
    26   13   16 1   
    27   13   38 1   
    28   14   15 2   
    29   14   19 1   
    30   16   17 1   
    31   16   39 1   
    32   16   40 1   
    33   17   18 1   
    34   17   41 1   
    35   17   42 1   
    36   18   43 1   
    37   18   44 1   
    38   19   20 1   
    39   19   45 1   
    40   20   21 1   
    41   20   46 1   
    42   20   47 1   
    43   21   22 ar  
    44   21   26 2   
    45   22   23 ar  
    46   22   48 1   
    47   23   24 ar  
    48   23   49 1   
    49   24   25 ar  
    50   24   50 1   
    51   25   26 1   
    52   25   51 1   
    53   26   27 1   
    54   27   52 1   
    55   27   53 1   
    56   27   54 1   
@<TRIPOS>SUBSTRUCTURE
     1 B04         1 TEMP              0 ****  ****    0 ROOT
