@<TRIPOS>MOLECULE
B04
   54    52     1     0     0
SMALL
bcc


@<TRIPOS>ATOM
      1 N4         -1.3790   -2.7460    1.1100 n3        1 B04     -0.342000
      2 C3         -0.2670   -2.3510    1.8720 c3        1 B04     -0.012000
      3 C5          0.3330   -1.0760    1.2760 c2        1 B04      0.255000
      4 O7         -0.2340   -0.0120    1.4260 o         1 B04     -0.402000
      5 C2         -0.7020   -2.0880    3.3080 c3        1 B04     -0.105000
      6 C1         -1.7900   -3.1130    3.7140 c2        1 B04     -0.087000
      7 C8         -3.1340   -2.7760    3.6120 c1        1 B04     -0.107000
      8 C12        -1.4220   -4.3850    4.1450 c2        1 B04     -0.125000
      9 C9         -4.1130   -3.7110    3.9420 c1        1 B04     -0.100250
     10 C11        -2.4030   -5.3200    4.4750 c1        1 B04     -0.126000
     11 C10        -3.7450   -4.9830    4.3730 c1        1 B04     -0.100250
     12 N6          1.5170   -1.1560    0.4300 n         1 B04     -0.324000
     13 C13         2.1980    0.0360   -0.3640 c3        1 B04      0.012000
     14 C14         1.3040    0.4540   -1.5230 c2        1 B04      0.313000
     15 O15         0.6320   -0.3770   -2.1000 o         1 B04     -0.382000
     16 C19         3.3580   -0.5120   -0.7310 c3        1 B04     -0.166000
     17 C20         3.1180   -2.0840   -0.8350 c3        1 B04     -0.171000
     18 C21         2.3430   -2.4050    0.1320 c3        1 B04     -0.038000
     19 N16         1.3230    1.8390   -2.0000 n         1 B04     -0.386000
     20 C17         0.1770    2.3750   -2.7250 c3        1 B04      0.008000
     21 C18         0.1840    3.9140   -2.6340 c2        1 B04      0.025000
     22 C22         0.6680    4.5370   -1.4940 c2        1 B04     -0.140000
     23 C23         0.6440    5.9050   -1.3980 c1        1 B04     -0.017000
     24 C24         0.1420    6.6550   -2.4300 c1        1 B04     -0.100250
     25 C25        -0.3430    6.0300   -3.5730 c1        1 B04     -0.100250
     26 N26        -0.3200    4.6670   -3.6690 n2        1 B04     -0.014000
     27 C27        -0.8070    4.0180   -4.8700 c3        1 B04     -0.151000
     28 HN4        -1.6680   -2.0420    0.6060 hn        1 B04      0.160000
     29 HN4A       -1.1420   -3.4350    0.5610 hn        1 B04      0.160000
     30 H3          0.4030   -3.0610    1.8610 h1        1 B04      0.130000
     31 H2          0.0730   -2.1790    3.9060 hc        1 B04      0.102000
     32 H2A        -1.0660   -1.1780    3.3790 hc        1 B04      0.102000
     33 H8         -3.3920   -1.8840    3.3090 ha        1 B04      0.127000
     34 H12        -0.4870   -4.6190    4.2160 ha        1 B04      0.129000
     35 H9         -5.0620   -3.4730    3.8700 ha        1 B04      0.169500
     36 H11        -2.1440   -6.2140    4.7790 ha        1 B04      0.138000
     37 H10        -4.4360   -5.6420    4.6060 ha        1 B04      0.169500
     38 H13         2.3310    0.8870    0.0980 h1        1 B04      0.128000
     39 H19         3.6330   -0.1610   -1.5960 hc        1 B04      0.119000
     40 H19A        4.0460   -0.3220   -0.0600 hc        1 B04      0.119000
     41 H20         2.6950   -2.3030   -1.6890 hc        1 B04      0.108500
     42 H20A        3.9710   -2.5590   -0.7520 hc        1 B04      0.108500
     43 H21         2.8690   -2.6580    0.9160 h1        1 B04      0.097500
     44 H21A        1.7520   -3.1480   -0.1370 h1        1 B04      0.097500
     45 HN16        2.0780    2.3440   -1.9040 hn        1 B04      0.275000
     46 H17         0.2300    2.1040   -3.6620 h1        1 B04      0.135500
     47 H17A       -0.6530    2.0260   -2.3300 h1        1 B04      0.135500
     48 H22         1.0240    4.0040   -0.7610 ha        1 B04      0.197000
     49 H23         0.9870    6.3470   -0.5900 ha        1 B04      0.190000
     50 H24         0.1250    7.6460   -2.3610 ha        1 B04      0.169500
     51 H25        -0.7000    6.5650   -4.3070 ha        1 B04      0.169500
     52 H27        -1.2120    4.6900   -5.4650 h1        1 B04      0.149667
     53 H27A       -0.0630    3.5830   -5.3300 h1        1 B04      0.149667
     54 H27B       -1.4790    3.3480   -4.6300 h1        1 B04      0.149667
@<TRIPOS>BOND
     1    1    2 1   
     2    1   28 1   
     3    1   29 1   
     4    2    3 1   
     5    2    5 1   
     6    2   30 1   
     7    3    4 1   
     8    3   12 1   
     9    5    6 1   
    10    5   31 1   
    11    5   32 1   
    12    6    7 1   
    13    6    8 1   
    14    7   33 1   
    15    8   10 1   
    16    8   34 1   
    17    9   11 1   
    18    9   35 1   
    19   10   36 1   
    20   11   37 1   
    21   12   13 1   
    22   12   18 1   
    23   13   14 1   
    24   13   16 1   
    25   13   38 1   
    26   14   15 1   
    27   14   19 1   
    28   16   17 1   
    29   16   39 1   
    30   16   40 1   
    31   17   18 1   
    32   17   41 1   
    33   17   42 1   
    34   18   43 1   
    35   18   44 1   
    36   19   20 1   
    37   19   45 1   
    38   20   21 1   
    39   20   46 1   
    40   20   47 1   
    41   21   22 1   
    42   21   26 1   
    43   22   23 1   
    44   22   48 1   
    45   23   49 1   
    46   24   25 1   
    47   24   50 1   
    48   25   51 1   
    49   26   27 1   
    50   27   52 1   
    51   27   53 1   
    52   27   54 1   
@<TRIPOS>SUBSTRUCTURE
     1 B04         1 TEMP              0 ****  ****    0 ROOT
