@<TRIPOS>MOLECULE
B08
   45    47     1     0     0
SMALL
bcc


@<TRIPOS>ATOM
      1 CAN         0.0000    0.0000    0.0000 ca        1 B08     -0.111000
      2 CAI         1.3950    0.0000    0.0000 ca        1 B08     -0.146500
      3 CAH         2.0930    0.0000    1.2080 ca        1 B08     -0.263000
      4 CAJ         1.3950   -0.0010    2.4160 ca        1 B08     -0.146500
      5 CAO         0.0000   -0.0010    2.4150 ca        1 B08     -0.111000
      6 CAW        -0.6980   -0.0010    1.2080 cp        1 B08     -0.054000
      7 CAY        -2.1440   -0.0010    1.2070 cp        1 B08     -0.068000
      8 CAT        -2.8420   -1.2090    1.2060 ca        1 B08     -0.038000
      9 CAQ        -2.8420    1.2070    1.2090 ca        1 B08     -0.313000
     10 CAL        -4.2360    1.2070    1.2070 ca        1 B08     -0.125000
     11 CAR        -4.9340   -0.0010    1.2060 ca        1 B08     -0.216000
     12 CAZ        -4.2370   -1.2090    1.2050 cp        1 B08     -0.121000
     13 CAX        -4.9610   -2.4610    1.2020 cp        1 B08     -0.023000
     14 CAS        -4.4030   -3.5880    0.5970 ca        1 B08     -0.048000
     15 CAP        -6.2170   -2.5420    1.8040 ca        1 B08     -0.204000
     16 CAK        -6.9160   -3.7490    1.8000 ca        1 B08     -0.147000
     17 CAM        -6.3590   -4.8750    1.1950 ca        1 B08     -0.194000
     18 CAV        -5.1100   -4.7820    0.6010 ca        1 B08     -0.038300
     19 CAU        -4.5080   -6.0010   -0.0530 c3        1 B08     -0.005100
     20 CBA        -3.6320   -6.9140    0.8430 c3        1 B08      0.579400
     21 PBB        -2.2620   -6.0320    1.6660 p5        1 B08      0.399200
     22 OAD        -2.6700   -4.9130    2.5770 o         1 B08     -0.637833
     23 OAE        -1.3040   -5.6070    0.4350 o         1 B08     -0.637833
     24 OAA        -1.4250   -7.2110    2.3880 o         1 B08     -0.637833
     25 PBC        -3.3280   -8.4760   -0.1020 p5        1 B08      0.399200
     26 OAF        -4.5670   -9.2350   -0.4730 o         1 B08     -0.637833
     27 OAG        -2.4270   -7.9740   -1.3470 o         1 B08     -0.637833
     28 OAB        -2.2760   -9.2890    0.8160 o         1 B08     -0.637833
     29 OAC        -4.4170   -7.4070    1.9300 oh        1 B08     -0.631800
     30 HAN        -0.5410    0.0110   -0.9380 ha        1 B08      0.084000
     31 HAI         1.9370    0.0000   -0.9380 ha        1 B08      0.052000
     32 HAH         3.1760   -0.0200    1.2080 ha        1 B08      0.054000
     33 HAJ         1.9360    0.0250    3.3540 ha        1 B08      0.052000
     34 HAO        -0.5420   -0.0010    3.3530 ha        1 B08      0.084000
     35 HAT        -2.3010   -2.1470    1.2500 ha        1 B08      0.157000
     36 HAQ        -2.3000    2.1450    1.2110 ha        1 B08      0.063000
     37 HAL        -4.7780    2.1450    1.1870 ha        1 B08      0.031000
     38 HAR        -6.0160   -0.0010    1.1610 ha        1 B08      0.069000
     39 HAS        -3.4280   -3.5310    0.1290 ha        1 B08      0.142000
     40 HAP        -6.6260   -1.6820    2.3200 ha        1 B08      0.068000
     41 HAK        -7.8910   -3.8120    2.2670 ha        1 B08      0.037000
     42 HAM        -6.8970   -5.8150    1.1900 ha        1 B08      0.086000
     43 HAU1       -5.3180   -6.6000   -0.4490 hc        1 B08      0.025700
     44 HAU2       -3.8990   -5.6660   -0.8840 hc        1 B08      0.025700
     45 HOAC       -3.9020   -8.0080    2.4430 ho        1 B08      0.425000
@<TRIPOS>BOND
     1    1    2 ar  
     2    1    6 ar  
     3    1   30 1   
     4    2    3 ar  
     5    2   31 1   
     6    3    4 ar  
     7    3   32 1   
     8    4    5 ar  
     9    4   33 1   
    10    5    6 ar  
    11    5   34 1   
    12    6    7 1   
    13    7    8 ar  
    14    7    9 ar  
    15    8   12 ar  
    16    8   35 1   
    17    9   10 ar  
    18    9   36 1   
    19   10   11 ar  
    20   10   37 1   
    21   11   12 ar  
    22   11   38 1   
    23   12   13 1   
    24   13   14 ar  
    25   13   15 ar  
    26   14   18 ar  
    27   14   39 1   
    28   15   16 ar  
    29   15   40 1   
    30   16   17 ar  
    31   16   41 1   
    32   17   18 ar  
    33   17   42 1   
    34   18   19 1   
    35   19   20 1   
    36   19   43 1   
    37   19   44 1   
    38   20   21 1   
    39   20   25 1   
    40   20   29 1   
    41   21   22 1   
    42   21   23 1   
    43   21   24 1   
    44   25   26 1   
    45   25   27 1   
    46   25   28 1   
    47   29   45 1   
@<TRIPOS>SUBSTRUCTURE
     1 B08         1 TEMP              0 ****  ****    0 ROOT
