@<TRIPOS>MOLECULE
B09
   21    18     1     0     0
SMALL
bcc


@<TRIPOS>ATOM
      1 C1          0.1220    0.6610    0.6690 c1        1 B09     -0.841000
      2 N1         -0.9220   -0.6930   -1.5650 n3        1 B09     -0.770000
      3 O1         -1.7530    1.5930   -0.9050 o         1 B09     -0.531900
      4 S1         -0.6080    0.8070   -0.9440 s4        1 B09      2.071800
      5 C2          1.5000    0.7010    0.7890 c1        1 B09     -0.002000
      6 O2          0.2240    1.5740   -1.8340 o         1 B09     -0.531900
      7 C3          2.1100    0.7360    2.0960 c1        1 B09     -0.110500
      8 O3         -0.1120   -1.2050   -2.5490 os        1 B09     -0.149000
      9 C4          1.3330    0.7290    3.2080 c1        1 B09     -0.110500
     10 C5         -0.0850    0.6880    3.0820 c1        1 B09     -0.159000
     11 C6         -0.6770    0.6540    1.8100 c2        1 B09     -0.015000
     12 C7         -0.8980   -1.9860   -3.4790 c3        1 B09     -0.104000
     13 HN1        -1.5910   -1.2740   -1.1290 hn        1 B09      0.246000
     14 H2          2.0500    0.7050    0.0030 ha        1 B09      0.151000
     15 H3          3.1000    0.7650    2.1830 ha        1 B09      0.139500
     16 H4          1.7390    0.7520    4.0770 ha        1 B09      0.139500
     17 H5         -0.6320    0.6820    3.8620 ha        1 B09      0.142000
     18 H6         -1.7110    0.6240    1.7180 ha        1 B09      0.159000
     19 H7         -0.2970   -2.3140   -4.2400 h1        1 B09      0.092000
     20 H7A        -1.6070   -1.4420   -3.8380 h1        1 B09      0.092000
     21 H7B        -1.2830   -2.7590   -3.0120 h1        1 B09      0.092000
@<TRIPOS>BOND
     1    1    5 1   
     2    1   11 1   
     3    2    4 1   
     4    2    8 1   
     5    2   13 1   
     6    3    4 1   
     7    4    6 1   
     8    5   14 1   
     9    7    9 1   
    10    7   15 1   
    11    8   12 1   
    12    9   16 1   
    13   10   11 1   
    14   10   17 1   
    15   11   18 1   
    16   12   19 1   
    17   12   20 1   
    18   12   21 1   
@<TRIPOS>SUBSTRUCTURE
     1 B09         1 TEMP              0 ****  ****    0 ROOT
