@<TRIPOS>MOLECULE
B09
   21    21     1     0     0
SMALL
bcc


@<TRIPOS>ATOM
      1 C1          0.7490   -0.1640    0.1490 ca        1 B09     -0.396500
      2 N1         -1.6120    0.4690    1.0940 n3        1 B09     -0.690600
      3 O1         -1.3810   -0.7890   -1.0510 o         1 B09     -0.644300
      4 S1         -0.8370   -0.7070    0.2410 sy        1 B09      1.516200
      5 C2          1.7600   -0.7750    0.9020 ca        1 B09     -0.008500
      6 O2         -0.8760   -1.8740    1.0330 o         1 B09     -0.644300
      7 C3          3.0810   -0.3470    0.8030 ca        1 B09     -0.159000
      8 O3         -1.8210    1.6550    0.5450 os        1 B09     -0.169100
      9 C4          3.4090    0.7050   -0.0530 ca        1 B09     -0.062000
     10 C5          2.4140    1.3250   -0.8090 ca        1 B09     -0.159000
     11 C6          1.0950    0.8910   -0.7050 ca        1 B09     -0.008500
     12 C7         -3.1790    1.9120    0.1140 c3        1 B09      0.085700
     13 HN1        -1.7310    0.4670    2.0860 hn        1 B09      0.450800
     14 H2          1.5000   -1.6140    1.5730 ha        1 B09      0.155000
     15 H3          3.8650   -0.8400    1.3980 ha        1 B09      0.142000
     16 H4          4.4540    1.0440   -0.1330 ha        1 B09      0.137000
     17 H5          2.6690    2.1530   -1.4870 ha        1 B09      0.142000
     18 H6          0.3040    1.3790   -1.3030 ha        1 B09      0.155000
     19 H7         -3.4850    1.1880   -0.6780 h1        1 B09      0.052700
     20 H7A        -3.8810    1.8740    0.9800 h1        1 B09      0.052700
     21 H7B        -3.1030    2.9490   -0.2950 h1        1 B09      0.052700
@<TRIPOS>BOND
     1    1    4 1   
     2    1    5 ar  
     3    1   11 ar  
     4    2    4 1   
     5    2    8 1   
     6    2   13 1   
     7    3    4 2   
     8    4    6 2   
     9    5    7 ar  
    10    5   14 1   
    11    7    9 ar  
    12    7   15 1   
    13    8   12 1   
    14    9   10 ar  
    15    9   16 1   
    16   10   11 ar  
    17   10   17 1   
    18   11   18 1   
    19   12   19 1   
    20   12   20 1   
    21   12   21 1   
@<TRIPOS>SUBSTRUCTURE
     1 B09         1 TEMP              0 ****  ****    0 ROOT
