@<TRIPOS>MOLECULE
B09
   22    21     1     0     0
SMALL
bcc


@<TRIPOS>ATOM
      1 C1         -0.0140    0.2190   -0.1070 ca        1 B09     -0.590500
      2 N1         -1.3900   -1.6470   -2.2590 n3        1 B09     -0.765300
      3 O1         -1.8540    0.9930   -1.6110 o         1 B09     -0.431400
      4 S1         -0.5960    0.4890   -1.5310 s4        1 B09      1.681300
      5 C2          1.3480   -0.1360    0.0790 ca        1 B09      0.037000
      6 O2          0.2780    0.5280   -2.5700 o         1 B09     -0.431400
      7 C3          1.8700   -0.3450    1.3440 ca        1 B09     -0.153000
      8 O3         -1.1110   -2.4690   -1.2420 os        1 B09     -0.241100
      9 C4          1.0510   -0.2150    2.4720 ca        1 B09      0.027000
     10 C5         -0.2980    0.1280    2.3190 ca        1 B09     -0.153000
     11 C6         -0.8210    0.3380    1.0550 ca        1 B09      0.037000
     12 C7         -1.4760   -3.8620   -1.3760 c3        1 B09      0.075700
     13 HN1        -2.3900   -1.6190   -2.4500 hn        1 B09      0.402800
     14 H2          2.0020   -0.2380   -0.8090 ha        1 B09      0.172000
     15 H3          2.9340   -0.6140    1.4640 ha        1 B09      0.180000
     16 H4          1.4680   -0.3830    3.4810 ha        1 B09      0.176000
     17 H5         -0.9440    0.2330    3.2080 ha        1 B09      0.180000
     18 H6         -1.8880    0.6120    0.9410 ha        1 B09      0.172000
     19 H7         -2.5810   -3.9660   -1.4910 h1        1 B09      0.074033
     20 H7A        -0.9310   -4.3270   -2.2330 h1        1 B09      0.074033
     21 H7B        -1.1310   -4.2930   -0.4020 h1        1 B09      0.074033
     22 H12        -0.9160   -1.9410   -3.1130 hn        1 B09      0.402800
@<TRIPOS>BOND
     1    1    4 1   
     2    1    5 ar  
     3    1   11 ar  
     4    2    8 1   
     5    2   13 1   
     6    2   22 1   
     7    3    4 1   
     8    4    6 1   
     9    5    7 ar  
    10    5   14 1   
    11    7    9 ar  
    12    7   15 1   
    13    8   12 1   
    14    9   10 ar  
    15    9   16 1   
    16   10   11 ar  
    17   10   17 1   
    18   11   18 1   
    19   12   19 1   
    20   12   20 1   
    21   12   21 1   
@<TRIPOS>SUBSTRUCTURE
     1 B09         1 TEMP              0 ****  ****    0 ROOT
