@<TRIPOS>MOLECULE
B09
   22    21     1     0     0
SMALL
bcc


@<TRIPOS>ATOM
      1 C1         -0.0590    0.2280   -0.0920 ca        1 B09     -0.590500
      2 N1         -1.3250   -1.6670   -2.2850 n8        1 B09     -0.765300
      3 O1         -1.8940    0.9510   -1.6280 o         1 B09     -0.431400
      4 S1         -0.6210    0.4900   -1.5260 s4        1 B09      1.681300
      5 C2          1.3100   -0.0810    0.1200 ca        1 B09      0.037000
      6 O2          0.2720    0.5660   -2.5460 o         1 B09     -0.431400
      7 C3          1.8140   -0.2820    1.3940 ca        1 B09     -0.153000
      8 O3         -1.0420   -2.4860   -1.2670 os        1 B09     -0.241100
      9 C4          0.9680   -0.1890    2.5050 ca        1 B09      0.027000
     10 C5         -0.3880    0.1080    2.3270 ca        1 B09     -0.153000
     11 C6         -0.8930    0.3100    1.0540 ca        1 B09      0.037000
     12 C7         -1.3560   -3.8900   -1.4190 c3        1 B09      0.075700
     13 HN1        -2.3220   -1.6710   -2.4970 hn        1 B09      0.402800
     14 H2          1.9850   -0.1530   -0.7550 ha        1 B09      0.172000
     15 H3          2.8840   -0.5140    1.5330 ha        1 B09      0.180000
     16 H4          1.3700   -0.3500    3.5210 ha        1 B09      0.176000
     17 H5         -1.0560    0.1840    3.2040 ha        1 B09      0.180000
     18 H6         -1.9660    0.5480    0.9200 ha        1 B09      0.172000
     19 H7         -2.4540   -4.0310   -1.5580 h1        1 B09      0.074033
     20 H7A        -0.7780   -4.3300   -2.2660 h1        1 B09      0.074033
     21 H7B        -1.0190   -4.3160   -0.4400 h1        1 B09      0.074033
     22 H12        -0.8240   -1.9380   -3.1300 hn        1 B09      0.402800
@<TRIPOS>BOND
     1    1    4 1   
     2    1    5 ar  
     3    1   11 ar  
     4    2    8 1   
     5    2   13 1   
     6    2   22 1   
     7    3    4 1   
     8    4    6 1   
     9    5    7 ar  
    10    5   14 1   
    11    7    9 ar  
    12    7   15 1   
    13    8   12 1   
    14    9   10 ar  
    15    9   16 1   
    16   10   11 ar  
    17   10   17 1   
    18   11   18 1   
    19   12   19 1   
    20   12   20 1   
    21   12   21 1   
@<TRIPOS>SUBSTRUCTURE
     1 B09         1 TEMP              0 ****  ****    0 ROOT
