@<TRIPOS>MOLECULE
B09
   22    21     1     0     0
SMALL
bcc


@<TRIPOS>ATOM
      1 C1         -0.0570    0.2270   -0.0900 ca        1 B09     -0.590500
      2 N1         -1.3400   -1.6590   -2.2810 n3        1 B09     -0.765300
      3 O1         -1.9040    0.9560   -1.6080 o         1 B09     -0.431400
      4 S1         -0.6300    0.4950   -1.5180 s4        1 B09      1.681300
      5 C2          1.3140   -0.0810    0.1100 ca        1 B09      0.037000
      6 O2          0.2550    0.5760   -2.5450 o         1 B09     -0.431400
      7 C3          1.8270   -0.2880    1.3800 ca        1 B09     -0.153000
      8 O3         -1.0520   -2.4810   -1.2670 os        1 B09     -0.241100
      9 C4          0.9900   -0.2000    2.4980 ca        1 B09      0.027000
     10 C5         -0.3680    0.0970    2.3320 ca        1 B09     -0.153000
     11 C6         -0.8830    0.3040    1.0630 ca        1 B09      0.037000
     12 C7         -1.3690   -3.8840   -1.4210 c3        1 B09      0.075700
     13 HN1        -0.8430   -1.9280   -3.1280 hn        1 B09      0.402800
     14 H2          1.9820   -0.1490   -0.7700 ha        1 B09      0.172000
     15 H3          2.8980   -0.5210    1.5100 ha        1 B09      0.180000
     16 H4          1.4000   -0.3650    3.5100 ha        1 B09      0.176000
     17 H5         -1.0280    0.1690    3.2130 ha        1 B09      0.180000
     18 H6         -1.9570    0.5420    0.9380 ha        1 B09      0.172000
     19 H7         -2.4680   -4.0230   -1.5550 h1        1 B09      0.074033
     20 H7A        -0.7960   -4.3220   -2.2730 h1        1 B09      0.074033
     21 H7B        -1.0270   -4.3140   -0.4450 h1        1 B09      0.074033
     22 H12        -2.3370   -1.6620   -2.4880 hn        1 B09      0.402800
@<TRIPOS>BOND
     1    1    4 1   
     2    1    5 ar  
     3    1   11 ar  
     4    2    8 1   
     5    2   13 1   
     6    2   22 1   
     7    3    4 1   
     8    4    6 1   
     9    5    7 ar  
    10    5   14 1   
    11    7    9 ar  
    12    7   15 1   
    13    8   12 1   
    14    9   10 ar  
    15    9   16 1   
    16   10   11 ar  
    17   10   17 1   
    18   11   18 1   
    19   12   19 1   
    20   12   20 1   
    21   12   21 1   
@<TRIPOS>SUBSTRUCTURE
     1 B09         1 TEMP              0 ****  ****    0 ROOT
