@<TRIPOS>MOLECULE
B0D
   23    23     1     0     0
SMALL
bcc


@<TRIPOS>ATOM
      1 F1         -2.9560   -0.5200   -0.2770 f         1 B0D     -0.217300
      2 F2          0.6130    2.0100   -1.5350 f         1 B0D     -0.202300
      3 CX1        -1.6420   -0.5200   -0.2770 c3        1 B0D      0.346400
      4 CX2        -1.1530   -0.5200    1.1550 c3        1 B0D      0.055100
      5 OX2        -1.7990    0.5530    1.8690 oh        1 B0D     -0.592800
      6 CX3         0.3170   -0.3400    1.2480 c3        1 B0D      0.106100
      7 OX3         0.9680   -1.5260    0.7290 oh        1 B0D     -0.597800
      8 CX4         0.7910    0.8500    0.4750 c3        1 B0D      0.117100
      9 OX4         0.3270    2.0370    1.1240 oh        1 B0D     -0.570800
     10 CX5         0.2890    0.8450   -0.9590 c3        1 B0D      0.319100
     11 OX5        -1.1610    0.6620   -1.0450 os        1 B0D     -0.460600
     12 CX6         0.9610   -0.2660   -1.7030 c3        1 B0D      0.085400
     13 OX6         0.9510    0.0210   -3.0880 oh        1 B0D     -0.590800
     14 HX1        -1.3270   -1.3320   -0.7180 h2        1 B0D      0.100700
     15 HX2        -1.3940   -1.3680    1.5720 h1        1 B0D      0.061700
     16 HOX2       -2.3380    0.2150    2.4870 ho        1 B0D      0.429000
     17 HX3         0.5640   -0.2270    2.1860 h1        1 B0D      0.083700
     18 HOX3        1.3590   -1.9640    1.3940 ho        1 B0D      0.416000
     19 HX4         1.7670    0.8540    0.4680 h1        1 B0D      0.107700
     20 HOX4        1.0210    2.5460    1.3420 ho        1 B0D      0.429000
     21 HX6         1.8830   -0.3530   -1.3950 h1        1 B0D      0.078200
     22 HX6A        0.4840   -1.1020   -1.5410 h1        1 B0D      0.078200
     23 HOX6        1.4750   -0.5560   -3.5130 ho        1 B0D      0.419000
@<TRIPOS>BOND
     1    1    3 1   
     2    2   10 1   
     3    3    4 1   
     4    3   11 1   
     5    3   14 1   
     6    4    5 1   
     7    4    6 1   
     8    4   15 1   
     9    5   16 1   
    10    6    7 1   
    11    6    8 1   
    12    6   17 1   
    13    7   18 1   
    14    8    9 1   
    15    8   10 1   
    16    8   19 1   
    17    9   20 1   
    18   10   11 1   
    19   10   12 1   
    20   12   13 1   
    21   12   21 1   
    22   12   22 1   
    23   13   23 1   
@<TRIPOS>SUBSTRUCTURE
     1 B0D         1 TEMP              0 ****  ****    0 ROOT
