@<TRIPOS>MOLECULE
B0D
   23    23     1     0     0
SMALL
bcc


@<TRIPOS>ATOM
      1 F1         -2.3790   -1.5540   -0.3340 f         1 B0D     -0.218300
      2 F2          1.0740   -1.0650    1.4400 f         1 B0D     -0.224300
      3 CX1        -1.4480   -0.7780    0.3090 c3        1 B0D      0.343400
      4 CX2        -1.6730    0.7330    0.0630 c3        1 B0D      0.054100
      5 OX2        -1.7880    1.0410   -1.3150 oh        1 B0D     -0.598800
      6 CX3        -0.4660    1.5270    0.5930 c3        1 B0D      0.111100
      7 OX3        -0.4440    1.4820    2.0070 oh        1 B0D     -0.579800
      8 CX4         0.8690    0.9490    0.0940 c3        1 B0D      0.107100
      9 OX4         1.1220    1.3900   -1.2230 oh        1 B0D     -0.597800
     10 CX5         0.9400   -0.6060    0.1500 c3        1 B0D      0.317100
     11 OX5        -0.2530   -1.2210   -0.3280 os        1 B0D     -0.460600
     12 CX6         2.0660   -1.1480   -0.7840 c3        1 B0D      0.136400
     13 OX6         3.2380   -0.3850   -0.6640 oh        1 B0D     -0.587800
     14 HX1        -1.4190   -0.9980    1.4140 h2        1 B0D      0.094700
     15 HX2        -2.6130    1.0490    0.5950 h1        1 B0D      0.061700
     16 HOX2       -2.3130    0.3380   -1.7220 ho        1 B0D      0.429000
     17 HX3        -0.5460    2.5890    0.2230 h1        1 B0D      0.078700
     18 HOX3       -1.1280    2.0880    2.3170 ho        1 B0D      0.412000
     19 HX4         1.7160    1.3600    0.7160 h1        1 B0D      0.120700
     20 HOX4        0.3590    1.1420   -1.7680 ho        1 B0D      0.433000
     21 HX6         2.3440   -2.1840   -0.4560 h1        1 B0D      0.074200
     22 HX6A        1.6750   -1.1520   -1.8340 h1        1 B0D      0.074200
     23 HOX6        3.0950    0.4530   -1.1270 ho        1 B0D      0.421000
@<TRIPOS>BOND
     1    1    3 1   
     2    2   10 1   
     3    3    4 1   
     4    3   11 1   
     5    3   14 1   
     6    4    5 1   
     7    4    6 1   
     8    4   15 1   
     9    5   16 1   
    10    6    7 1   
    11    6    8 1   
    12    6   17 1   
    13    7   18 1   
    14    8    9 1   
    15    8   10 1   
    16    8   19 1   
    17    9   20 1   
    18   10   11 1   
    19   10   12 1   
    20   12   13 1   
    21   12   21 1   
    22   12   22 1   
    23   13   23 1   
@<TRIPOS>SUBSTRUCTURE
     1 B0D         1 TEMP              0 ****  ****    0 ROOT
