@<TRIPOS>MOLECULE
B0R
   46    48     1     0     0
SMALL
bcc


@<TRIPOS>ATOM
      1 C1         -0.0610   -0.1160    0.0360 ca        1 B0R     -0.209300
      2 C2          1.3450   -0.4860   -0.2100 ca        1 B0R      0.266300
      3 N3          2.2190   -0.7620    0.8320 nb        1 B0R     -0.599000
      4 C4          1.7240   -0.6850    2.0440 ca        1 B0R      0.425200
      5 C5          0.3420   -0.3390    2.3840 ca        1 B0R     -0.069700
      6 C6         -0.5440   -0.0490    1.3560 ca        1 B0R     -0.102000
      7 C7         -0.5950    0.0780   -1.2560 cc        1 B0R      0.048000
      8 N8          0.4510   -0.1560   -2.1580 na        1 B0R      0.037800
      9 N9          1.5910   -0.4990   -1.5760 nc        1 B0R     -0.229400
     10 N10        -0.1030   -0.3430    3.7160 n         1 B0R     -0.453100
     11 C11         0.6860   -0.1630    4.8420 c         1 B0R      0.687700
     12 C12        -0.0510   -0.1420    6.1460 ca        1 B0R     -0.197600
     13 O13         1.9230   -0.0610    4.8090 o         1 B0R     -0.556100
     14 C14        -1.0750    0.7910    6.3920 ca        1 B0R      0.125900
     15 C15        -1.7260    0.8550    7.6610 ca        1 B0R      0.114600
     16 C16        -1.3320   -0.0700    8.6530 ca        1 B0R     -0.112000
     17 C17        -0.3250   -0.9910    8.4150 ca        1 B0R     -0.156000
     18 C18         0.3260   -1.0350    7.1680 ca        1 B0R      0.184900
     19 F19         1.2990   -1.9470    6.9600 f         1 B0R     -0.107900
     20 F20        -1.4580    1.6380    5.4030 f         1 B0R     -0.134900
     21 N21        -2.7330    1.8010    7.8900 nh        1 B0R     -0.773500
     22 S22        -3.1380    2.5320    9.2980 s6        1 B0R      1.458900
     23 C23        -1.8800    3.6750    9.5020 c3        1 B0R     -0.330600
     24 C24        -2.0880    4.4790   10.7700 c3        1 B0R     -0.057400
     25 C25        -0.9910    5.4900   10.9720 c3        1 B0R     -0.088100
     26 O26        -4.3490    3.2140    9.0750 o         1 B0R     -0.641800
     27 O27        -3.0960    1.6200   10.3680 o         1 B0R     -0.641800
     28 O28        -1.8700    0.3440   -1.6730 os        1 B0R     -0.300900
     29 C29        -2.1340    1.7440   -1.8430 c3        1 B0R      0.108700
     30 H4          2.4410   -0.9030    2.8640 h4        1 B0R      0.062100
     31 H6         -1.5970    0.2130    1.5320 ha        1 B0R      0.142000
     32 HN10       -1.0910   -0.2810    3.8380 hn        1 B0R      0.322500
     33 H16        -1.8300   -0.0700    9.6430 ha        1 B0R      0.191000
     34 H17        -0.0270   -1.7020    9.2020 ha        1 B0R      0.169000
     35 HN21       -3.2130    2.0630    7.0540 hn        1 B0R      0.463800
     36 H23        -1.8180    4.3930    8.6420 h1        1 B0R      0.116700
     37 H23A       -0.8690    3.1910    9.5590 h1        1 B0R      0.116700
     38 H24        -2.1220    3.7800   11.6490 hc        1 B0R      0.061200
     39 H24A       -3.0800    5.0060   10.7140 hc        1 B0R      0.061200
     40 H25        -0.9530    6.2090   10.1180 hc        1 B0R      0.040033
     41 H25A       -1.1710    6.0670   11.9120 hc        1 B0R      0.040033
     42 H25B        0.0020    4.9860   11.0510 hc        1 B0R      0.040033
     43 H29        -1.9680    2.2910   -0.8840 h1        1 B0R      0.049033
     44 H29A       -3.2130    1.7680   -2.1380 h1        1 B0R      0.049033
     45 H29B       -1.4880    2.1640   -2.6510 h1        1 B0R      0.049033
     46 HN8         0.3810   -0.1530   -3.1510 hn        1 B0R      0.329700
@<TRIPOS>BOND
     1    1    2 ar  
     2    1    6 ar  
     3    1    7 2   
     4    2    3 ar  
     5    2    9 2   
     6    3    4 ar  
     7    4    5 ar  
     8    4   30 1   
     9    5    6 ar  
    10    5   10 1   
    11    6   31 1   
    12    7    8 1   
    13    7   28 1   
    14    8    9 1   
    15    8   46 1   
    16   10   11 1   
    17   10   32 1   
    18   11   12 1   
    19   11   13 2   
    20   12   14 ar  
    21   12   18 ar  
    22   14   15 ar  
    23   14   20 1   
    24   15   16 ar  
    25   15   21 1   
    26   16   17 ar  
    27   16   33 1   
    28   17   18 ar  
    29   17   34 1   
    30   18   19 1   
    31   21   22 1   
    32   21   35 1   
    33   22   23 1   
    34   22   26 2   
    35   22   27 2   
    36   23   24 1   
    37   23   36 1   
    38   23   37 1   
    39   24   25 1   
    40   24   38 1   
    41   24   39 1   
    42   25   40 1   
    43   25   41 1   
    44   25   42 1   
    45   28   29 1   
    46   29   43 1   
    47   29   44 1   
    48   29   45 1   
@<TRIPOS>SUBSTRUCTURE
     1 B0R         1 TEMP              0 ****  ****    0 ROOT
