@<TRIPOS>MOLECULE
B0R
   46    38     1     0     0
SMALL
bcc


@<TRIPOS>ATOM
      1 C1          2.4940   -0.8610   -4.4830 c1        1 B0R     -0.144000
      2 C2          3.8340   -1.0620   -4.6010 c1        1 B0R     -0.062000
      3 N3          4.5940   -1.3380   -3.4800 n1        1 B0R     -0.073000
      4 C4          4.0020   -1.4080   -2.2570 c1        1 B0R     -0.040000
      5 C5          2.6380   -1.2030   -2.1340 c1        1 B0R      0.004000
      6 C6          1.8900   -0.9310   -3.2370 c1        1 B0R     -0.102000
      7 C7          1.9870   -0.6120   -5.7460 c1        1 B0R      0.031000
      8 N8          3.0110   -0.6620   -6.6240 n2        1 B0R     -0.119000
      9 N9          4.1630   -0.9420   -5.9210 n1        1 B0R     -0.050000
     10 N10         1.8050   -1.2680   -0.9810 n         1 B0R     -0.307000
     11 C11         2.3860   -1.2980    0.3120 c2        1 B0R      0.361000
     12 C12         1.4990   -1.3200    1.5410 c2        1 B0R     -0.177000
     13 O13         3.5920   -1.2690    0.4340 o         1 B0R     -0.317000
     14 C14         0.7270   -0.2130    1.8640 c2        1 B0R      0.091000
     15 C15        -0.2270   -0.3000    2.8660 c1        1 B0R      0.034000
     16 C16        -0.4090   -1.4950    3.5460 c1        1 B0R     -0.134000
     17 C17         0.3630   -2.6010    3.2240 c1        1 B0R     -0.134000
     18 C18         1.3170   -2.5130    2.2210 c1        1 B0R      0.150000
     19 F19         2.0240   -3.5940    1.8750 f         1 B0R     -0.073000
     20 F20         0.8560    0.9180    1.1620 f         1 B0R     -0.100000
     21 N21        -1.1110    0.7880    3.0990 n3        1 B0R     -0.820000
     22 S22        -2.5720    0.5200    3.8040 s4        1 B0R      2.028800
     23 C23        -3.1470    1.9910    4.5960 c2        1 B0R     -0.872000
     24 C24        -4.2730    2.5930    3.7850 c3        1 B0R     -0.129000
     25 C25        -4.7800    3.8320    4.4730 c3        1 B0R     -0.208000
     26 O26        -3.5290    0.0330    2.8520 o         1 B0R     -0.529900
     27 O27        -2.5130   -0.5770    4.7260 o         1 B0R     -0.529900
     28 O28         0.6020   -0.4940   -5.9290 o         1 B0R     -0.185000
     29 C29         0.2390    0.2280   -7.0790 c3        1 B0R     -0.081000
     30 H4          4.5370   -1.6020   -1.4680 ha        1 B0R      0.199000
     31 H6          0.9280   -0.7870   -3.1510 ha        1 B0R      0.142000
     32 HN10        0.8990   -1.3120   -1.0750 hn        1 B0R      0.236000
     33 H16        -1.0790   -1.5570    4.2500 ha        1 B0R      0.180000
     34 H17         0.2350   -3.4400    3.7020 ha        1 B0R      0.180000
     35 HN21       -0.9060    1.6180    2.7760 hn        1 B0R      0.259000
     36 H23        -3.4720    1.7730    5.4940 ha        1 B0R      0.160500
     37 H23A       -2.4120    2.6340    4.6620 ha        1 B0R      0.160500
     38 H24        -3.9440    2.8260    2.8950 hc        1 B0R      0.093000
     39 H24A       -4.9990    1.9440    3.7040 hc        1 B0R      0.093000
     40 H25        -5.5990    4.1350    4.0350 hc        1 B0R      0.079667
     41 H25A       -4.9680    3.6290    5.4130 hc        1 B0R      0.079667
     42 H25B       -4.1010    4.5360    4.4200 hc        1 B0R      0.079667
     43 H29         0.8750    0.9660   -7.2160 h1        1 B0R      0.088333
     44 H29A       -0.6640    0.5920   -6.9660 h1        1 B0R      0.088333
     45 H29B        0.2570   -0.3670   -7.8580 h1        1 B0R      0.088333
     46 HN8         2.9510   -0.5340   -7.5230 DU        1 B0R      0.280000
@<TRIPOS>BOND
     1    1    6 1   
     2    2    3 1   
     3    4    5 1   
     4    4   30 1   
     5    5   10 1   
     6    6   31 1   
     7    7    8 1   
     8    8    9 1   
     9   10   11 1   
    10   10   32 1   
    11   11   12 1   
    12   11   13 1   
    13   12   14 1   
    14   12   18 1   
    15   14   15 1   
    16   14   20 1   
    17   15   21 1   
    18   16   17 1   
    19   16   33 1   
    20   17   34 1   
    21   18   19 1   
    22   21   22 1   
    23   21   35 1   
    24   22   26 1   
    25   22   27 1   
    26   23   24 1   
    27   23   36 1   
    28   23   37 1   
    29   24   25 1   
    30   24   38 1   
    31   24   39 1   
    32   25   40 1   
    33   25   41 1   
    34   25   42 1   
    35   28   29 1   
    36   29   43 1   
    37   29   44 1   
    38   29   45 1   
@<TRIPOS>SUBSTRUCTURE
     1 B0R         1 TEMP              0 ****  ****    0 ROOT
