@<TRIPOS>MOLECULE
B0R
   46    48     1     0     0
SMALL
bcc


@<TRIPOS>ATOM
      1 C1         -0.0790   -0.1140    0.0330 ca        1 B0R     -0.209300
      2 C2          1.3270   -0.4820   -0.2190 ca        1 B0R      0.266300
      3 N3          2.2050   -0.7580    0.8200 nb        1 B0R     -0.599000
      4 C4          1.7140   -0.6820    2.0340 ca        1 B0R      0.425200
      5 C5          0.3340   -0.3380    2.3790 ca        1 B0R     -0.069700
      6 C6         -0.5570   -0.0480    1.3550 ca        1 B0R     -0.102000
      7 C7         -0.6180    0.0800   -1.2580 cc        1 B0R      0.048000
      8 N8          0.4250   -0.1520   -2.1630 na        1 B0R      0.037800
      9 N9          1.5680   -0.4950   -1.5860 nc        1 B0R     -0.229400
     10 N10        -0.1070   -0.3430    3.7130 ns        1 B0R     -0.452100
     11 C11         0.6870   -0.1620    4.8360 c         1 B0R      0.687700
     12 C12        -0.0450   -0.1410    6.1430 ca        1 B0R     -0.197600
     13 O13         1.9240   -0.0580    4.7980 o         1 B0R     -0.556100
     14 C14        -1.0700    0.7900    6.3930 ca        1 B0R      0.125900
     15 C15        -1.7150    0.8530    7.6640 ca        1 B0R      0.114600
     16 C16        -1.3170   -0.0710    8.6550 ca        1 B0R     -0.112000
     17 C17        -0.3100   -0.9910    8.4130 ca        1 B0R     -0.156000
     18 C18         0.3370   -1.0340    7.1630 ca        1 B0R      0.184900
     19 F19         1.3100   -1.9450    6.9510 f         1 B0R     -0.107900
     20 F20        -1.4570    1.6370    5.4060 f         1 B0R     -0.134900
     21 N21        -2.7230    1.7980    7.8970 nu        1 B0R     -0.773500
     22 S22        -3.1240    2.5280    9.3070 s6        1 B0R      1.458900
     23 C23        -1.8660    3.6730    9.5060 c3        1 B0R     -0.330600
     24 C24        -2.0710    4.4760   10.7750 c3        1 B0R     -0.057400
     25 C25        -0.9740    5.4890   10.9730 c3        1 B0R     -0.088100
     26 O26        -4.3360    3.2080    9.0880 o         1 B0R     -0.641800
     27 O27        -3.0760    1.6160   10.3760 o         1 B0R     -0.641800
     28 O28        -1.8950    0.3450   -1.6690 os        1 B0R     -0.300900
     29 C29        -2.1600    1.7450   -1.8380 c3        1 B0R      0.108700
     30 H4          2.4350   -0.8990    2.8510 h4        1 B0R      0.062100
     31 H6         -1.6100    0.2130    1.5350 ha        1 B0R      0.142000
     32 HN10       -1.0940   -0.2810    3.8390 hn        1 B0R      0.322500
     33 H16        -1.8110   -0.0720    9.6460 ha        1 B0R      0.191000
     34 H17        -0.0070   -1.7010    9.1990 ha        1 B0R      0.169000
     35 HN21       -3.2070    2.0590    7.0630 hn        1 B0R      0.463800
     36 H23        -1.8090    4.3910    8.6460 h1        1 B0R      0.116700
     37 H23A       -0.8540    3.1910    9.5580 h1        1 B0R      0.116700
     38 H24        -3.0630    5.0020   10.7230 hc        1 B0R      0.061200
     39 H24A       -2.1000    3.7770   11.6540 hc        1 B0R      0.061200
     40 H25         0.0200    4.9860   11.0480 hc        1 B0R      0.040033
     41 H25A       -0.9400    6.2080   10.1190 hc        1 B0R      0.040033
     42 H25B       -1.1510    6.0650   11.9140 hc        1 B0R      0.040033
     43 H29        -1.9910    2.2920   -0.8800 h1        1 B0R      0.049033
     44 H29A       -3.2400    1.7680   -2.1290 h1        1 B0R      0.049033
     45 H29B       -1.5190    2.1650   -2.6480 h1        1 B0R      0.049033
     46 HN8         0.3510   -0.1480   -3.1560 hn        1 B0R      0.329700
@<TRIPOS>BOND
     1    1    2 ar  
     2    1    6 ar  
     3    1    7 2   
     4    2    3 ar  
     5    2    9 2   
     6    3    4 ar  
     7    4    5 ar  
     8    4   30 1   
     9    5    6 ar  
    10    5   10 1   
    11    6   31 1   
    12    7    8 1   
    13    7   28 1   
    14    8    9 1   
    15    8   46 1   
    16   10   11 1   
    17   10   32 1   
    18   11   12 1   
    19   11   13 2   
    20   12   14 ar  
    21   12   18 ar  
    22   14   15 ar  
    23   14   20 1   
    24   15   16 ar  
    25   15   21 1   
    26   16   17 ar  
    27   16   33 1   
    28   17   18 ar  
    29   17   34 1   
    30   18   19 1   
    31   21   22 1   
    32   21   35 1   
    33   22   23 1   
    34   22   26 2   
    35   22   27 2   
    36   23   24 1   
    37   23   36 1   
    38   23   37 1   
    39   24   25 1   
    40   24   38 1   
    41   24   39 1   
    42   25   40 1   
    43   25   41 1   
    44   25   42 1   
    45   28   29 1   
    46   29   43 1   
    47   29   44 1   
    48   29   45 1   
@<TRIPOS>SUBSTRUCTURE
     1 B0R         1 TEMP              0 ****  ****    0 ROOT
