@<TRIPOS>MOLECULE
B0R
   46    48     1     0     0
SMALL
bcc


@<TRIPOS>ATOM
      1 C1          5.1760    0.2860   -0.0680 ca        1 B0R     -0.209300
      2 C2          5.8000   -1.0000    0.2960 ca        1 B0R      0.266300
      3 N3          5.0700   -2.1800    0.3350 nb        1 B0R     -0.599000
      4 C4          3.7990   -2.0900    0.0200 ca        1 B0R      0.425200
      5 C5          3.0980   -0.8640   -0.3650 ca        1 B0R     -0.069700
      6 C6          3.8080    0.3280   -0.3980 ca        1 B0R     -0.102000
      7 C7          6.2350    1.2150    0.0110 cc        1 B0R      0.048000
      8 N8          7.3680    0.4940    0.4070 na        1 B0R      0.037800
      9 N9          7.1470   -0.8030    0.5680 nc        1 B0R     -0.229400
     10 N10         1.7450   -0.8860   -0.7410 n         1 B0R     -0.452100
     11 C11         0.8040   -1.8290   -0.3510 c         1 B0R      0.687700
     12 C12        -0.5910   -1.5820   -0.8380 ca        1 B0R     -0.197600
     13 O13         1.0750   -2.8370    0.3220 o         1 B0R     -0.556100
     14 C14        -1.2720   -0.3890   -0.5320 ca        1 B0R      0.125900
     15 C15        -2.6260   -0.1890   -0.9360 ca        1 B0R      0.114600
     16 C16        -3.2520   -1.2120   -1.6810 ca        1 B0R     -0.112000
     17 C17        -2.5860   -2.3870   -1.9860 ca        1 B0R     -0.156000
     18 C18        -1.2560   -2.5860   -1.5670 ca        1 B0R      0.184900
     19 F19        -0.6270   -3.7380   -1.8830 f         1 B0R     -0.107900
     20 F20        -0.6280    0.5910    0.1510 f         1 B0R     -0.134900
     21 N21        -3.2910    1.0000   -0.6090 nh        1 B0R     -0.773500
     22 S22        -4.8890    1.2270   -0.3300 s6        1 B0R      1.458900
     23 C23        -5.0940    0.5640    1.2350 c3        1 B0R     -0.330600
     24 C24        -6.5340    0.6960    1.6860 c3        1 B0R     -0.057400
     25 C25        -6.7400    0.1170    3.0620 c3        1 B0R     -0.088100
     26 O26        -5.1040    2.6160   -0.2750 o         1 B0R     -0.641800
     27 O27        -5.6660    0.4860   -1.2380 o         1 B0R     -0.641800
     28 O28         6.2900    2.5460   -0.3010 os        1 B0R     -0.300900
     29 C29         6.0480    3.4050    0.8230 c3        1 B0R      0.108700
     30 H4          3.2310   -3.0430    0.0640 h4        1 B0R      0.062100
     31 H6          3.3520    1.2870   -0.6830 ha        1 B0R      0.142000
     32 HN10        1.4030   -0.0500   -1.1640 hn        1 B0R      0.322500
     33 H16        -4.2940   -1.0840   -2.0360 ha        1 B0R      0.191000
     34 H17        -3.0910   -3.1770   -2.5640 ha        1 B0R      0.169000
     35 HN21       -2.6680    1.7740   -0.5030 hn        1 B0R      0.463800
     36 H23        -4.8120   -0.5210    1.2790 h1        1 B0R      0.116700
     37 H23A       -4.4430    1.0710    1.9970 h1        1 B0R      0.116700
     38 H24        -6.8230    1.7820    1.6890 hc        1 B0R      0.061200
     39 H24A       -7.2010    0.1660    0.9520 hc        1 B0R      0.061200
     40 H25        -7.8090    0.2280    3.3670 hc        1 B0R      0.040033
     41 H25A       -6.4780   -0.9690    3.0770 hc        1 B0R      0.040033
     42 H25B       -6.1010    0.6420    3.8110 hc        1 B0R      0.040033
     43 H29         6.8450    3.2700    1.5920 h1        1 B0R      0.049033
     44 H29A        6.0910    4.4290    0.3750 h1        1 B0R      0.049033
     45 H29B        5.0420    3.1990    1.2600 h1        1 B0R      0.049033
     46 HN8         8.2910    0.8550    0.5000 hn        1 B0R      0.329700
@<TRIPOS>BOND
     1    1    2 ar  
     2    1    6 ar  
     3    1    7 2   
     4    2    3 ar  
     5    2    9 2   
     6    3    4 ar  
     7    4    5 ar  
     8    4   30 1   
     9    5    6 ar  
    10    5   10 1   
    11    6   31 1   
    12    7    8 1   
    13    7   28 1   
    14    8    9 1   
    15    8   46 1   
    16   10   11 1   
    17   10   32 1   
    18   11   12 1   
    19   11   13 2   
    20   12   14 ar  
    21   12   18 ar  
    22   14   15 ar  
    23   14   20 1   
    24   15   16 ar  
    25   15   21 1   
    26   16   17 ar  
    27   16   33 1   
    28   17   18 ar  
    29   17   34 1   
    30   18   19 1   
    31   21   22 1   
    32   21   35 1   
    33   22   23 1   
    34   22   26 2   
    35   22   27 2   
    36   23   24 1   
    37   23   36 1   
    38   23   37 1   
    39   24   25 1   
    40   24   38 1   
    41   24   39 1   
    42   25   40 1   
    43   25   41 1   
    44   25   42 1   
    45   28   29 1   
    46   29   43 1   
    47   29   44 1   
    48   29   45 1   
@<TRIPOS>SUBSTRUCTURE
     1 B0R         1 TEMP              0 ****  ****    0 ROOT
