@<TRIPOS>MOLECULE
B0R
   48    49     1     0     0
SMALL
bcc


@<TRIPOS>ATOM
      1 C1         -0.1940    0.1200    0.7220 ca        1 B0R     -0.311300
      2 C2          0.7630    1.2560    0.8180 ca        1 B0R      0.316300
      3 N3          1.6080    1.3950    1.9170 nb        1 B0R     -0.564000
      4 C4          1.5190    0.4720    2.8410 ca        1 B0R      0.441200
      5 C5          0.5990   -0.6560    2.8150 ca        1 B0R     -0.293700
      6 C6         -0.2640   -0.8290    1.7350 ca        1 B0R      0.088000
      7 C7         -0.8330    0.3290   -0.5410 cc        1 B0R      0.196000
      8 N8         -0.2810    1.4830   -1.0740 na        1 B0R      0.010800
      9 N9          0.6620    2.0450   -0.2990 nc        1 B0R     -0.187400
     10 N10         0.6480   -1.6250    3.9020 n4        1 B0R     -0.505200
     11 C11         0.6070   -0.9610    5.2580 c         1 B0R      0.568700
     12 C12        -0.6680   -0.3910    5.7260 ca        1 B0R     -0.228600
     13 O13         1.6680   -0.9440    5.8660 o         1 B0R     -0.386100
     14 C14        -0.6150    0.8230    6.4560 ca        1 B0R      0.224900
     15 C15        -1.7930    1.3830    7.0210 ca        1 B0R     -0.033400
     16 C16        -3.0230    0.7250    6.8150 ca        1 B0R     -0.034000
     17 C17        -3.0860   -0.4620    6.1010 ca        1 B0R     -0.139000
     18 C18        -1.9170   -1.0270    5.5550 ca        1 B0R      0.219900
     19 F19        -2.0010   -2.1910    4.8770 f         1 B0R     -0.110900
     20 F20         0.5660    1.4560    6.6120 f         1 B0R     -0.095900
     21 N21        -1.7280    2.5770    7.8140 nh        1 B0R     -0.875200
     22 S22        -1.6020    2.1290   10.1630 s4        1 B0R      1.610500
     23 C23        -0.7750    3.4650   10.5230 c3        1 B0R     -0.514100
     24 C24        -1.5780    4.7670   10.4640 c3        1 B0R     -0.040400
     25 C25        -0.7690    5.9330   10.9710 c3        1 B0R     -0.107100
     26 O26        -2.9490    2.1550   10.2710 o         1 B0R     -0.400400
     27 O27        -0.8830    0.9930   10.0180 o         1 B0R     -0.400400
     28 O28        -1.8000   -0.4630   -1.0530 os        1 B0R     -0.275900
     29 C29        -2.2510   -0.1710   -2.3880 c3        1 B0R      0.093700
     30 H4          2.2210    0.5830    3.6930 h4        1 B0R      0.041100
     31 H6         -0.9710   -1.6730    1.6550 ha        1 B0R      0.163000
     32 HN10       -0.1330   -2.2900    3.8120 hn        1 B0R      0.472300
     33 H16        -3.9600    1.1480    7.2260 ha        1 B0R      0.189000
     34 H17        -4.0530   -0.9780    5.9550 ha        1 B0R      0.207000
     35 HN21       -2.5780    3.1130    7.6890 hn        1 B0R      0.422800
     36 H23         0.1610    3.6320    9.9000 h1        1 B0R      0.203200
     37 H23A       -0.3230    3.4380   11.5730 h1        1 B0R      0.203200
     38 H24        -1.8870    4.9590    9.4030 hc        1 B0R      0.067200
     39 H24A       -2.5100    4.6580   11.0840 hc        1 B0R      0.067200
     40 H25         0.1630    6.0670   10.3710 hc        1 B0R      0.069700
     41 H25A       -0.4860    5.7890   12.0420 hc        1 B0R      0.069700
     42 H25B       -1.3770    6.8700   10.8940 hc        1 B0R      0.069700
     43 H29        -1.4020   -0.2400   -3.1090 h1        1 B0R      0.079033
     44 H29A       -3.0000   -0.9850   -2.5740 h1        1 B0R      0.079033
     45 H29B       -2.7390    0.8330   -2.4180 h1        1 B0R      0.079033
     46 HN8        -0.4820    1.8920   -1.9660 hn        1 B0R      0.357700
     47 H102        1.5410   -2.1450    3.8280 hn        1 B0R      0.472300
     48 H212       -0.9420    3.1420    7.5230 hn        1 B0R      0.422800
@<TRIPOS>BOND
     1    1    2 ar  
     2    1    6 ar  
     3    1    7 2   
     4    2    3 ar  
     5    2    9 2   
     6    3    4 ar  
     7    4    5 ar  
     8    4   30 1   
     9    5    6 ar  
    10    5   10 1   
    11    6   31 1   
    12    7    8 1   
    13    7   28 1   
    14    8    9 1   
    15    8   46 1   
    16   10   11 1   
    17   10   32 1   
    18   10   47 1   
    19   11   12 1   
    20   11   13 2   
    21   12   14 ar  
    22   12   18 ar  
    23   14   15 ar  
    24   14   20 1   
    25   15   16 ar  
    26   15   21 1   
    27   16   17 ar  
    28   16   33 1   
    29   17   18 ar  
    30   17   34 1   
    31   18   19 1   
    32   21   35 1   
    33   21   48 1   
    34   22   23 1   
    35   22   26 1   
    36   22   27 1   
    37   23   24 1   
    38   23   36 1   
    39   23   37 1   
    40   24   25 1   
    41   24   38 1   
    42   24   39 1   
    43   25   40 1   
    44   25   41 1   
    45   25   42 1   
    46   28   29 1   
    47   29   43 1   
    48   29   44 1   
    49   29   45 1   
@<TRIPOS>SUBSTRUCTURE
     1 B0R         1 TEMP              0 ****  ****    0 ROOT
