@<TRIPOS>MOLECULE
B0T
   67    64     1     0     0
SMALL
bcc


@<TRIPOS>ATOM
      1 C1         -2.6740   -0.9350    0.8810 c2        1 B0T     -0.234000
      2 C2          0.8170    0.2200   -1.5190 c1        1 B0T      0.194000
      3 C3         -1.8110   -0.9880    1.8990 c2        1 B0T     -0.099000
      4 C4          0.1770   -0.2310   -0.4600 c2        1 B0T     -0.412000
      5 C5          4.0420   -3.1080    7.2710 c2        1 B0T     -0.060000
      6 C6          3.6870   -4.3970    7.3440 c2        1 B0T     -0.244000
      7 C7         -0.6000   -0.2200    1.9870 c2        1 B0T     -0.181000
      8 C8          1.6710   -2.4370    6.8840 c2        1 B0T     -0.180000
      9 C9          0.3110    0.1490    0.9140 c2        1 B0T     -0.018000
     10 C10         3.0850   -1.9860    7.0660 c3        1 B0T     -0.017000
     11 C11         2.2930   -4.8340    7.2430 c2        1 B0T      0.310000
     12 C12         1.3060   -3.7430    6.9760 c2        1 B0T      0.083000
     13 C13        -0.0630    0.3370    3.1580 c2        1 B0T      0.113000
     14 C17        -4.1630   -3.2520    3.7480 c3        1 B0T     -0.299000
     15 C18         0.2230    0.7600    5.5870 c3        1 B0T      0.148000
     16 C19         1.0870    2.0090    5.4270 c3        1 B0T     -0.212000
     17 C20        -2.1450   -5.7560    6.4310 c1        1 B0T     -0.112000
     18 C21        -1.3100   -6.9200    6.5460 c3        1 B0T     -0.299000
     19 C22         1.3250    0.8950    1.4830 c2        1 B0T     -0.124000
     20 C23         3.1750   -0.9660    8.1570 c2        1 B0T     -0.157000
     21 C24         3.8500   -1.1080    9.2940 c2        1 B0T     -0.209000
     22 C26         1.2140  -10.0430    8.8410 c1        1 B0T      0.156000
     23 N1         -0.5720    0.3800    4.4440 nh        1 B0T     -0.267000
     24 N2          0.2590   -2.7700    4.1280 n3        1 B0T     -0.444000
     25 O1          1.1820   -0.2730    5.9830 os        1 B0T     -0.294000
     26 O2          2.8790  -10.3650    6.0950 o         1 B0T     -0.206000
     27 O3          1.1240    1.0290    2.8600 os        1 B0T     -0.110000
     28 O4         -0.5540   -1.4870    6.6900 o         1 B0T     -0.407000
     29 O5          1.7740  -10.9850    8.0630 os        1 B0T     -0.222000
     30 O6          0.0470   -4.2390    6.8310 oh        1 B0T     -0.261000
     31 O7          1.9410   -6.0150    7.3540 o         1 B0T     -0.300000
     32 H1         -3.5800   -1.5540    0.8650 ha        1 B0T      0.110000
     33 H2         -2.5470   -0.2710    0.0170 ha        1 B0T      0.110000
     34 H3         -2.0150   -1.6590    2.7620 ha        1 B0T      0.150000
     35 H4         -0.5860   -1.0260   -0.6470 ha        1 B0T      0.206000
     36 H5          5.1000   -2.8060    7.3570 ha        1 B0T      0.144000
     37 H6          4.4280   -5.2020    7.4810 ha        1 B0T      0.157000
     38 H7         -2.6070   -3.1380    6.2520 ha        1 B0T      0.014000
     39 H8         -2.4950   -2.5370    5.9470 ha        1 B0T      0.014000
     40 H9         -2.5570   -4.5930    4.3980 ha        1 B0T      0.068500
     41 H10        -4.9360   -3.9780    4.1070 hc        1 B0T      0.112667
     42 H11        -4.2550   -3.1590    2.6290 hc        1 B0T      0.112667
     43 H12        -4.3960   -2.2420    4.1790 hc        1 B0T      0.112667
     44 H13         0.5020    2.8140    4.9230 hc        1 B0T      0.102000
     45 H14         1.4040    2.3530    6.4400 hc        1 B0T      0.102000
     46 H15         1.9980    1.7850    4.8220 hc        1 B0T      0.102000
     47 H16        -0.5750   -3.5390    6.5510 ho        1 B0T      0.272000
     48 H17        -2.4950   -5.3110    7.3760 ha        1 B0T      0.068500
     49 H18        -0.2540   -6.4940    6.5740 hc        1 B0T      0.112667
     50 H19         2.2200    1.3890    1.1190 h4        1 B0T      0.195000
     51 H20         0.6130   -3.6870    3.9530 hn        1 B0T      0.145667
     52 H21         2.6140   -0.0420    7.9310 ha        1 B0T      0.139000
     53 H22         3.3860   -1.4650    6.0990 hc        1 B0T      0.149000
     54 H23         0.4460   -2.1970    3.3300 hn        1 B0T      0.145667
     55 H24         3.8820   -0.3110   10.0500 ha        1 B0T      0.117500
     56 H25         4.4100   -2.0140    9.5570 ha        1 B0T      0.117500
     57 H26         2.3900   -8.1660    8.3170 hc        1 B0T      0.162500
     58 H27         0.8410   -8.3210    7.3980 hc        1 B0T      0.162500
     59 H28        -1.4500   -7.5450    7.4640 hc        1 B0T      0.112667
     60 H29        -1.3870   -7.5760    5.6430 hc        1 B0T      0.112667
     61 H30        -1.1730   -0.4060    4.6330 hn        1 B0T      0.241000
     62 C25         1.6550   -8.8910    7.9010 c3        1 B0T     -0.322000
     63 H121       -0.5130    0.8890    6.4400 h2        1 B0T      0.126000
     64 H211       -0.7370   -2.8310    4.2550 hn        1 B0T      0.145667
     65 C16        -2.7850   -3.5850    4.0130 c1        1 B0T     -0.112000
     66 C14         0.6760   -1.4140    6.5330 c2        1 B0T      0.387000
     67 C15         2.2650  -10.0210    7.0700 c2        1 B0T      0.268000
@<TRIPOS>BOND
     1    1    3 1   
     2    1   32 1   
     3    1   33 1   
     4    2    4 1   
     5    3    7 1   
     6    3   34 1   
     7    4    9 1   
     8    4   35 1   
     9    5    6 1   
    10    5   10 1   
    11    5   36 1   
    12    6   11 1   
    13    6   37 1   
    14    7    9 1   
    15    7   13 1   
    16    8   10 1   
    17    8   12 1   
    18    8   66 1   
    19    9   19 1   
    20   10   20 1   
    21   10   53 1   
    22   11   12 1   
    23   11   31 1   
    24   12   30 1   
    25   13   23 1   
    26   13   27 1   
    27   14   41 1   
    28   14   42 1   
    29   14   43 1   
    30   14   65 1   
    31   15   16 1   
    32   15   23 1   
    33   15   25 1   
    34   15   63 1   
    35   16   44 1   
    36   16   45 1   
    37   16   46 1   
    38   17   18 1   
    39   17   48 1   
    40   18   49 1   
    41   18   59 1   
    42   18   60 1   
    43   19   27 1   
    44   19   50 1   
    45   20   21 1   
    46   20   52 1   
    47   21   55 1   
    48   21   56 1   
    49   22   29 1   
    50   22   62 1   
    51   23   61 1   
    52   24   51 1   
    53   24   54 1   
    54   24   64 1   
    55   25   66 1   
    56   26   67 1   
    57   28   66 1   
    58   29   67 1   
    59   30   47 1   
    60   38   39 1   
    61   40   65 1   
    62   57   62 1   
    63   58   62 1   
    64   62   67 1   
@<TRIPOS>SUBSTRUCTURE
     1 B0T         1 TEMP              0 ****  ****    0 ROOT
