@<TRIPOS>MOLECULE
B0T
   65    63     1     0     0
SMALL
bcc


@<TRIPOS>ATOM
      1 C1          8.0080  163.7380  -40.5410 c2        1 B0T     -0.226000
      2 C2         11.3360  162.8730  -40.1660 c1        1 B0T     -0.244000
      3 C3          7.5430  162.7570  -39.7650 c2        1 B0T     -0.100000
      4 C4         10.4990  162.5040  -39.3920 c1        1 B0T     -0.084000
      5 C5          8.0940  152.8670  -38.6280 ca        1 B0T     -0.174000
      6 C6          7.2330  152.4810  -39.6170 ca        1 B0T     -0.068000
      7 C7          8.2210  162.1800  -38.6190 c2        1 B0T     -0.147000
      8 C8          7.5070  155.2240  -39.1190 ca        1 B0T     -0.354000
      9 C9          9.5580  162.0480  -38.4440 c2        1 B0T      0.047000
     10 C10         8.2640  154.2520  -38.3400 ca        1 B0T      0.008000
     11 C11         6.4960  153.4370  -40.3800 ca        1 B0T     -0.095000
     12 C12         6.6360  154.7960  -40.1360 ca        1 B0T      0.130000
     13 C13         7.2740  161.7050  -37.5530 c2        1 B0T      0.348000
     14 C15       -29.4620 -690.7090  195.8510 c2        1 B0T      0.327000
     15 C17         4.7850  159.0300  -37.1440 c1        1 B0T     -0.058000
     16 C18         5.9540  159.7940  -36.6820 c3        1 B0T     -0.034000
     17 C19         6.7590  158.8400  -35.7770 c3        1 B0T     -0.214000
     18 C20       -28.4610 -686.5650  193.3360 c1        1 B0T     -0.324000
     19 C21       -29.0040 -687.4880  193.8730 c1        1 B0T     -0.101000
     20 C22        10.1610  161.3550  -37.2390 c3        1 B0T      0.024000
     21 C23         9.0300  154.9570  -37.4350 c2        1 B0T     -0.254000
     22 C24        10.6940  160.0370  -37.5500 c2        1 B0T     -0.796000
     23 C26       -29.6660 -688.5900  194.5100 c3        1 B0T     -0.068000
     24 N1          6.7780  160.4270  -37.6970 n         1 B0T     -0.398000
     25 N2          9.8390  158.9360  -37.7810 n4        1 B0T      0.129000
     26 O1          8.8000  156.3460  -37.5880 os        1 B0T     -0.238000
     27 O2        -30.3950 -691.1950  195.1480 o         1 B0T     -0.584000
     28 O3          6.9070  162.4490  -36.6180 o         1 B0T     -0.390000
     29 O4          7.5740  157.7040  -38.8690 o         1 B0T     -0.530000
     30 O5        -29.0690 -691.2070  196.9450 o         1 B0T     -0.584000
     31 O6          5.8970  155.6830  -40.8920 oh        1 B0T     -0.291000
     32 O7          5.6740  152.9220  -41.3740 oh        1 B0T     -0.277000
     33 H1          7.4290  164.1230  -41.3910 ha        1 B0T      0.109500
     34 H2          8.9830  164.2150  -40.3840 ha        1 B0T      0.109500
     35 H3          6.5430  162.3260  -39.9630 ha        1 B0T      0.118000
     36 H4         12.0750  163.1940  -40.8510 ha        1 B0T      0.212000
     37 H5          8.6590  152.1290  -38.0450 ha        1 B0T      0.113000
     38 H6          7.0790  151.4200  -39.8610 ha        1 B0T      0.120000
     39 H7          4.6470  159.6360  -39.2150 hc        1 B0T      0.113000
     40 H8          5.2940  157.9800  -38.8590 hc        1 B0T      0.113000
     41 H9          3.5080  158.3230  -38.6820 hc        1 B0T      0.113000
     42 H10       -14.0240   -2.7600  -16.3620 ha        1 B0T      0.000000
     43 H11       -13.6760   -3.2990  -16.1470 ha        1 B0T      0.000000
     44 H12         5.5340  160.6250  -36.0230 h1        1 B0T      0.156000
     45 H13         6.0800  158.4090  -35.0050 hc        1 B0T      0.092333
     46 H14         7.5800  159.4010  -35.2720 hc        1 B0T      0.092333
     47 H15         7.1990  158.0060  -36.3820 hc        1 B0T      0.092333
     48 H16         6.1310  156.5750  -40.5870 ho        1 B0T      0.237000
     49 H17       -27.9770 -685.7540  192.8630 ha        1 B0T      0.199000
     50 H18         5.1120  153.6510  -41.6710 ho        1 B0T      0.209000
     51 H19         9.3780  161.3190  -36.4290 hc        1 B0T      0.069500
     52 H20         9.3900  158.9460  -38.7090 hn        1 B0T      0.189333
     53 H21        10.3570  158.0600  -37.7050 hn        1 B0T      0.189333
     54 H22         9.7300  154.7090  -36.6530 h4        1 B0T      0.163000
     55 H23        11.0050  161.9940  -36.8610 hc        1 B0T      0.069500
     56 H24         9.0730  158.9040  -37.0990 hn        1 B0T      0.189333
     57 H25        11.7400  159.8920  -37.8080 hx        1 B0T      0.135000
     58 H26       -28.3560 -688.8660  196.2250 hc        1 B0T      0.067000
     59 H27       -27.8600 -689.7740  194.7410 hc        1 B0T      0.067000
     60 H28       -30.4960 -688.1980  195.1620 hc        1 B0T      0.109500
     61 H29       -30.1480 -689.2520  193.7330 hc        1 B0T      0.109500
     62 H30         7.1530  159.8320  -38.4020 hn        1 B0T      0.245000
     63 C25       -28.7390 -689.4450  195.3490 c3        1 B0T     -0.219000
     64 C16         4.5300  158.7520  -38.5360 c3        1 B0T     -0.280000
     65 C14         7.8640  156.5090  -38.6230 c2        1 B0T      0.317000
@<TRIPOS>BOND
     1    1    3 1   
     2    1   33 1   
     3    1   34 1   
     4    2    4 1   
     5    2   36 1   
     6    3    7 1   
     7    3   35 1   
     8    4    9 1   
     9    5    6 1   
    10    5   10 1   
    11    5   37 1   
    12    6   11 1   
    13    6   38 1   
    14    7    9 1   
    15    7   13 1   
    16    8   10 1   
    17    8   12 1   
    18    8   65 1   
    19    9   20 1   
    20   10   21 1   
    21   11   12 1   
    22   11   32 1   
    23   12   31 1   
    24   13   24 1   
    25   13   28 1   
    26   14   27 1   
    27   14   30 1   
    28   14   63 1   
    29   15   16 1   
    30   15   64 1   
    31   16   17 1   
    32   16   24 1   
    33   16   44 1   
    34   17   45 1   
    35   17   46 1   
    36   17   47 1   
    37   18   19 1   
    38   18   49 1   
    39   19   23 1   
    40   20   22 1   
    41   20   51 1   
    42   20   55 1   
    43   21   26 1   
    44   21   54 1   
    45   22   25 1   
    46   22   57 1   
    47   23   60 1   
    48   23   61 1   
    49   23   63 1   
    50   24   62 1   
    51   25   52 1   
    52   25   53 1   
    53   25   56 1   
    54   26   65 1   
    55   29   65 1   
    56   31   48 1   
    57   32   50 1   
    58   39   64 1   
    59   40   64 1   
    60   41   64 1   
    61   42   43 1   
    62   58   63 1   
    63   59   63 1   
@<TRIPOS>SUBSTRUCTURE
     1 B0T         1 TEMP              0 ****  ****    0 ROOT
