@<TRIPOS>MOLECULE
B0T
   65    55     1     0     0
SMALL
bcc


@<TRIPOS>ATOM
      1 C1         -4.1370    0.3440   -3.8290 c1        1 B0T     -0.138667
      2 C2         -4.5850   -0.2390   -2.6350 c1        1 B0T     -0.138667
      3 C3         -3.2440    1.4100   -3.7930 c1        1 B0T     -0.138667
      4 C4         -4.1420    0.2430   -1.4310 c1        1 B0T     -0.138667
      5 C5         -1.1270   -2.2440    1.9960 c1        1 B0T     -0.138667
      6 C6         -0.2420   -3.3060    2.3880 c1        1 B0T     -0.138667
      7 C7         -2.7950    1.8990   -2.5710 c1        1 B0T     -0.016000
      8 C8          0.4780   -0.5580    2.8680 c1        1 B0T     -0.059000
      9 C9         -3.2360    1.3250   -1.3930 c1        1 B0T     -0.016000
     10 C10        -0.7610   -0.8650    2.2390 c1        1 B0T     -0.103000
     11 C11         0.9510   -3.0120    2.9940 c1        1 B0T     -0.016000
     12 C12         1.3330   -1.5770    3.2470 c1        1 B0T     -0.016000
     13 C13        -2.0000    3.2180   -2.6610 c1        1 B0T      0.329000
     14 C14         1.0670    0.7410    3.4650 c2        1 B0T      0.371000
     15 C15         4.8720   -7.0240    4.9150 c1        1 B0T      0.328000
     16 C16         0.8630    6.1140   -5.5480 c3        1 B0T     -0.202000
     17 C17        -0.4710    5.3180   -5.4320 c3        1 B0T     -0.170000
     18 C18        -0.4020    4.3880   -4.2200 c3        1 B0T      0.032000
     19 C19         0.5870    3.2980   -4.4810 c3        1 B0T     -0.242000
     20 C20         3.4920   -2.3200    3.8610 c3        1 B0T     -0.055000
     21 C21         2.8910   -3.6730    4.1940 c3        1 B0T     -0.008000
     22 C22        -2.7190    1.4540    0.0420 c2        1 B0T     -0.064000
     23 C23        -1.8010    0.3080    1.9080 c3        1 B0T     -0.031000
     24 C24        -1.1920   -0.2880   -0.2830 c3        1 B0T     -0.147000
     25 C25         3.7230   -6.0180    4.9780 c3        1 B0T     -0.222000
     26 C26         4.0580   -4.7830    4.0540 c3        1 B0T     -0.141000
     27 N1         -1.6990    3.8080   -3.9730 n2        1 B0T     -0.338000
     28 N2         -2.2670    0.1700    0.5180 n3        1 B0T     -0.258000
     29 O1          1.7390    1.5120    2.7400 o         1 B0T     -0.575500
     30 O2          5.0130   -7.7410    3.9080 o         1 B0T     -0.589000
     31 O3         -1.5750    3.7150   -1.6840 o         1 B0T     -0.423000
     32 O4          0.9670    0.9680    4.6970 o         1 B0T     -0.575500
     33 O5          5.7520   -7.0370    5.8300 os        1 B0T     -0.593000
     34 O6          2.6730   -1.3150    3.7930 o         1 B0T     -0.185000
     35 O7          1.8860   -4.0600    3.4600 o         1 B0T     -0.217000
     36 H1         -4.4580   -0.0060   -4.7040 ha        1 B0T      0.123500
     37 H2         -5.2190   -0.9960   -2.6620 ha        1 B0T      0.123500
     38 H3         -2.9070    1.8410   -4.6840 ha        1 B0T      0.123500
     39 H4         -4.4900   -0.1200   -0.6120 ha        1 B0T      0.123500
     40 H5         -1.9690   -2.4510    1.5680 ha        1 B0T      0.123500
     41 H6         -0.5390   -4.2360    2.3240 ha        1 B0T      0.123500
     42 H7          0.8900    6.6160   -6.4480 hc        1 B0T      0.062667
     43 H8          1.6250    5.4860   -5.4970 hc        1 B0T      0.062667
     44 H9          0.9230    6.7810   -4.7880 hc        1 B0T      0.062667
     45 H10        -1.1950    5.9250   -5.3250 hc        1 B0T      0.078500
     46 H11        -0.6010    4.8080   -6.2120 hc        1 B0T      0.078500
     47 H12        -0.1180    4.9050   -3.4290 h1        1 B0T      0.091000
     48 H13         0.5770    2.6560   -3.7260 hc        1 B0T      0.099333
     49 H14         1.5150    3.6970   -4.5750 hc        1 B0T      0.099333
     50 H15         0.3450    2.8270   -5.3180 hc        1 B0T      0.099333
     51 H16         3.9450   -2.3930    3.0110 h1        1 B0T      0.105000
     52 H17         4.1390   -2.1190    4.5230 h1        1 B0T      0.105000
     53 H18         2.5980   -3.6560    5.1360 h1        1 B0T      0.093000
     54 H19        -3.4290    1.7710    0.6080 h4        1 B0T      0.110500
     55 H20        -1.9670    2.0950    0.0650 h4        1 B0T      0.110500
     56 H21        -1.3500    1.1920    2.0210 h1        1 B0T      0.087500
     57 H22        -2.6000    0.2480    2.5430 h1        1 B0T      0.087500
     58 H23        -0.3590    0.0510    0.0760 h1        1 B0T      0.083000
     59 H24        -1.3010    0.0190   -1.1680 h1        1 B0T      0.083000
     60 H25        -1.1750   -1.2840   -0.2770 h1        1 B0T      0.083000
     61 H26         3.6030   -5.7000    5.9370 hc        1 B0T      0.062500
     62 H27         2.8600   -6.4640    4.6550 hc        1 B0T      0.062500
     63 H28         4.9280   -4.3860    4.3330 hc        1 B0T      0.098500
     64 H29         4.1180   -5.0850    3.0990 hc        1 B0T      0.098500
     65 H30        -2.3370    3.8040   -4.6390 hn        1 B0T      0.289000
@<TRIPOS>BOND
     1    1    3 1   
     2    1   36 1   
     3    2    4 1   
     4    2   37 1   
     5    3   38 1   
     6    4   39 1   
     7    5    6 1   
     8    5   40 1   
     9    6   41 1   
    10    7    9 1   
    11    8   10 1   
    12    8   14 1   
    13   10   23 1   
    14   11   12 1   
    15   13   31 1   
    16   14   29 1   
    17   14   32 1   
    18   15   25 1   
    19   15   30 1   
    20   16   17 1   
    21   16   42 1   
    22   16   43 1   
    23   16   44 1   
    24   17   18 1   
    25   17   45 1   
    26   17   46 1   
    27   18   19 1   
    28   18   27 1   
    29   18   47 1   
    30   19   48 1   
    31   19   49 1   
    32   19   50 1   
    33   20   21 1   
    34   20   34 1   
    35   20   51 1   
    36   20   52 1   
    37   21   26 1   
    38   21   35 1   
    39   21   53 1   
    40   22   28 1   
    41   22   54 1   
    42   22   55 1   
    43   23   28 1   
    44   23   56 1   
    45   23   57 1   
    46   24   28 1   
    47   24   58 1   
    48   24   59 1   
    49   24   60 1   
    50   25   26 1   
    51   25   61 1   
    52   25   62 1   
    53   26   63 1   
    54   26   64 1   
    55   27   65 1   
@<TRIPOS>SUBSTRUCTURE
     1 B0T         1 TEMP              0 ****  ****    0 ROOT
