@<TRIPOS>MOLECULE
B0T
   65    67     1     0     0
SMALL
bcc


@<TRIPOS>ATOM
      1 C1         -6.1760    1.8120   -2.5230 ca        1 B0T     -0.151000
      2 C2         -5.6320    2.9900   -2.0090 ca        1 B0T     -0.136000
      3 C3         -5.8890    0.5970   -1.9120 ca        1 B0T     -0.095000
      4 C4         -4.7940    2.9380   -0.9010 ca        1 B0T     -0.139000
      5 C5          0.9690    2.2430    1.5470 ca        1 B0T     -0.147000
      6 C6          2.3330    2.2250    1.2880 ca        1 B0T     -0.164000
      7 C7         -5.0430    0.5390   -0.7940 ca        1 B0T     -0.095600
      8 C8          0.7190   -0.0320    0.7090 ca        1 B0T     -0.059600
      9 C9         -4.4770    1.7140   -0.2900 ca        1 B0T     -0.036300
     10 C10         0.1650    1.1340    1.2580 ca        1 B0T     -0.101300
     11 C11         2.9010    1.0730    0.7260 ca        1 B0T      0.060100
     12 C12         2.0990   -0.0510    0.4450 ca        1 B0T      0.068100
     13 C13        -4.8890   -0.8180   -0.1630 c         1 B0T      0.649700
     14 C15         8.4670   -0.7190   -1.1350 c         1 B0T      0.908600
     15 C17        -3.6880   -3.7530   -0.5530 c3        1 B0T     -0.085400
     16 C18        -3.3750   -2.6700    0.4940 c3        1 B0T      0.074700
     17 C19        -4.0910   -3.0250    1.7960 c3        1 B0T     -0.096100
     18 C20         4.0660   -1.2720    0.0300 c3        1 B0T      0.094400
     19 C21         4.7470    0.0400   -0.3420 c3        1 B0T      0.103100
     20 C22        -3.5510    1.7290    0.8970 c3        1 B0T      0.215100
     21 C23        -1.2990    1.1860    1.5910 c3        1 B0T      0.227100
     22 C24        -1.6840    2.9000   -0.1070 c3        1 B0T      0.160100
     23 C26         6.2580   -0.0090   -0.1530 c3        1 B0T     -0.062400
     24 N1         -3.6380   -1.3230    0.0230 n         1 B0T     -0.512900
     25 N2         -2.1480    1.6870    0.5140 n3        1 B0T     -0.725600
     26 O1         -0.3700   -2.0310    1.4260 o         1 B0T     -0.835300
     27 O2          8.8690   -1.2730   -0.0710 o         1 B0T     -0.856300
     28 O3         -5.9410   -1.4280    0.1660 o         1 B0T     -0.676100
     29 O4         -0.7480   -1.3600   -0.6570 o         1 B0T     -0.835300
     30 O5          9.2460   -0.2930   -2.0370 o         1 B0T     -0.856300
     31 O6          2.6460   -1.1860   -0.1330 os        1 B0T     -0.298900
     32 O7          4.2670    1.1010    0.5120 os        1 B0T     -0.333900
     33 H1         -6.8320    1.8450   -3.4040 ha        1 B0T      0.116000
     34 H2         -5.8610    3.9550   -2.4820 ha        1 B0T      0.114000
     35 H3         -6.3340   -0.3370   -2.2890 ha        1 B0T      0.141000
     36 H4         -4.3620    3.8660   -0.4960 ha        1 B0T      0.125000
     37 H5          0.5130    3.1440    1.9840 ha        1 B0T      0.105000
     38 H6          2.9730    3.0870    1.5140 ha        1 B0T      0.126000
     39 H7         -2.8140   -4.5090   -2.3870 hc        1 B0T      0.040700
     40 H8         -3.3830   -2.7950   -2.4760 hc        1 B0T      0.040700
     41 H9         -1.8620   -3.1780   -1.5760 hc        1 B0T      0.040700
     42 H10        -4.7870   -3.7620   -0.7750 hc        1 B0T      0.026700
     43 H11        -3.4260   -4.7430   -0.0970 hc        1 B0T      0.026700
     44 H12        -2.2460   -2.6930    0.6900 h1        1 B0T      0.154700
     45 H13        -5.1970   -3.0740    1.6490 hc        1 B0T      0.031367
     46 H14        -3.7230   -4.0190    2.1450 hc        1 B0T      0.031367
     47 H15        -3.8650   -2.2690    2.5850 hc        1 B0T      0.031367
     48 H16         4.3710   -2.0950   -0.6670 h1        1 B0T      0.065200
     49 H17         4.2980   -1.5510    1.0910 h1        1 B0T      0.065200
     50 H18         4.4810    0.3170   -1.4000 h1        1 B0T      0.053700
     51 H19        -3.7870    2.6550    1.5080 h1        1 B0T      0.035700
     52 H20        -3.7750    0.8390    1.5520 h1        1 B0T      0.035700
     53 H21        -1.6500    0.1350    1.8230 h1        1 B0T      0.042200
     54 H22        -1.4290    1.8130    2.5260 h1        1 B0T      0.042200
     55 H23        -0.6090    2.7730   -0.4020 h1        1 B0T      0.026700
     56 H24        -2.2880    3.0890   -1.0340 h1        1 B0T      0.026700
     57 H25        -1.7690    3.8040    0.5610 h1        1 B0T      0.026700
     58 H26         6.7810    0.0860   -2.2570 hc        1 B0T      0.023200
     59 H27         6.5430   -1.5870   -1.6070 hc        1 B0T      0.023200
     60 H28         6.6290    1.0320    0.0440 hc        1 B0T      0.058200
     61 H29         6.5180   -0.6290    0.7440 hc        1 B0T      0.058200
     62 H30        -2.8280   -0.8420   -0.3350 hn        1 B0T      0.378500
     63 C25         6.9530   -0.5730   -1.3690 c3        1 B0T     -0.193400
     64 C16        -2.8930   -3.5520   -1.8170 c3        1 B0T     -0.106100
     65 C14        -0.1750   -1.2330    0.4630 c         1 B0T      0.925200
@<TRIPOS>BOND
     1    1    2 ar  
     2    1    3 ar  
     3    1   33 1   
     4    2    4 ar  
     5    2   34 1   
     6    3    7 ar  
     7    3   35 1   
     8    4    9 ar  
     9    4   36 1   
    10    5    6 ar  
    11    5   10 ar  
    12    5   37 1   
    13    6   11 ar  
    14    6   38 1   
    15    7    9 ar  
    16    7   13 1   
    17    8   10 ar  
    18    8   12 ar  
    19    8   65 1   
    20    9   20 1   
    21   10   21 1   
    22   11   12 ar  
    23   11   32 1   
    24   12   31 1   
    25   13   24 1   
    26   13   28 2   
    27   14   27 1   
    28   14   30 1   
    29   14   63 1   
    30   15   16 1   
    31   15   42 1   
    32   15   43 1   
    33   15   64 1   
    34   16   17 1   
    35   16   24 1   
    36   16   44 1   
    37   17   45 1   
    38   17   46 1   
    39   17   47 1   
    40   18   19 1   
    41   18   31 1   
    42   18   48 1   
    43   18   49 1   
    44   19   23 1   
    45   19   32 1   
    46   19   50 1   
    47   20   25 1   
    48   20   51 1   
    49   20   52 1   
    50   21   25 1   
    51   21   53 1   
    52   21   54 1   
    53   22   25 1   
    54   22   55 1   
    55   22   56 1   
    56   22   57 1   
    57   23   60 1   
    58   23   61 1   
    59   23   63 1   
    60   24   62 1   
    61   26   65 1   
    62   29   65 1   
    63   39   64 1   
    64   40   64 1   
    65   41   64 1   
    66   58   63 1   
    67   59   63 1   
@<TRIPOS>SUBSTRUCTURE
     1 B0T         1 TEMP              0 ****  ****    0 ROOT
