@<TRIPOS>MOLECULE
B10
   83    87     1     0     0
SMALL
bcc


@<TRIPOS>ATOM
      1 N1         -2.9330   -1.1780   -0.1270 n         1 B10     -0.464100
      2 C2         -4.0410   -0.3120   -0.0850 ca        1 B10      0.091600
      3 C10        -4.0540    0.9310   -0.7480 ca        1 B10     -0.157000
      4 C12        -5.1990    1.7270   -0.7460 ca        1 B10     -0.006300
      5 C55        -5.2160   -0.7400    0.5850 ca        1 B10     -0.020900
      6 C18        -6.3970    0.0430    0.5560 ca        1 B10      0.190600
      7 C19        -6.3610    1.2850   -0.1050 ca        1 B10     -0.209000
      8 O3         -5.2440   -1.9950    1.1910 os        1 B10     -0.353900
      9 C13        -4.8540   -1.9640    2.5670 c3        1 B10      0.104700
     10 C14        -5.2270    3.0750   -1.4260 c3        1 B10     -0.011700
     11 C15        -3.9000    3.4210   -2.0910 c3        1 B10     -0.089100
     12 C16        -6.3120    3.0780   -2.5000 c3        1 B10     -0.089100
     13 C17        -5.5370    4.1530   -0.3910 c3        1 B10     -0.089100
     14 C24        -1.5950   -0.7230   -0.1260 c         1 B10      0.770100
     15 O1         -1.3080    0.4860   -0.2650 o         1 B10     -0.606100
     16 N4         -0.5960   -1.7070    0.0480 n         1 B10     -0.468100
     17 C25         0.7720   -1.4340   -0.1590 ca        1 B10      0.067600
     18 C4          1.6100   -2.4090   -0.8160 ca        1 B10     -0.054000
     19 C5          3.0100   -2.1750   -0.8920 ca        1 B10     -0.007000
     20 C6          3.5630   -0.9750   -0.3500 cp        1 B10     -0.046000
     21 C26         1.0900   -3.5950   -1.4090 ca        1 B10     -0.130000
     22 C27         1.9130   -4.5060   -2.0230 ca        1 B10     -0.122000
     23 C28         3.3060   -4.2780   -2.0860 ca        1 B10     -0.125000
     24 C29         3.8360   -3.1380   -1.5380 ca        1 B10     -0.117000
     25 C30         2.7250   -0.0360    0.2160 ca        1 B10     -0.094000
     26 C8          1.3410   -0.2600    0.3230 ca        1 B10     -0.133000
     27 C11         5.0000   -0.7130   -0.3910 cp        1 B10     -0.152300
     28 C1          5.5080    0.4350   -1.0150 ca        1 B10     -0.088000
     29 C33         6.8840    0.6600   -1.0070 ca        1 B10     -0.222300
     30 C7          7.7270   -0.2710   -0.3640 ca        1 B10      0.400600
     31 N3          7.2510   -1.3780    0.2560 nb        1 B10     -0.666000
     32 C9          5.9240   -1.5820    0.2340 ca        1 B10      0.402200
     33 N2         -7.5620   -0.4270    1.1780 nh        1 B10     -0.773500
     34 S1         -9.0880    0.1310    1.0340 s6        1 B10      1.470900
     35 O6         -9.8890   -0.6170    1.9200 o         1 B10     -0.648300
     36 O7         -9.1530    1.5300    1.1440 o         1 B10     -0.648300
     37 C23        -9.5070   -0.2850   -0.5580 c3        1 B10     -0.373300
     38 C3          9.2250   -0.0350   -0.3970 c3        1 B10      0.116500
     39 N5          9.6120    1.1590    0.3440 n3        1 B10     -0.725600
     40 C31        10.9870    1.5490    0.0520 c3        1 B10      0.130300
     41 C20         9.3810    1.0270    1.7780 c3        1 B10      0.130300
     42 C21        11.4330    2.7640    0.8740 c3        1 B10      0.126900
     43 C32         9.8620    2.2540    2.5610 c3        1 B10      0.126900
     44 O2         11.2190    2.5670    2.2660 os        1 B10     -0.415600
     45 HN1        -3.1220   -2.0960    0.2180 hn        1 B10      0.322500
     46 H10        -3.1350    1.2710   -1.2560 ha        1 B10      0.178000
     47 H19        -7.2500    1.9400   -0.1000 ha        1 B10      0.164000
     48 H13        -3.7950   -1.6250    2.6640 h1        1 B10      0.044367
     49 H13A       -5.5270   -1.2910    3.1510 h1        1 B10      0.044367
     50 H13B       -4.9660   -3.0260    2.8990 h1        1 B10      0.044367
     51 H15        -3.6460    2.6720   -2.8790 hc        1 B10      0.040700
     52 H15A       -3.9750    4.4260   -2.5730 hc        1 B10      0.040700
     53 H15B       -3.0770    3.4530   -1.3370 hc        1 B10      0.040700
     54 H16        -7.3170    2.9020   -2.0490 hc        1 B10      0.040700
     55 H16A       -6.3260    4.0660   -3.0200 hc        1 B10      0.040700
     56 H16B       -6.1120    2.2800   -3.2550 hc        1 B10      0.040700
     57 H17        -4.7570    4.1570    0.4070 hc        1 B10      0.040700
     58 H17A       -5.5500    5.1560   -0.8830 hc        1 B10      0.040700
     59 H17B       -6.5320    3.9770    0.0810 hc        1 B10      0.040700
     60 HN4        -0.8600   -2.6630   -0.0410 hn        1 B10      0.313500
     61 H26         0.0090   -3.7960   -1.4060 ha        1 B10      0.121000
     62 H27         1.4970   -5.4170   -2.4790 ha        1 B10      0.135000
     63 H28         3.9520   -5.0170   -2.5830 ha        1 B10      0.137000
     64 H29         4.9200   -2.9450   -1.5990 ha        1 B10      0.144000
     65 H30         3.1370    0.9050    0.6130 ha        1 B10      0.142000
     66 H8          0.7160    0.5210    0.7890 ha        1 B10      0.168000
     67 H1          4.8270    1.1450   -1.5060 ha        1 B10      0.146000
     68 H33         7.3150    1.5510   -1.4840 ha        1 B10      0.154000
     69 H9          5.5710   -2.4930    0.7520 h4        1 B10      0.029100
     70 HN2        -7.4010   -1.2580    1.7100 hn        1 B10      0.464800
     71 H23        -9.5530   -1.3870   -0.7320 h1        1 B10      0.119367
     72 H23A      -10.5240    0.1130   -0.8110 h1        1 B10      0.119367
     73 H23B       -8.8120    0.1320   -1.3280 h1        1 B10      0.119367
     74 H3          9.7720   -0.9530   -0.0270 h1        1 B10      0.052700
     75 H3A         9.5120    0.1210   -1.4770 h1        1 B10      0.052700
     76 H31        11.7100    0.7030    0.2440 h1        1 B10      0.044450
     77 H31A       11.0460    1.8160   -1.0400 h1        1 B10      0.044450
     78 H20         8.2740    0.9070    1.9360 h1        1 B10      0.044450
     79 H20A        9.8940    0.1130    2.1980 h1        1 B10      0.044450
     80 H21        12.5420    2.9060    0.7790 h1        1 B10      0.053950
     81 H21A       10.8940    3.6890    0.5380 h1        1 B10      0.053950
     82 H32         9.2160    3.1440    2.3420 h1        1 B10      0.053950
     83 H32A        9.8590    2.0350    3.6610 h1        1 B10      0.053950
@<TRIPOS>BOND
     1    1    2 1   
     2    1   14 1   
     3    1   45 1   
     4    2    3 ar  
     5    2    5 ar  
     6    3    4 ar  
     7    3   46 1   
     8    4    7 ar  
     9    4   10 1   
    10    5    6 ar  
    11    5    8 1   
    12    6    7 ar  
    13    6   33 1   
    14    7   47 1   
    15    8    9 1   
    16    9   48 1   
    17    9   49 1   
    18    9   50 1   
    19   10   11 1   
    20   10   12 1   
    21   10   13 1   
    22   11   51 1   
    23   11   52 1   
    24   11   53 1   
    25   12   54 1   
    26   12   55 1   
    27   12   56 1   
    28   13   57 1   
    29   13   58 1   
    30   13   59 1   
    31   14   15 2   
    32   14   16 1   
    33   16   17 1   
    34   16   60 1   
    35   17   18 ar  
    36   17   26 ar  
    37   18   19 ar  
    38   18   21 ar  
    39   19   20 ar  
    40   19   24 ar  
    41   20   25 ar  
    42   20   27 1   
    43   21   22 ar  
    44   21   61 1   
    45   22   23 ar  
    46   22   62 1   
    47   23   24 ar  
    48   23   63 1   
    49   24   64 1   
    50   25   26 ar  
    51   25   65 1   
    52   26   66 1   
    53   27   28 ar  
    54   27   32 ar  
    55   28   29 ar  
    56   28   67 1   
    57   29   30 ar  
    58   29   68 1   
    59   30   31 ar  
    60   30   38 1   
    61   31   32 ar  
    62   32   69 1   
    63   33   34 1   
    64   33   70 1   
    65   34   35 2   
    66   34   36 2   
    67   34   37 1   
    68   37   71 1   
    69   37   72 1   
    70   37   73 1   
    71   38   39 1   
    72   38   74 1   
    73   38   75 1   
    74   39   40 1   
    75   39   41 1   
    76   40   42 1   
    77   40   76 1   
    78   40   77 1   
    79   41   43 1   
    80   41   78 1   
    81   41   79 1   
    82   42   44 1   
    83   42   80 1   
    84   42   81 1   
    85   43   44 1   
    86   43   82 1   
    87   43   83 1   
@<TRIPOS>SUBSTRUCTURE
     1 B10         1 TEMP              0 ****  ****    0 ROOT
