@<TRIPOS>MOLECULE
B10
   86    89     1     0     0
SMALL
bcc


@<TRIPOS>ATOM
      1 N1         -0.3860    1.0310    0.6360 n4        1 B10     -0.485200
      2 C2          1.0110    0.5860    0.5580 ca        1 B10     -0.079400
      3 C10         1.9490    1.0930    1.4780 ca        1 B10     -0.077000
      4 C12         3.2680    0.6440    1.4450 ca        1 B10     -0.011300
      5 C55         1.3900   -0.3770   -0.4070 ca        1 B10      0.136100
      6 C18         2.7180   -0.8790   -0.4050 ca        1 B10      0.023600
      7 C19         3.6370   -0.3380    0.5080 ca        1 B10     -0.037000
      8 O3          0.3920   -0.8630   -1.2250 os        1 B10     -0.379900
      9 C13         0.6400   -0.8160   -2.6420 c3        1 B10      0.102700
     10 C14         4.3190    1.1750    2.3930 c3        1 B10     -0.022700
     11 C15         3.7620    2.2200    3.3510 c3        1 B10     -0.098767
     12 C16         4.8820    0.0190    3.2170 c3        1 B10     -0.098767
     13 C17         5.4410    1.8180    1.5800 c3        1 B10     -0.098767
     14 C24        -0.6450    2.2760   -0.1640 c         1 B10      0.459100
     15 O1          0.0790    2.6140   -1.0850 o         1 B10     -0.320100
     16 N4         -1.8590    3.1000    0.1970 n4        1 B10     -0.455200
     17 C25        -2.4390    2.7820    1.4840 ca        1 B10     -0.258400
     18 C4         -3.2950    1.6380    1.6160 ca        1 B10      0.016000
     19 C5         -3.9850    1.4560    2.8490 ca        1 B10     -0.081000
     20 C6         -3.8900    2.4450    3.8840 cp        1 B10      0.195000
     21 C26        -3.4680    0.6850    0.5820 ca        1 B10     -0.276000
     22 C27        -4.2690   -0.4270    0.7710 ca        1 B10     -0.012000
     23 C28        -4.8900   -0.6510    2.0140 ca        1 B10     -0.132000
     24 C29        -4.7490    0.2710    3.0290 ca        1 B10     -0.040000
     25 C30        -2.9620    3.4930    3.7340 ca        1 B10     -0.178000
     26 C8         -2.2560    3.6740    2.5590 ca        1 B10     -0.012000
     27 C11        -4.7340    2.4240    5.0500 cp        1 B10     -0.288300
     28 C1         -4.2450    2.7930    6.3250 ca        1 B10     -0.048000
     29 C33        -5.1070    2.8070    7.4100 ca        1 B10     -0.220300
     30 C7         -6.4740    2.4710    7.2190 ca        1 B10      0.502600
     31 N3         -6.9620    2.1390    5.9950 nb        1 B10     -0.657000
     32 C9         -6.1200    2.1180    4.9570 ca        1 B10      0.462200
     33 N2          3.1240   -1.9200   -1.3040 nh        1 B10     -0.870200
     34 S1          5.4150   -3.2060   -1.2960 s4        1 B10      1.667500
     35 O6          5.4310   -2.8230   -2.5840 o         1 B10     -0.391400
     36 O7          5.8160   -2.4330   -0.2710 o         1 B10     -0.391400
     37 C23         4.9970   -4.6990   -0.9750 c3        1 B10     -0.605800
     38 C3         -7.4200    2.4410    8.4090 c3        1 B10      0.099500
     39 N5         -7.2220    3.5850    9.2830 n3        1 B10     -0.745600
     40 C31        -7.4580    3.2590   10.6880 c3        1 B10      0.128300
     41 C20        -7.9870    4.7530    8.8540 c3        1 B10      0.128300
     42 C21        -7.3220    4.4840   11.6010 c3        1 B10      0.125900
     43 C32        -7.8330    5.9380    9.8150 c3        1 B10      0.125900
     44 O2         -8.1320    5.5620   11.1520 os        1 B10     -0.394600
     45 HN1        -1.0060    0.2800    0.2630 hn        1 B10      0.507800
     46 H10         1.6430    1.8420    2.2310 ha        1 B10      0.174000
     47 H19         4.6910   -0.6840    0.5130 ha        1 B10      0.196000
     48 H13         1.4190   -0.0660   -2.9090 h1        1 B10      0.075700
     49 H13A        0.9210   -1.8450   -2.9780 h1        1 B10      0.075700
     50 H13B       -0.3520   -0.5350   -3.0820 h1        1 B10      0.075700
     51 H15         3.3650    3.1030    2.7950 hc        1 B10      0.055811
     52 H15A        2.9590    1.7860    3.9950 hc        1 B10      0.055811
     53 H15B        4.5830    2.5790    4.0220 hc        1 B10      0.055811
     54 H16         4.0730   -0.4760    3.8050 hc        1 B10      0.055811
     55 H16A        5.6480    0.4120    3.9310 hc        1 B10      0.055811
     56 H16B        5.3740   -0.7380    2.5610 hc        1 B10      0.055811
     57 H17         6.2190    2.2200    2.2760 hc        1 B10      0.055811
     58 H17A        5.9270    1.0720    0.9080 hc        1 B10      0.055811
     59 H17B        5.0490    2.6620    0.9650 hc        1 B10      0.055811
     60 HN4        -2.5660    2.9420   -0.5470 hn        1 B10      0.506300
     61 H26        -3.0500    0.8480   -0.4230 ha        1 B10      0.102000
     62 H27        -4.4300   -1.1460   -0.0520 ha        1 B10      0.172000
     63 H28        -5.5020   -1.5590    2.1620 ha        1 B10      0.189000
     64 H29        -5.2270    0.0820    4.0100 ha        1 B10      0.187000
     65 H30        -2.8400    4.2260    4.5540 ha        1 B10      0.194000
     66 H8         -1.5890    4.5510    2.4700 ha        1 B10      0.162000
     67 H1         -3.1820    3.0430    6.4600 ha        1 B10      0.144000
     68 H33        -4.7480    3.0840    8.4160 ha        1 B10      0.194000
     69 H9         -6.5860    1.8880    3.9790 h4        1 B10      0.034100
     70 HN2         2.3720   -2.5900   -1.3790 hn        1 B10      0.400300
     71 H23         4.3840   -4.8720   -0.0340 h1        1 B10      0.225700
     72 H23A        4.4140   -5.2490   -1.7810 h1        1 B10      0.225700
     73 H23B        5.8620   -5.4280   -0.7970 h1        1 B10      0.225700
     74 H3         -7.1800    1.4870    8.9680 h1        1 B10      0.081200
     75 H3A        -8.4880    2.3600    8.0460 h1        1 B10      0.081200
     76 H31        -6.6930    2.4950   10.9990 h1        1 B10      0.047700
     77 H31A       -8.4830    2.8130   10.8390 h1        1 B10      0.047700
     78 H20        -7.6080    5.0570    7.8390 h1        1 B10      0.047700
     79 H20A       -9.0870    4.5140    8.7580 h1        1 B10      0.047700
     80 H21        -6.2520    4.8150   11.6640 h1        1 B10      0.063450
     81 H21A       -7.7150    4.2450   12.6240 h1        1 B10      0.063450
     82 H32        -6.7950    6.3600    9.7620 h1        1 B10      0.063450
     83 H32A       -8.5870    6.7320    9.5710 h1        1 B10      0.063450
     84 H12        -0.6390    1.1950    1.6290 hn        1 B10      0.507800
     85 H42        -1.5700    4.0970    0.1710 hn        1 B10      0.506300
     86 H22         3.2760   -1.5160   -2.2210 hn        1 B10      0.400300
@<TRIPOS>BOND
     1    1    2 1   
     2    1   14 1   
     3    1   45 1   
     4    1   84 1   
     5    2    3 ar  
     6    2    5 ar  
     7    3    4 ar  
     8    3   46 1   
     9    4    7 ar  
    10    4   10 1   
    11    5    6 ar  
    12    5    8 1   
    13    6    7 ar  
    14    6   33 1   
    15    7   47 1   
    16    8    9 1   
    17    9   48 1   
    18    9   49 1   
    19    9   50 1   
    20   10   11 1   
    21   10   12 1   
    22   10   13 1   
    23   11   51 1   
    24   11   52 1   
    25   11   53 1   
    26   12   54 1   
    27   12   55 1   
    28   12   56 1   
    29   13   57 1   
    30   13   58 1   
    31   13   59 1   
    32   14   15 2   
    33   14   16 1   
    34   16   17 1   
    35   16   60 1   
    36   16   85 1   
    37   17   18 ar  
    38   17   26 ar  
    39   18   19 ar  
    40   18   21 ar  
    41   19   20 ar  
    42   19   24 ar  
    43   20   25 ar  
    44   20   27 1   
    45   21   22 ar  
    46   21   61 1   
    47   22   23 ar  
    48   22   62 1   
    49   23   24 ar  
    50   23   63 1   
    51   24   64 1   
    52   25   26 ar  
    53   25   65 1   
    54   26   66 1   
    55   27   28 ar  
    56   27   32 ar  
    57   28   29 ar  
    58   28   67 1   
    59   29   30 ar  
    60   29   68 1   
    61   30   31 ar  
    62   30   38 1   
    63   31   32 ar  
    64   32   69 1   
    65   33   70 1   
    66   33   86 1   
    67   34   35 1   
    68   34   36 1   
    69   34   37 1   
    70   37   71 1   
    71   37   72 1   
    72   37   73 1   
    73   38   39 1   
    74   38   74 1   
    75   38   75 1   
    76   39   40 1   
    77   39   41 1   
    78   40   42 1   
    79   40   76 1   
    80   40   77 1   
    81   41   43 1   
    82   41   78 1   
    83   41   79 1   
    84   42   44 1   
    85   42   80 1   
    86   42   81 1   
    87   43   44 1   
    88   43   82 1   
    89   43   83 1   
@<TRIPOS>SUBSTRUCTURE
     1 B10         1 TEMP              0 ****  ****    0 ROOT
