@<TRIPOS>MOLECULE
B10
   83    87     1     0     0
SMALL
bcc


@<TRIPOS>ATOM
      1 N1          0.1950   -0.3110    0.4870 ns        1 B10     -0.464100
      2 C2          1.5850   -0.2020    0.2960 ca        1 B10      0.091600
      3 C10         2.4940   -0.1630    1.3720 ca        1 B10     -0.157000
      4 C12         3.8690   -0.1310    1.1400 ca        1 B10     -0.006300
      5 C55         2.0930   -0.2070   -1.0280 ca        1 B10     -0.020900
      6 C18         3.4900   -0.2170   -1.2720 ca        1 B10      0.190600
      7 C19         4.3630   -0.1630   -0.1680 ca        1 B10     -0.209000
      8 O3          1.2120   -0.3100   -2.1030 os        1 B10     -0.353900
      9 C13         0.7930    0.9590   -2.6100 c3        1 B10      0.104700
     10 C14         4.8610   -0.0610    2.2760 c3        1 B10     -0.011700
     11 C15         4.1850   -0.0440    3.6420 c3        1 B10     -0.089100
     12 C16         5.7840   -1.2760    2.2180 c3        1 B10     -0.089100
     13 C17         5.6920    1.2120    2.1400 c3        1 B10     -0.089100
     14 C24        -0.4910    0.3120    1.5540 c         1 B10      0.770100
     15 O1          0.1160    0.8580    2.5000 o         1 B10     -0.606100
     16 N4         -1.9020    0.2910    1.4920 ns        1 B10     -0.468100
     17 C25        -2.7080    0.6660    2.5860 ca        1 B10      0.067600
     18 C4         -3.9030   -0.0850    2.8920 ca        1 B10     -0.054000
     19 C5         -4.7740    0.3900    3.9100 ca        1 B10     -0.007000
     20 C6         -4.4440    1.5750    4.6360 cp        1 B10     -0.046000
     21 C26        -4.2420   -1.2950    2.2230 ca        1 B10     -0.130000
     22 C27        -5.3880   -1.9850    2.5320 ca        1 B10     -0.122000
     23 C28        -6.2590   -1.5050    3.5370 ca        1 B10     -0.125000
     24 C29        -5.9530   -0.3500    4.2100 ca        1 B10     -0.117000
     25 C30        -3.2640    2.2340    4.3590 ca        1 B10     -0.094000
     26 C8         -2.4010    1.7950    3.3390 ca        1 B10     -0.133000
     27 C11        -5.3270    2.1030    5.6740 cp        1 B10     -0.152300
     28 C1         -4.8700    2.2860    6.9860 ca        1 B10     -0.088000
     29 C33        -5.7380    2.8180    7.9400 ca        1 B10     -0.222300
     30 C7         -7.0500    3.1630    7.5550 ca        1 B10      0.400600
     31 N3         -7.5020    3.0060    6.2870 nb        1 B10     -0.666000
     32 C9         -6.6560    2.4870    5.3830 ca        1 B10      0.402200
     33 N2          3.9690   -0.2790   -2.5870 nu        1 B10     -0.773500
     34 S1          5.4830   -0.5950   -3.1050 s6        1 B10      1.470900
     35 O6          5.4790   -0.4590   -4.5080 o         1 B10     -0.648300
     36 O7          6.4490    0.1410   -2.3980 o         1 B10     -0.648300
     37 C23         5.6940   -2.2350   -2.7190 c3        1 B10     -0.373300
     38 C3         -7.9960    3.7030    8.6100 c3        1 B10      0.116500
     39 N5         -7.5700    5.0000    9.1210 n3        1 B10     -0.725600
     40 C31        -8.2940    5.3620   10.3350 c3        1 B10      0.130300
     41 C20        -7.6460    6.0520    8.1140 c3        1 B10      0.130300
     42 C21        -7.9070    6.7530   10.8500 c3        1 B10      0.126900
     43 C32        -7.2710    7.4270    8.6770 c3        1 B10      0.126900
     44 O2         -8.0330    7.7450    9.8380 os        1 B10     -0.415600
     45 HN1        -0.3140   -0.5200   -0.3470 hn        1 B10      0.322500
     46 H10         2.0970   -0.1430    2.4010 ha        1 B10      0.178000
     47 H19         5.4540   -0.1170   -0.3290 ha        1 B10      0.164000
     48 H13         1.6720    1.5580   -2.9500 h1        1 B10      0.044367
     49 H13A        0.1330    0.6960   -3.4740 h1        1 B10      0.044367
     50 H13B        0.2250    1.5220   -1.8310 h1        1 B10      0.044367
     51 H15         4.9620    0.0130    4.4420 hc        1 B10      0.040700
     52 H15A        3.5150    0.8440    3.7400 hc        1 B10      0.040700
     53 H15B        3.5870   -0.9740    3.7990 hc        1 B10      0.040700
     54 H16         6.5090   -1.2400    3.0660 hc        1 B10      0.040700
     55 H16A        5.1890   -2.2170    2.2950 hc        1 B10      0.040700
     56 H16B        6.3600   -1.2910    1.2620 hc        1 B10      0.040700
     57 H17         6.4220    1.2780    2.9820 hc        1 B10      0.040700
     58 H17A        6.2580    1.2170    1.1780 hc        1 B10      0.040700
     59 H17B        5.0290    2.1100    2.1710 hc        1 B10      0.040700
     60 HN4        -2.3340   -0.3160    0.8310 hn        1 B10      0.313500
     61 H26        -3.5770   -1.7170    1.4550 ha        1 B10      0.121000
     62 H27        -5.6360   -2.9210    2.0090 ha        1 B10      0.135000
     63 H28        -7.1730   -2.0700    3.7740 ha        1 B10      0.137000
     64 H29        -6.6180    0.0200    5.0070 ha        1 B10      0.144000
     65 H30        -2.9850    3.1340    4.9310 ha        1 B10      0.142000
     66 H8         -1.4720    2.3600    3.1550 ha        1 B10      0.168000
     67 H1         -3.8400    2.0110    7.2580 ha        1 B10      0.146000
     68 H33        -5.4100    2.9780    8.9760 ha        1 B10      0.154000
     69 H9         -7.0590    2.3750    4.3590 h4        1 B10      0.029100
     70 HN2         3.2380   -0.1860   -3.2640 hn        1 B10      0.464800
     71 H23         5.0140   -2.9160   -3.2870 h1        1 B10      0.119367
     72 H23A        6.7370   -2.5620   -2.9630 h1        1 B10      0.119367
     73 H23B        5.5430   -2.4630   -1.6350 h1        1 B10      0.119367
     74 H3         -9.0510    3.7390    8.2060 h1        1 B10      0.052700
     75 H3A        -7.9840    2.9730    9.4700 h1        1 B10      0.052700
     76 H31        -8.0400    4.6050   11.1280 h1        1 B10      0.044450
     77 H31A       -9.4120    5.3380   10.1760 h1        1 B10      0.044450
     78 H20        -6.9250    5.7890    7.2910 h1        1 B10      0.044450
     79 H20A       -8.6790    6.1200    7.6630 h1        1 B10      0.044450
     80 H21        -8.6200    7.0790   11.6510 h1        1 B10      0.053950
     81 H21A       -6.8570    6.7510   11.2440 h1        1 B10      0.053950
     82 H32        -7.5360    8.2300    7.9410 h1        1 B10      0.053950
     83 H32A       -6.1780    7.4730    8.9230 h1        1 B10      0.053950
@<TRIPOS>BOND
     1    1    2 1   
     2    1   14 1   
     3    1   45 1   
     4    2    3 ar  
     5    2    5 ar  
     6    3    4 ar  
     7    3   46 1   
     8    4    7 ar  
     9    4   10 1   
    10    5    6 ar  
    11    5    8 1   
    12    6    7 ar  
    13    6   33 1   
    14    7   47 1   
    15    8    9 1   
    16    9   48 1   
    17    9   49 1   
    18    9   50 1   
    19   10   11 1   
    20   10   12 1   
    21   10   13 1   
    22   11   51 1   
    23   11   52 1   
    24   11   53 1   
    25   12   54 1   
    26   12   55 1   
    27   12   56 1   
    28   13   57 1   
    29   13   58 1   
    30   13   59 1   
    31   14   15 2   
    32   14   16 1   
    33   16   17 1   
    34   16   60 1   
    35   17   18 ar  
    36   17   26 ar  
    37   18   19 ar  
    38   18   21 ar  
    39   19   20 ar  
    40   19   24 ar  
    41   20   25 ar  
    42   20   27 1   
    43   21   22 ar  
    44   21   61 1   
    45   22   23 ar  
    46   22   62 1   
    47   23   24 ar  
    48   23   63 1   
    49   24   64 1   
    50   25   26 ar  
    51   25   65 1   
    52   26   66 1   
    53   27   28 ar  
    54   27   32 ar  
    55   28   29 ar  
    56   28   67 1   
    57   29   30 ar  
    58   29   68 1   
    59   30   31 ar  
    60   30   38 1   
    61   31   32 ar  
    62   32   69 1   
    63   33   34 1   
    64   33   70 1   
    65   34   35 2   
    66   34   36 2   
    67   34   37 1   
    68   37   71 1   
    69   37   72 1   
    70   37   73 1   
    71   38   39 1   
    72   38   74 1   
    73   38   75 1   
    74   39   40 1   
    75   39   41 1   
    76   40   42 1   
    77   40   76 1   
    78   40   77 1   
    79   41   43 1   
    80   41   78 1   
    81   41   79 1   
    82   42   44 1   
    83   42   80 1   
    84   42   81 1   
    85   43   44 1   
    86   43   82 1   
    87   43   83 1   
@<TRIPOS>SUBSTRUCTURE
     1 B10         1 TEMP              0 ****  ****    0 ROOT
