@<TRIPOS>MOLECULE
B10
   83    76     1     0     0
SMALL
bcc


@<TRIPOS>ATOM
      1 N1          1.4480   -1.0040   -3.3240 n         1 B10     -0.308000
      2 C2          2.8280   -1.4330   -3.3040 c2        1 B10      0.099000
      3 C10         3.8320   -0.5940   -3.7900 c2        1 B10     -0.166000
      4 C12         5.1740   -0.9900   -3.7100 c1        1 B10      0.004000
      5 C55         3.1600   -2.6570   -2.7430 c1        1 B10     -0.068000
      6 C18         4.4980   -3.0520   -2.6640 c1        1 B10      0.110000
      7 C19         5.5030   -2.2140   -3.1500 c1        1 B10     -0.209000
      8 O3          2.1520   -3.4830   -2.2090 os        1 B10     -0.236000
      9 C13         2.0340   -4.7260   -2.8510 c3        1 B10     -0.087000
     10 C14         6.2780   -0.0930   -4.2930 c3        1 B10     -0.020000
     11 C15         7.6580   -0.7170   -3.9890 c3        1 B10     -0.207000
     12 C16         6.0930    0.0240   -5.8340 c3        1 B10     -0.207000
     13 C17         6.1950    1.2990   -3.6580 c3        1 B10     -0.207000
     14 C24         0.5680   -1.3120   -2.1890 c2        1 B10      0.409000
     15 O1          1.0070   -1.9340   -1.2220 o         1 B10     -0.369000
     16 N4         -0.7900   -0.8020   -2.1650 n         1 B10     -0.340000
     17 C25        -1.6160   -1.0230   -1.0120 c2        1 B10      0.092000
     18 C4         -2.8180   -1.6020   -0.4920 c2        1 B10     -0.055000
     19 C5         -3.6020   -0.8870    0.3530 c1        1 B10     -0.005000
     20 C6         -3.2220    0.4770    0.7330 c1        1 B10     -0.068000
     21 C26        -3.2180   -2.8990   -0.8950 c1        1 B10     -0.126000
     22 C27        -4.4010   -3.4280   -0.4290 c1        1 B10     -0.123500
     23 C28        -5.1960   -2.6950    0.4310 c1        1 B10     -0.123500
     24 C29        -4.8080   -1.4330    0.8250 c1        1 B10     -0.119000
     25 C30        -2.0730    1.0330    0.2370 c1        1 B10     -0.077000
     26 C8         -1.2510    0.2930   -0.6430 c1        1 B10     -0.147000
     27 C11        -3.8190    1.2520    1.7710 c1        1 B10     -0.068000
     28 C1         -3.3310    1.1750    3.0560 c1        1 B10     -0.123500
     29 C33        -3.9320    1.8850    4.0610 c1        1 B10     -0.123500
     30 C7         -5.0420    2.6880    3.7840 c1        1 B10     -0.022000
     31 N3         -5.5350    2.7670    2.4920 n1        1 B10     -0.140000
     32 C9         -4.9380    2.0610    1.4910 c1        1 B10     -0.077000
     33 N2          4.8360   -4.3710   -2.1420 n3        1 B10     -0.823000
     34 S1          5.4400   -4.5180   -0.6340 s4        1 B10      2.042800
     35 O6          6.5550   -3.6280   -0.4290 o         1 B10     -0.535400
     36 O7          4.4860   -4.0200    0.3740 o         1 B10     -0.535400
     37 C23         5.8990   -6.2200   -0.3090 c2        1 B10     -0.953000
     38 C3         -5.8010    3.3290    4.9220 c3        1 B10     -0.026000
     39 N5         -5.2760    4.6380    5.1730 n3        1 B10     -0.251000
     40 C31        -4.8510    4.7230    6.5340 c3        1 B10     -0.106500
     41 C20        -6.2630    5.6160    4.8450 c3        1 B10     -0.106500
     42 C21        -4.4260    6.1430    6.9260 c3        1 B10     -0.023500
     43 C32        -5.8350    7.0200    5.2320 c3        1 B10     -0.023500
     44 O2         -5.4010    7.1030    6.6040 os        1 B10     -0.272000
     45 HN1         1.1420   -0.4860   -4.0090 hn        1 B10      0.228000
     46 H10         3.5950    0.2850   -4.1920 ha        1 B10      0.181000
     47 H19         6.4680   -2.4980   -3.0930 ha        1 B10      0.165000
     48 H13         1.1060   -4.9140   -3.0190 h1        1 B10      0.083667
     49 H13A        2.4130   -5.4330   -2.2730 h1        1 B10      0.083667
     50 H13B        2.5080   -4.7030   -3.6750 h1        1 B10      0.083667
     51 H15         8.3540   -0.0950   -4.2410 hc        1 B10      0.080000
     52 H15A        7.7260   -0.9130   -3.0260 hc        1 B10      0.080000
     53 H15B        7.7580   -1.5280   -4.4870 hc        1 B10      0.080000
     54 H16         5.9830   -0.8670   -6.2160 hc        1 B10      0.080000
     55 H16A        6.9120    0.4680   -6.2420 hc        1 B10      0.080000
     56 H16B        5.3030    0.5600   -6.0260 hc        1 B10      0.080000
     57 H17         6.8510    1.8870   -4.0750 hc        1 B10      0.080000
     58 H17A        6.3840    1.2290   -2.6940 hc        1 B10      0.080000
     59 H17B        5.3140    1.6590   -3.7870 hc        1 B10      0.080000
     60 HN4        -1.1480   -0.3960   -2.9230 hn        1 B10      0.235000
     61 H26        -2.6420   -3.4300   -1.5180 ha        1 B10      0.122000
     62 H27        -4.6720   -4.3010   -0.6990 ha        1 B10      0.142750
     63 H28        -6.0300   -3.0700    0.7580 ha        1 B10      0.142750
     64 H29        -5.3630   -0.9260    1.4220 ha        1 B10      0.144000
     65 H30        -1.8190    1.9500    0.4940 ha        1 B10      0.154000
     66 H8         -0.4310    0.6910   -0.9960 ha        1 B10      0.168000
     67 H1         -2.5300    0.5960    3.2570 ha        1 B10      0.142750
     68 H33        -3.5820    1.8290    4.9810 ha        1 B10      0.142750
     69 H9         -5.2960    2.1180    0.5490 ha        1 B10      0.154000
     70 HN2         4.7730   -5.0900   -2.6710 hn        1 B10      0.260000
     71 H23         6.6800   -6.2400    0.2510 ha        1 B10      0.159333
     72 H23A        6.0960   -6.6820   -1.1710 ha        1 B10      0.159333
     73 H23B        5.1630   -6.6740    0.1430 ha        1 B10      0.159333
     74 H3         -5.7090    2.8000    5.6960 h1        1 B10      0.092000
     75 H3A        -6.7700    3.3980    4.6790 h1        1 B10      0.092000
     76 H31        -4.0640    4.0950    6.6710 h1        1 B10      0.083750
     77 H31A       -5.6120    4.4300    7.1340 h1        1 B10      0.083750
     78 H20        -6.4330    5.5900    3.8480 h1        1 B10      0.083750
     79 H20A       -7.0750    5.4040    5.3030 h1        1 B10      0.083750
     80 H21        -4.2650    6.1690    7.8800 h1        1 B10      0.093000
     81 H21A       -3.6100    6.3620    6.4670 h1        1 B10      0.093000
     82 H32        -6.5960    7.6330    5.1010 h1        1 B10      0.093000
     83 H32A       -5.0810    7.3060    4.6350 h1        1 B10      0.093000
@<TRIPOS>BOND
     1    1    2 1   
     2    1   14 1   
     3    1   45 1   
     4    2    3 1   
     5    2    5 1   
     6    3    4 1   
     7    3   46 1   
     8    4   10 1   
     9    5    8 1   
    10    6    7 1   
    11    6   33 1   
    12    7   47 1   
    13    8    9 1   
    14    9   48 1   
    15    9   49 1   
    16    9   50 1   
    17   10   11 1   
    18   10   12 1   
    19   10   13 1   
    20   11   51 1   
    21   11   52 1   
    22   11   53 1   
    23   12   54 1   
    24   12   55 1   
    25   12   56 1   
    26   13   57 1   
    27   13   58 1   
    28   13   59 1   
    29   14   15 1   
    30   14   16 1   
    31   16   17 1   
    32   16   60 1   
    33   17   18 1   
    34   17   26 1   
    35   18   19 1   
    36   18   21 1   
    37   19   24 1   
    38   20   25 1   
    39   21   61 1   
    40   22   23 1   
    41   22   62 1   
    42   23   63 1   
    43   24   64 1   
    44   25   65 1   
    45   26   66 1   
    46   27   32 1   
    47   28   29 1   
    48   28   67 1   
    49   29   68 1   
    50   30   31 1   
    51   30   38 1   
    52   32   69 1   
    53   33   34 1   
    54   33   70 1   
    55   34   35 1   
    56   34   36 1   
    57   37   71 1   
    58   37   72 1   
    59   37   73 1   
    60   38   39 1   
    61   38   74 1   
    62   38   75 1   
    63   39   40 1   
    64   39   41 1   
    65   40   42 1   
    66   40   76 1   
    67   40   77 1   
    68   41   43 1   
    69   41   78 1   
    70   41   79 1   
    71   42   44 1   
    72   42   80 1   
    73   42   81 1   
    74   43   44 1   
    75   43   82 1   
    76   43   83 1   
@<TRIPOS>SUBSTRUCTURE
     1 B10         1 TEMP              0 ****  ****    0 ROOT
