@<TRIPOS>MOLECULE
B10
   83    87     1     0     0
SMALL
bcc


@<TRIPOS>ATOM
      1 N1          0.2030   -0.3120    0.4930 n         1 B10     -0.464100
      2 C2          1.5920   -0.1970    0.3010 ca        1 B10      0.091600
      3 C10         2.5010   -0.1480    1.3750 ca        1 B10     -0.157000
      4 C12         3.8770   -0.1110    1.1430 ca        1 B10     -0.006300
      5 C55         2.1000   -0.2070   -1.0240 ca        1 B10     -0.020900
      6 C18         3.4960   -0.2130   -1.2680 ca        1 B10      0.190600
      7 C19         4.3700   -0.1480   -0.1650 ca        1 B10     -0.209000
      8 O3          1.2190   -0.3210   -2.0980 os        1 B10     -0.353900
      9 C13         0.7940    0.9440   -2.6120 c3        1 B10      0.104700
     10 C14         4.8680   -0.0310    2.2790 c3        1 B10     -0.011700
     11 C15         4.1930   -0.0090    3.6440 c3        1 B10     -0.089100
     12 C16         5.7960   -1.2420    2.2260 c3        1 B10     -0.089100
     13 C17         5.6940    1.2460    2.1350 c3        1 B10     -0.089100
     14 C24        -0.4850    0.3140    1.5570 c         1 B10      0.770100
     15 O1          0.1200    0.8680    2.4990 o         1 B10     -0.606100
     16 N4         -1.8970    0.2840    1.4960 n         1 B10     -0.468100
     17 C25        -2.7030    0.6590    2.5900 ca        1 B10      0.067600
     18 C4         -3.8930   -0.0990    2.9020 ca        1 B10     -0.054000
     19 C5         -4.7650    0.3750    3.9200 ca        1 B10     -0.007000
     20 C6         -4.4420    1.5660    4.6380 cp        1 B10     -0.046000
     21 C26        -4.2240   -1.3150    2.2400 ca        1 B10     -0.130000
     22 C27        -5.3650   -2.0120    2.5550 ca        1 B10     -0.122000
     23 C28        -6.2370   -1.5330    3.5580 ca        1 B10     -0.125000
     24 C29        -5.9380   -0.3720    4.2250 ca        1 B10     -0.117000
     25 C30        -3.2670    2.2320    4.3560 ca        1 B10     -0.094000
     26 C8         -2.4030    1.7930    3.3370 ca        1 B10     -0.133000
     27 C11        -5.3270    2.0940    5.6740 cp        1 B10     -0.152300
     28 C1         -4.8700    2.2880    6.9850 ca        1 B10     -0.088000
     29 C33        -5.7400    2.8190    7.9360 ca        1 B10     -0.222300
     30 C7         -7.0560    3.1520    7.5520 ca        1 B10      0.400600
     31 N3         -7.5090    2.9830    6.2850 nb        1 B10     -0.666000
     32 C9         -6.6600    2.4660    5.3830 ca        1 B10      0.402200
     33 N2          3.9760   -0.2810   -2.5830 nh        1 B10     -0.773500
     34 S1          5.4910   -0.5940   -3.0990 s6        1 B10      1.470900
     35 O6          5.4850   -0.4680   -4.5030 o         1 B10     -0.648300
     36 O7          6.4540    0.1500   -2.3970 o         1 B10     -0.648300
     37 C23         5.7080   -2.2300   -2.7030 c3        1 B10     -0.373300
     38 C3         -8.0050    3.6900    8.6050 c3        1 B10      0.116500
     39 N5         -7.5880    4.9940    9.1080 n3        1 B10     -0.725600
     40 C31        -8.3140    5.3570   10.3200 c3        1 B10      0.130300
     41 C20        -7.6750    6.0390    8.0930 c3        1 B10      0.130300
     42 C21        -7.9390    6.7560   10.8250 c3        1 B10      0.126900
     43 C32        -7.3120    7.4200    8.6470 c3        1 B10      0.126900
     44 O2         -8.0740    7.7390    9.8060 os        1 B10     -0.415600
     45 HN1        -0.3050   -0.5270   -0.3400 hn        1 B10      0.323500
     46 H10         2.1050   -0.1240    2.4050 ha        1 B10      0.178000
     47 H19         5.4610   -0.0980   -0.3270 ha        1 B10      0.164000
     48 H13         0.2240    1.5080   -1.8360 h1        1 B10      0.044367
     49 H13A        1.6700    1.5440   -2.9560 h1        1 B10      0.044367
     50 H13B        0.1340    0.6730   -3.4740 h1        1 B10      0.044367
     51 H15         3.5190    0.8760    3.7370 hc        1 B10      0.040700
     52 H15A        4.9700    0.0560    4.4440 hc        1 B10      0.040700
     53 H15B        3.5990   -0.9400    3.8060 hc        1 B10      0.040700
     54 H16         6.5220   -1.1980    3.0740 hc        1 B10      0.040700
     55 H16A        6.3720   -1.2600    1.2700 hc        1 B10      0.040700
     56 H16B        5.2070   -2.1850    2.3090 hc        1 B10      0.040700
     57 H17         6.4240    1.3190    2.9760 hc        1 B10      0.040700
     58 H17A        5.0270    2.1410    2.1610 hc        1 B10      0.040700
     59 H17B        6.2590    1.2480    1.1730 hc        1 B10      0.040700
     60 HN4        -2.3250   -0.3290    0.8390 hn        1 B10      0.313500
     61 H26        -3.5580   -1.7360    1.4730 ha        1 B10      0.121000
     62 H27        -5.6070   -2.9520    2.0370 ha        1 B10      0.135000
     63 H28        -7.1460   -2.1030    3.8000 ha        1 B10      0.137000
     64 H29        -6.6050   -0.0020    5.0210 ha        1 B10      0.144000
     65 H30        -2.9940    3.1370    4.9220 ha        1 B10      0.142000
     66 H8         -1.4780    2.3640    3.1480 ha        1 B10      0.168000
     67 H1         -3.8370    2.0230    7.2560 ha        1 B10      0.146000
     68 H33        -5.4120    2.9880    8.9720 ha        1 B10      0.154000
     69 H9         -7.0630    2.3460    4.3610 h4        1 B10      0.029100
     70 HN2         3.2440   -0.1940   -3.2600 hn        1 B10      0.464800
     71 H23         5.0310   -2.9180   -3.2670 h1        1 B10      0.119367
     72 H23A        6.7530   -2.5550   -2.9450 h1        1 B10      0.119367
     73 H23B        5.5590   -2.4530   -1.6180 h1        1 B10      0.119367
     74 H3         -7.9850    2.9650    9.4700 h1        1 B10      0.052700
     75 H3A        -9.0600    3.7140    8.2030 h1        1 B10      0.052700
     76 H31        -9.4320    5.3230   10.1620 h1        1 B10      0.044450
     77 H31A       -8.0530    4.6080   11.1180 h1        1 B10      0.044450
     78 H20        -8.7090    6.0950    7.6430 h1        1 B10      0.044450
     79 H20A       -6.9530    5.7770    7.2710 h1        1 B10      0.044450
     80 H21        -6.8880    6.7650   11.2180 h1        1 B10      0.053950
     81 H21A       -8.6540    7.0800   11.6250 h1        1 B10      0.053950
     82 H32        -6.2180    7.4770    8.8910 h1        1 B10      0.053950
     83 H32A       -7.5850    8.2170    7.9070 h1        1 B10      0.053950
@<TRIPOS>BOND
     1    1    2 1   
     2    1   14 1   
     3    1   45 1   
     4    2    3 ar  
     5    2    5 ar  
     6    3    4 ar  
     7    3   46 1   
     8    4    7 ar  
     9    4   10 1   
    10    5    6 ar  
    11    5    8 1   
    12    6    7 ar  
    13    6   33 1   
    14    7   47 1   
    15    8    9 1   
    16    9   48 1   
    17    9   49 1   
    18    9   50 1   
    19   10   11 1   
    20   10   12 1   
    21   10   13 1   
    22   11   51 1   
    23   11   52 1   
    24   11   53 1   
    25   12   54 1   
    26   12   55 1   
    27   12   56 1   
    28   13   57 1   
    29   13   58 1   
    30   13   59 1   
    31   14   15 2   
    32   14   16 1   
    33   16   17 1   
    34   16   60 1   
    35   17   18 ar  
    36   17   26 ar  
    37   18   19 ar  
    38   18   21 ar  
    39   19   20 ar  
    40   19   24 ar  
    41   20   25 ar  
    42   20   27 1   
    43   21   22 ar  
    44   21   61 1   
    45   22   23 ar  
    46   22   62 1   
    47   23   24 ar  
    48   23   63 1   
    49   24   64 1   
    50   25   26 ar  
    51   25   65 1   
    52   26   66 1   
    53   27   28 ar  
    54   27   32 ar  
    55   28   29 ar  
    56   28   67 1   
    57   29   30 ar  
    58   29   68 1   
    59   30   31 ar  
    60   30   38 1   
    61   31   32 ar  
    62   32   69 1   
    63   33   34 1   
    64   33   70 1   
    65   34   35 2   
    66   34   36 2   
    67   34   37 1   
    68   37   71 1   
    69   37   72 1   
    70   37   73 1   
    71   38   39 1   
    72   38   74 1   
    73   38   75 1   
    74   39   40 1   
    75   39   41 1   
    76   40   42 1   
    77   40   76 1   
    78   40   77 1   
    79   41   43 1   
    80   41   78 1   
    81   41   79 1   
    82   42   44 1   
    83   42   80 1   
    84   42   81 1   
    85   43   44 1   
    86   43   82 1   
    87   43   83 1   
@<TRIPOS>SUBSTRUCTURE
     1 B10         1 TEMP              0 ****  ****    0 ROOT
