@<TRIPOS>MOLECULE
B11
   59    62     1     0     0
SMALL
bcc


@<TRIPOS>ATOM
      1 C1          6.5920   -1.8770   -0.7090 ca        1 B11     -0.209000
      2 C2          6.5330   -3.0590    0.0260 ca        1 B11     -0.090000
      3 C3          5.6250   -3.1890    1.0750 ca        1 B11     -0.161000
      4 C4          4.7700   -2.1340    1.3970 ca        1 B11     -0.085000
      5 C5          4.8130   -0.9360    0.6820 ca        1 B11     -0.108300
      6 C6          5.7300   -0.8210   -0.3810 ca        1 B11      0.123100
      7 O7          5.7390    0.3710   -1.0740 oh        1 B11     -0.510100
      8 C8          3.9240    0.2120    1.0550 c3        1 B11      0.221100
      9 N9          2.9610    0.5450    0.0210 n3        1 B11     -0.816200
     10 C10         2.2960    1.8270    0.2460 c3        1 B11      0.182500
     11 C11         1.7490    2.4260   -1.0590 c3        1 B11     -0.097900
     12 C12         1.0620    3.7620   -0.7770 c3        1 B11      0.223300
     13 N13         0.0460    3.6980    0.2420 n3        1 B11     -0.811500
     14 C14         0.4580    3.0450    1.4600 c3        1 B11      0.223300
     15 C15         1.1360    1.6920    1.2460 c3        1 B11     -0.097900
     16 S16        -1.4720    4.2350   -0.0040 s6        1 B11      1.568800
     17 N17        -2.2670    3.0040   -0.7540 nh        1 B11     -0.773500
     18 O18        -2.0690    4.5200    1.2480 o         1 B11     -0.640800
     19 O19        -1.4480    5.2950   -0.9510 o         1 B11     -0.640800
     20 C20        -2.7240    1.7920   -0.2200 ca        1 B11      0.196600
     21 C21        -2.9310    0.6890   -1.0770 ca        1 B11     -0.191000
     22 C22        -3.3940   -0.5180   -0.5410 ca        1 B11      0.135100
     23 C23        -3.6440   -0.6680    0.8270 ca        1 B11     -0.202000
     24 C24        -3.4370    0.4260    1.6620 ca        1 B11     -0.073000
     25 C25        -2.9900    1.6450    1.1610 ca        1 B11     -0.207000
     26 O26        -3.6610   -1.5110   -1.4800 os        1 B11     -0.248200
     27 C27        -3.5050   -2.8280   -1.0550 ca        1 B11      0.087100
     28 C28        -4.4490   -3.7440   -1.5430 ca        1 B11     -0.127500
     29 C29        -4.2950   -5.0950   -1.2600 ca        1 B11     -0.146500
     30 C30        -3.2030   -5.5270   -0.4820 ca        1 B11      0.108900
     31 C31        -2.2640   -4.5990    0.0080 ca        1 B11     -0.146500
     32 C32        -2.4160   -3.2480   -0.2820 ca        1 B11     -0.127500
     33 F1         -3.0560   -6.8440   -0.2010 f         1 B11     -0.139900
     34 H1          7.3050   -1.7710   -1.5380 ha        1 B11      0.134000
     35 H2          7.2060   -3.8920   -0.2280 ha        1 B11      0.135000
     36 H3          5.5790   -4.1250    1.6510 ha        1 B11      0.136000
     37 H4          4.0510   -2.2450    2.2230 ha        1 B11      0.138000
     38 HO7         6.4410    0.3230   -1.7390 ho        1 B11      0.423000
     39 H81         3.3390   -0.0480    1.9850 h1        1 B11      0.038200
     40 H82         4.5950    1.0880    1.3120 h1        1 B11      0.038200
     41 HN9         3.4040    0.5420   -0.8800 hn        1 B11      0.374800
     42 H10         3.0230    2.5860    0.6810 h1        1 B11      0.023700
     43 H111        2.5840    2.6110   -1.7830 hc        1 B11      0.057200
     44 H112        1.0310    1.7100   -1.5360 hc        1 B11      0.057200
     45 H121        1.8480    4.5060   -0.4520 h1        1 B11      0.056200
     46 H122        0.5990    4.1500   -1.7310 h1        1 B11      0.056200
     47 H141        1.1770    3.7260    2.0030 h1        1 B11      0.056200
     48 H142       -0.4470    2.9040    2.1190 h1        1 B11      0.056200
     49 H151        0.3970    0.9390    0.8720 hc        1 B11      0.057200
     50 H152        1.5190    1.3350    2.2370 hc        1 B11      0.057200
     51 H17        -2.4300    3.0780   -1.7360 hn        1 B11      0.454800
     52 H21        -2.7520    0.7590   -2.1600 ha        1 B11      0.152000
     53 H23        -4.0020   -1.6280    1.2250 ha        1 B11      0.150000
     54 H24        -3.6410    0.3310    2.7400 ha        1 B11      0.141000
     55 H25        -2.8690    2.4960    1.8530 ha        1 B11      0.169000
     56 H28        -5.2930   -3.3870   -2.1520 ha        1 B11      0.156500
     57 H29        -5.0190   -5.8320   -1.6360 ha        1 B11      0.153000
     58 H31        -1.4150   -4.9500    0.6120 ha        1 B11      0.153000
     59 H32        -1.6900   -2.5100    0.0920 ha        1 B11      0.156500
@<TRIPOS>BOND
     1    1    2 ar  
     2    1    6 ar  
     3    1   34 1   
     4    2    3 ar  
     5    2   35 1   
     6    3    4 ar  
     7    3   36 1   
     8    4    5 ar  
     9    4   37 1   
    10    5    6 ar  
    11    5    8 1   
    12    6    7 1   
    13    7   38 1   
    14    8    9 1   
    15    8   39 1   
    16    8   40 1   
    17    9   10 1   
    18    9   41 1   
    19   10   11 1   
    20   10   15 1   
    21   10   42 1   
    22   11   12 1   
    23   11   43 1   
    24   11   44 1   
    25   12   13 1   
    26   12   45 1   
    27   12   46 1   
    28   13   14 1   
    29   13   16 1   
    30   14   15 1   
    31   14   47 1   
    32   14   48 1   
    33   15   49 1   
    34   15   50 1   
    35   16   17 1   
    36   16   18 2   
    37   16   19 2   
    38   17   20 1   
    39   17   51 1   
    40   20   21 ar  
    41   20   25 ar  
    42   21   22 ar  
    43   21   52 1   
    44   22   23 ar  
    45   22   26 1   
    46   23   24 ar  
    47   23   53 1   
    48   24   25 ar  
    49   24   54 1   
    50   25   55 1   
    51   26   27 1   
    52   27   28 ar  
    53   27   32 ar  
    54   28   29 ar  
    55   28   56 1   
    56   29   30 ar  
    57   29   57 1   
    58   30   31 ar  
    59   30   33 1   
    60   31   32 ar  
    61   31   58 1   
    62   32   59 1   
@<TRIPOS>SUBSTRUCTURE
     1 B11         1 TEMP              0 ****  ****    0 ROOT
