@<TRIPOS>MOLECULE
B11
   59    54     1     0     0
SMALL
bcc


@<TRIPOS>ATOM
      1 C1          0.6880    2.3780   -7.9210 c1        1 B11     -0.209000
      2 C2          0.3890    3.6680   -8.3380 c1        1 B11     -0.131750
      3 C3          0.2070    4.6650   -7.4110 c1        1 B11     -0.131750
      4 C4          0.3200    4.3880   -6.0680 c1        1 B11     -0.084000
      5 C5          0.6210    3.0850   -5.6410 c1        1 B11     -0.115000
      6 C6          0.8020    2.0930   -6.5670 c1        1 B11      0.076000
      7 O7          1.2210    0.8230   -6.1540 oh        1 B11     -0.263000
      8 C8          0.3470    2.7100   -4.2060 c3        1 B11     -0.024000
      9 N9          1.2240    1.5310   -3.7930 n3        1 B11     -0.287000
     10 C10         1.1070    1.3500   -2.3210 c3        1 B11     -0.021000
     11 C11         0.5320    0.0010   -2.0220 c3        1 B11     -0.182000
     12 C12         0.5200   -0.3060   -0.5110 c3        1 B11     -0.013000
     13 N13         1.8460   -0.0950    0.1240 n3        1 B11     -0.840000
     14 C14         2.4180    1.2390   -0.1840 c3        1 B11     -0.013000
     15 C15         2.4340    1.5480   -1.6910 c3        1 B11     -0.182000
     16 S16         2.1450   -0.7850    1.7190 s4        1 B11      2.020800
     17 N17         1.7410   -2.2950    1.7550 n2        1 B11     -0.821000
     18 O18         3.5040   -0.6070    2.1100 o         1 B11     -0.530400
     19 O19         1.4480   -0.0320    2.7550 o         1 B11     -0.530400
     20 C20         1.1130   -2.8470    2.9640 c2        1 B11      0.116000
     21 C21        -0.2470   -3.0740    2.9700 c2        1 B11     -0.193000
     22 C22        -0.9230   -3.2790    4.1860 c1        1 B11      0.090000
     23 C23        -0.2160   -3.2540    5.3920 c1        1 B11     -0.131750
     24 C24         1.1470   -3.0270    5.3920 c1        1 B11     -0.131750
     25 C25         1.8230   -2.8220    4.1850 c1        1 B11     -0.206000
     26 O26        -2.3150   -3.5610    4.1840 os        1 B11     -0.158000
     27 C27        -2.9940   -2.6300    5.0320 c2        1 B11      0.042000
     28 C28        -3.5760   -1.4810    4.4750 c2        1 B11     -0.143000
     29 C29        -4.4260   -0.6900    5.2400 c1        1 B11     -0.145000
     30 C30        -4.6990   -1.0350    6.5580 c1        1 B11      0.075000
     31 C31        -4.1210   -2.1790    7.1160 c1        1 B11     -0.147000
     32 C32        -3.2690   -2.9750    6.3510 c1        1 B11     -0.113000
     33 F1         -5.5810   -0.3200    7.2640 f         1 B11     -0.104000
     34 H1          0.8190    1.6640   -8.5870 ha        1 B11      0.135000
     35 H2          0.3060    3.8700   -9.2970 ha        1 B11      0.140750
     36 H3         -0.0080    5.5940   -7.7130 ha        1 B11      0.140750
     37 H4          0.1880    5.1020   -5.4090 ha        1 B11      0.140000
     38 HO7         0.5720    0.2340   -6.3060 ho        1 B11      0.222000
     39 H81         0.5390    3.4780   -3.6290 h1        1 B11      0.083500
     40 H82        -0.5860    2.4610   -4.1110 h1        1 B11      0.083500
     41 HN9         0.9320    0.7750   -4.2140 hn        1 B11      0.163000
     42 H10         0.5110    2.0120   -1.9820 h1        1 B11      0.092000
     43 H111       -0.3920   -0.0320   -2.3580 hc        1 B11      0.099000
     44 H112        1.0620   -0.6790   -2.4830 hc        1 B11      0.099000
     45 H121        0.2570   -1.2320   -0.3830 h1        1 B11      0.091000
     46 H122       -0.1430    0.2770   -0.0750 h1        1 B11      0.091000
     47 H141        3.3550    1.2780    0.1640 h1        1 B11      0.091000
     48 H142        1.8960    1.9060    0.2580 h1        1 B11      0.091000
     49 H151        3.0880    0.9500   -2.1350 hc        1 B11      0.099000
     50 H152        2.7150    2.4730   -1.8190 hc        1 B11      0.099000
     51 H17         2.0270   -2.8440    1.1130 hn        1 B11      0.250000
     52 H21        -0.7300   -3.0900    2.1500 ha        1 B11      0.152000
     53 H23        -0.6960   -3.3980    6.2530 ha        1 B11      0.140750
     54 H24         1.6470   -3.0080    6.2510 ha        1 B11      0.140750
     55 H25         2.8040   -2.6600    4.1870 ha        1 B11      0.168000
     56 H28        -3.3870   -1.2400    3.5580 ha        1 B11      0.153000
     57 H29        -4.8260    0.1030    4.8540 ha        1 B11      0.153000
     58 H31        -4.3120   -2.4190    8.0330 ha        1 B11      0.154000
     59 H32        -2.8710   -3.7640    6.7350 ha        1 B11      0.157000
@<TRIPOS>BOND
     1    1    6 1   
     2    1   34 1   
     3    2    3 1   
     4    2   35 1   
     5    3   36 1   
     6    4    5 1   
     7    4   37 1   
     8    5    8 1   
     9    6    7 1   
    10    7   38 1   
    11    8    9 1   
    12    8   39 1   
    13    8   40 1   
    14    9   10 1   
    15    9   41 1   
    16   10   11 1   
    17   10   15 1   
    18   10   42 1   
    19   11   12 1   
    20   11   43 1   
    21   11   44 1   
    22   12   13 1   
    23   12   45 1   
    24   12   46 1   
    25   13   14 1   
    26   13   16 1   
    27   14   15 1   
    28   14   47 1   
    29   14   48 1   
    30   15   49 1   
    31   15   50 1   
    32   16   18 1   
    33   16   19 1   
    34   17   20 1   
    35   17   51 1   
    36   20   21 1   
    37   20   25 1   
    38   21   22 1   
    39   21   52 1   
    40   22   26 1   
    41   23   24 1   
    42   23   53 1   
    43   24   54 1   
    44   25   55 1   
    45   26   27 1   
    46   27   28 1   
    47   27   32 1   
    48   28   29 1   
    49   28   56 1   
    50   29   57 1   
    51   30   31 1   
    52   30   33 1   
    53   31   58 1   
    54   32   59 1   
@<TRIPOS>SUBSTRUCTURE
     1 B11         1 TEMP              0 ****  ****    0 ROOT
