@<TRIPOS>MOLECULE
B11
   60    63     1     0     0
SMALL
bcc


@<TRIPOS>ATOM
      1 C1          1.2840   -1.0430    0.7380 ca        1 B11     -0.191000
      2 C2          2.5790   -0.5870    0.9650 ca        1 B11     -0.048000
      3 C3          2.9480   -0.1040    2.2240 ca        1 B11     -0.152000
      4 C4          2.0200   -0.0650    3.2610 ca        1 B11     -0.066000
      5 C5          0.7070   -0.5030    3.0530 ca        1 B11     -0.203300
      6 C6          0.3530   -1.0040    1.7840 ca        1 B11      0.141100
      7 O7         -0.9370   -1.4690    1.6490 oh        1 B11     -0.545100
      8 C8         -0.3200   -0.3750    4.1220 c3        1 B11      0.190100
      9 N9         -0.8460   -1.7090    4.5520 n4        1 B11     -0.774000
     10 C10        -2.0030   -1.5930    5.5170 c3        1 B11      0.138500
     11 C11        -2.7720   -2.9210    5.5610 c3        1 B11     -0.132400
     12 C12        -3.8130   -2.9210    6.6890 c3        1 B11      0.224300
     13 N13        -3.2620   -2.5430    7.9590 n3        1 B11     -0.798500
     14 C14        -2.6410   -1.2480    7.9380 c3        1 B11      0.224300
     15 C15        -1.5160   -1.1460    6.8990 c3        1 B11     -0.132400
     16 S16        -3.1550   -3.5810    9.2440 s6        1 B11      1.575800
     17 N17        -1.8830   -4.5510    8.8760 nh        1 B11     -0.799500
     18 O18        -2.8590   -2.8130   10.3880 o         1 B11     -0.620300
     19 O19        -4.2960   -4.4090    9.2600 o         1 B11     -0.620300
     20 C20        -0.5750   -4.0900    8.6400 ca        1 B11      0.148600
     21 C21        -0.0080   -4.2200    7.3540 ca        1 B11     -0.184000
     22 C22         1.2220   -3.6110    7.0900 ca        1 B11      0.077100
     23 C23         1.9680   -2.9890    8.0960 ca        1 B11     -0.152000
     24 C24         1.4350   -2.9390    9.3830 ca        1 B11     -0.093000
     25 C25         0.1730   -3.4600    9.6590 ca        1 B11     -0.134000
     26 O26         1.5880   -3.5390    5.7440 os        1 B11     -0.311200
     27 C27         2.8790   -3.9860    5.4430 ca        1 B11      0.065100
     28 C28         3.3660   -5.2050    5.9300 ca        1 B11     -0.123500
     29 C29         4.6160   -5.6520    5.5170 ca        1 B11     -0.143000
     30 C30         5.3700   -4.8760    4.6140 ca        1 B11      0.134900
     31 C31         4.8690   -3.6500    4.1320 ca        1 B11     -0.143000
     32 C32         3.6220   -3.2010    4.5530 ca        1 B11     -0.123500
     33 F1          6.5840   -5.3090    4.2070 f         1 B11     -0.120900
     34 H1          0.9900   -1.4250   -0.2520 ha        1 B11      0.160000
     35 H2          3.3170   -0.6070    0.1460 ha        1 B11      0.163000
     36 H3          3.9760    0.2550    2.3950 ha        1 B11      0.161000
     37 H4          2.3160    0.3280    4.2470 ha        1 B11      0.147000
     38 HO7        -1.1020   -1.6560    0.7100 ho        1 B11      0.457000
     39 H81        -1.1940    0.2240    3.7300 hx        1 B11      0.103700
     40 H82         0.1030    0.1400    5.0320 hx        1 B11      0.103700
     41 HN9        -1.1630   -2.2180    3.7150 hn        1 B11      0.464300
     42 H10        -2.6950   -0.7970    5.1030 hx        1 B11      0.101700
     43 H111       -2.0640   -3.7770    5.7120 hc        1 B11      0.071950
     44 H112       -3.3110   -3.0820    4.5900 hc        1 B11      0.071950
     45 H121       -4.2660   -3.9530    6.7670 h1        1 B11      0.082450
     46 H122       -4.6420   -2.2050    6.4120 h1        1 B11      0.082450
     47 H141       -3.4200   -0.4650    7.7040 h1        1 B11      0.082450
     48 H142       -2.2160   -1.0150    8.9580 h1        1 B11      0.082450
     49 H151       -1.1760   -0.0790    6.8590 hc        1 B11      0.071950
     50 H152       -0.6470   -1.7790    7.2310 hc        1 B11      0.071950
     51 H17        -1.9960   -5.5330    8.7560 hn        1 B11      0.470800
     52 H21        -0.5120   -4.7890    6.5600 ha        1 B11      0.147000
     53 H23         2.9570   -2.5610    7.8730 ha        1 B11      0.161000
     54 H24         2.0170   -2.4720   10.1960 ha        1 B11      0.161000
     55 H25        -0.2480   -3.3690   10.6770 ha        1 B11      0.179000
     56 H28         2.7660   -5.7980    6.6370 ha        1 B11      0.148500
     57 H29         5.0210   -6.6060    5.8860 ha        1 B11      0.164000
     58 H31         5.4720   -3.0560    3.4300 ha        1 B11      0.164000
     59 H32         3.2180   -2.2460    4.1830 ha        1 B11      0.148500
     60 H92        -0.0880   -2.2550    4.9890 hn        1 B11      0.464300
@<TRIPOS>BOND
     1    1    2 ar  
     2    1    6 ar  
     3    1   34 1   
     4    2    3 ar  
     5    2   35 1   
     6    3    4 ar  
     7    3   36 1   
     8    4    5 ar  
     9    4   37 1   
    10    5    6 ar  
    11    5    8 1   
    12    6    7 1   
    13    7   38 1   
    14    8    9 1   
    15    8   39 1   
    16    8   40 1   
    17    9   10 1   
    18    9   41 1   
    19    9   60 1   
    20   10   11 1   
    21   10   15 1   
    22   10   42 1   
    23   11   12 1   
    24   11   43 1   
    25   11   44 1   
    26   12   13 1   
    27   12   45 1   
    28   12   46 1   
    29   13   14 1   
    30   13   16 1   
    31   14   15 1   
    32   14   47 1   
    33   14   48 1   
    34   15   49 1   
    35   15   50 1   
    36   16   17 1   
    37   16   18 2   
    38   16   19 2   
    39   17   20 1   
    40   17   51 1   
    41   20   21 ar  
    42   20   25 ar  
    43   21   22 ar  
    44   21   52 1   
    45   22   23 ar  
    46   22   26 1   
    47   23   24 ar  
    48   23   53 1   
    49   24   25 ar  
    50   24   54 1   
    51   25   55 1   
    52   26   27 1   
    53   27   28 ar  
    54   27   32 ar  
    55   28   29 ar  
    56   28   56 1   
    57   29   30 ar  
    58   29   57 1   
    59   30   31 ar  
    60   30   33 1   
    61   31   32 ar  
    62   31   58 1   
    63   32   59 1   
@<TRIPOS>SUBSTRUCTURE
     1 B11         1 TEMP              0 ****  ****    0 ROOT
