@<TRIPOS>MOLECULE
B11
   61    64     1     0     0
SMALL
bcc


@<TRIPOS>ATOM
      1 C1          0.5240   -0.6670   -0.0030 ca        1 B11     -0.186000
      2 C2          1.8010   -0.1120    0.0130 ca        1 B11     -0.034000
      3 C3          2.3400    0.3920    1.2010 ca        1 B11     -0.141000
      4 C4          1.6010    0.3530    2.3790 ca        1 B11     -0.060000
      5 C5          0.3080   -0.1870    2.3860 ca        1 B11     -0.227300
      6 C6         -0.2170   -0.7060    1.1850 ca        1 B11      0.143100
      7 O7         -1.4720   -1.2730    1.2610 oh        1 B11     -0.561100
      8 C8         -0.5330   -0.1290    3.6090 c3        1 B11      0.199100
      9 N9         -0.9050   -1.5110    4.0810 n4        1 B11     -0.771000
     10 C10        -1.7690   -1.4930    5.3090 c3        1 B11      0.123500
     11 C11        -2.6240   -2.7620    5.4100 c3        1 B11     -0.118400
     12 C12        -3.5130   -2.6900    6.6510 c3        1 B11      0.209800
     13 N13        -2.7920   -2.4300    7.8860 n3        1 B11     -0.830500
     14 C14        -1.8710   -1.3090    7.8060 c3        1 B11      0.209800
     15 C15        -0.9440   -1.3430    6.5910 c3        1 B11     -0.118400
     16 S16        -3.1700   -3.1310    9.2520 s6        1 B11      1.503800
     17 N17        -2.0620   -4.7260    9.2840 n4        1 B11     -0.569300
     18 O18        -2.7080   -2.4700   10.3750 o         1 B11     -0.536800
     19 O19        -4.4000   -3.7700    9.2050 o         1 B11     -0.536800
     20 C20        -0.6410   -4.4880    9.1050 ca        1 B11     -0.027400
     21 C21        -0.1150   -4.4430    7.8010 ca        1 B11     -0.178000
     22 C22         1.2480   -4.1600    7.6370 ca        1 B11      0.138100
     23 C23         2.0980   -4.0100    8.7450 ca        1 B11     -0.126000
     24 C24         1.5630   -4.1040   10.0250 ca        1 B11     -0.065000
     25 C25         0.1980   -4.3320   10.2210 ca        1 B11     -0.114000
     26 O26         1.6440   -3.9740    6.3220 os        1 B11     -0.280200
     27 C27         2.9990   -4.2190    6.0470 ca        1 B11      0.011100
     28 C28         3.3670   -5.4820    5.5690 ca        1 B11     -0.102500
     29 C29         4.6780   -5.6950    5.1580 ca        1 B11     -0.152000
     30 C30         5.6140   -4.6430    5.2370 ca        1 B11      0.168900
     31 C31         5.2300   -3.3770    5.7300 ca        1 B11     -0.152000
     32 C32         3.9180   -3.1670    6.1390 ca        1 B11     -0.102500
     33 F1          6.8870   -4.8460    4.8400 f         1 B11     -0.102900
     34 H1          0.0960   -1.0620   -0.9380 ha        1 B11      0.168000
     35 H2          2.3900   -0.0690   -0.9200 ha        1 B11      0.173000
     36 H3          3.3520    0.8300    1.2010 ha        1 B11      0.170000
     37 H4          2.0260    0.7700    3.3060 ha        1 B11      0.145000
     38 HO7        -1.7980   -1.4270    0.3590 ho        1 B11      0.466000
     39 H81         0.0020    0.3930    4.4520 hx        1 B11      0.105200
     40 H82        -1.4990    0.4130    3.3810 hx        1 B11      0.105200
     41 HN9        -0.0500   -2.0480    4.2640 hn        1 B11      0.464300
     42 H10        -2.4600   -0.6000    5.2070 hx        1 B11      0.116700
     43 H111       -3.3030   -2.8590    4.5190 hc        1 B11      0.088950
     44 H112       -1.9690   -3.6720    5.4460 hc        1 B11      0.088950
     45 H121       -4.0800   -3.6630    6.7460 h1        1 B11      0.095950
     46 H122       -4.2720   -1.8640    6.5030 h1        1 B11      0.095950
     47 H141       -2.4780   -0.3550    7.7710 h1        1 B11      0.095950
     48 H142       -1.2350   -1.2820    8.7410 h1        1 B11      0.095950
     49 H151       -0.3650   -0.3810    6.5830 hc        1 B11      0.088950
     50 H152       -0.2100   -2.1910    6.6840 hc        1 B11      0.088950
     51 H17        -2.3790   -5.4020    8.5880 hn        1 B11      0.458800
     52 H21        -0.7320   -4.6380    6.9130 ha        1 B11      0.147000
     53 H23         3.1760   -3.8330    8.5920 ha        1 B11      0.187000
     54 H24         2.2230   -3.9980   10.9050 ha        1 B11      0.186000
     55 H25        -0.1960   -4.3870   11.2510 ha        1 B11      0.175000
     56 H28         2.6270   -6.2950    5.5130 ha        1 B11      0.150500
     57 H29         4.9960   -6.6780    4.7750 ha        1 B11      0.176500
     58 H31         5.9760   -2.5690    5.7910 ha        1 B11      0.176500
     59 H32         3.6080   -2.1870    6.5270 ha        1 B11      0.150500
     60 H92        -1.4150   -1.9790    3.3140 hn        1 B11      0.464300
     61 H172       -2.1990   -5.1670   10.1990 hn        1 B11      0.458800
@<TRIPOS>BOND
     1    1    2 ar  
     2    1    6 ar  
     3    1   34 1   
     4    2    3 ar  
     5    2   35 1   
     6    3    4 ar  
     7    3   36 1   
     8    4    5 ar  
     9    4   37 1   
    10    5    6 ar  
    11    5    8 1   
    12    6    7 1   
    13    7   38 1   
    14    8    9 1   
    15    8   39 1   
    16    8   40 1   
    17    9   10 1   
    18    9   41 1   
    19    9   60 1   
    20   10   11 1   
    21   10   15 1   
    22   10   42 1   
    23   11   12 1   
    24   11   43 1   
    25   11   44 1   
    26   12   13 1   
    27   12   45 1   
    28   12   46 1   
    29   13   14 1   
    30   13   16 1   
    31   14   15 1   
    32   14   47 1   
    33   14   48 1   
    34   15   49 1   
    35   15   50 1   
    36   16   17 1   
    37   16   18 2   
    38   16   19 2   
    39   17   20 1   
    40   17   51 1   
    41   17   61 1   
    42   20   21 ar  
    43   20   25 ar  
    44   21   22 ar  
    45   21   52 1   
    46   22   23 ar  
    47   22   26 1   
    48   23   24 ar  
    49   23   53 1   
    50   24   25 ar  
    51   24   54 1   
    52   25   55 1   
    53   26   27 1   
    54   27   28 ar  
    55   27   32 ar  
    56   28   29 ar  
    57   28   56 1   
    58   29   30 ar  
    59   29   57 1   
    60   30   31 ar  
    61   30   33 1   
    62   31   32 ar  
    63   31   58 1   
    64   32   59 1   
@<TRIPOS>SUBSTRUCTURE
     1 B11         1 TEMP              0 ****  ****    0 ROOT
