@<TRIPOS>MOLECULE
B11
   60    63     1     0     0
SMALL
bcc


@<TRIPOS>ATOM
      1 C1          1.2310   -1.0700    0.7190 ca        1 B11     -0.191000
      2 C2          2.5340   -0.6250    0.9280 ca        1 B11     -0.048000
      3 C3          2.9250   -0.1420    2.1800 ca        1 B11     -0.152000
      4 C4          2.0110   -0.0910    3.2290 ca        1 B11     -0.066000
      5 C5          0.6920   -0.5170    3.0400 ca        1 B11     -0.203300
      6 C6          0.3150   -1.0190    1.7780 ca        1 B11      0.141100
      7 O7         -0.9810   -1.4710    1.6620 oh        1 B11     -0.545100
      8 C8         -0.3200   -0.3750    4.1230 c3        1 B11      0.190100
      9 N9         -0.8530   -1.7020    4.5640 ny        1 B11     -0.774000
     10 C10        -1.9960   -1.5710    5.5450 c3        1 B11      0.138500
     11 C11        -2.7770   -2.8910    5.6040 c3        1 B11     -0.132400
     12 C12        -3.8030   -2.8770    6.7460 c3        1 B11      0.224300
     13 N13        -3.2310   -2.5000    8.0070 n3        1 B11     -0.798500
     14 C14        -2.5970   -1.2120    7.9730 c3        1 B11      0.224300
     15 C15        -1.4860   -1.1240    6.9180 c3        1 B11     -0.132400
     16 S16        -3.1160   -3.5350    9.2940 s6        1 B11      1.575800
     17 N17        -1.8590   -4.5190    8.9120 nu        1 B11     -0.799500
     18 O18        -2.7970   -2.7670   10.4320 o         1 B11     -0.620300
     19 O19        -4.2650   -4.3520    9.3290 o         1 B11     -0.620300
     20 C20        -0.5500   -4.0720    8.6570 ca        1 B11      0.148600
     21 C21        -0.0020   -4.2110    7.3640 ca        1 B11     -0.184000
     22 C22         1.2310   -3.6150    7.0800 ca        1 B11      0.077100
     23 C23         1.9960   -2.9970    8.0750 ca        1 B11     -0.152000
     24 C24         1.4820   -2.9370    9.3680 ca        1 B11     -0.093000
     25 C25         0.2180   -3.4450    9.6630 ca        1 B11     -0.134000
     26 O26         1.5790   -3.5520    5.7300 os        1 B11     -0.311200
     27 C27         2.8620   -4.0120    5.4130 ca        1 B11      0.065100
     28 C28         3.3440   -5.2330    5.8980 ca        1 B11     -0.123500
     29 C29         4.5840   -5.6930    5.4700 ca        1 B11     -0.143000
     30 C30         5.3340   -4.9270    4.5540 ca        1 B11      0.134900
     31 C31         4.8370   -3.6990    4.0750 ca        1 B11     -0.143000
     32 C32         3.6000   -3.2370    4.5100 ca        1 B11     -0.123500
     33 F1          6.5380   -5.3730    4.1330 f         1 B11     -0.120900
     34 H1          0.9200   -1.4530   -0.2650 ha        1 B11      0.160000
     35 H2          3.2610   -0.6560    0.0990 ha        1 B11      0.163000
     36 H3          3.9580    0.2080    2.3350 ha        1 B11      0.161000
     37 H4          2.3240    0.3020    4.2100 ha        1 B11      0.147000
     38 HO7        -1.1600   -1.6600    0.7270 ho        1 B11      0.457000
     39 H81        -1.1940    0.2320    3.7410 hx        1 B11      0.103700
     40 H82         0.1210    0.1390    5.0250 hx        1 B11      0.103700
     41 HN9        -0.0950   -2.2530    4.9940 hn        1 B11      0.464300
     42 H10        -2.6850   -0.7700    5.1380 hx        1 B11      0.101700
     43 H111       -3.3300   -3.0500    4.6410 hc        1 B11      0.071950
     44 H112       -2.0750   -3.7540    5.7490 hc        1 B11      0.071950
     45 H121       -4.2640   -3.9040    6.8330 h1        1 B11      0.082450
     46 H122       -4.6280   -2.1550    6.4780 h1        1 B11      0.082450
     47 H141       -2.1560   -0.9790    8.9860 h1        1 B11      0.082450
     48 H142       -3.3720   -0.4220    7.7460 h1        1 B11      0.082450
     49 H151       -0.6190   -1.7650    7.2410 hc        1 B11      0.071950
     50 H152       -1.1350   -0.0600    6.8710 hc        1 B11      0.071950
     51 H17        -1.9830   -5.5000    8.7970 hn        1 B11      0.470800
     52 H21        -0.5220   -4.7780    6.5790 ha        1 B11      0.147000
     53 H23         2.9860   -2.5790    7.8360 ha        1 B11      0.161000
     54 H24         2.0780   -2.4730   10.1710 ha        1 B11      0.161000
     55 H25        -0.1880   -3.3460   10.6860 ha        1 B11      0.179000
     56 H28         2.7490   -5.8180    6.6150 ha        1 B11      0.148500
     57 H29         4.9860   -6.6500    5.8370 ha        1 B11      0.164000
     58 H31         5.4370   -3.1130    3.3620 ha        1 B11      0.164000
     59 H32         3.2000   -2.2800    4.1420 ha        1 B11      0.148500
     60 H92        -1.1860   -2.2110    3.7340 hn        1 B11      0.464300
@<TRIPOS>BOND
     1    1    2 ar  
     2    1    6 ar  
     3    1   34 1   
     4    2    3 ar  
     5    2   35 1   
     6    3    4 ar  
     7    3   36 1   
     8    4    5 ar  
     9    4   37 1   
    10    5    6 ar  
    11    5    8 1   
    12    6    7 1   
    13    7   38 1   
    14    8    9 1   
    15    8   39 1   
    16    8   40 1   
    17    9   10 1   
    18    9   41 1   
    19    9   60 1   
    20   10   11 1   
    21   10   15 1   
    22   10   42 1   
    23   11   12 1   
    24   11   43 1   
    25   11   44 1   
    26   12   13 1   
    27   12   45 1   
    28   12   46 1   
    29   13   14 1   
    30   13   16 1   
    31   14   15 1   
    32   14   47 1   
    33   14   48 1   
    34   15   49 1   
    35   15   50 1   
    36   16   17 1   
    37   16   18 2   
    38   16   19 2   
    39   17   20 1   
    40   17   51 1   
    41   20   21 ar  
    42   20   25 ar  
    43   21   22 ar  
    44   21   52 1   
    45   22   23 ar  
    46   22   26 1   
    47   23   24 ar  
    48   23   53 1   
    49   24   25 ar  
    50   24   54 1   
    51   25   55 1   
    52   26   27 1   
    53   27   28 ar  
    54   27   32 ar  
    55   28   29 ar  
    56   28   56 1   
    57   29   30 ar  
    58   29   57 1   
    59   30   31 ar  
    60   30   33 1   
    61   31   32 ar  
    62   31   58 1   
    63   32   59 1   
@<TRIPOS>SUBSTRUCTURE
     1 B11         1 TEMP              0 ****  ****    0 ROOT
