@<TRIPOS>MOLECULE
B14
   44    41     1     0     0
SMALL
bcc


@<TRIPOS>ATOM
      1 C1          3.8650    0.3650   -2.9550 c1        1 B14      0.071000
      2 C2          5.2340    0.2570   -2.9780 c1        1 B14     -0.141000
      3 C3          5.9520    0.1580   -1.7830 c1        1 B14     -0.141000
      4 C4          5.2850    0.1690   -0.5600 c1        1 B14      0.071000
      5 C4A         3.8690    0.2810   -0.5240 c1        1 B14     -0.192000
      6 C5          3.1390    0.2270    0.7920 c2        1 B14      0.183000
      7 N6          1.7270    0.1090    0.8170 n1        1 B14     -0.298000
      8 C7          1.0040    0.1940   -0.3800 c2        1 B14      0.162000
      9 N8          1.7250    0.3280   -1.6750 n3        1 B14     -0.322000
     10 C8A         3.1650    0.3780   -1.6970 c1        1 B14      0.125000
     11 F9          6.0020    0.1850    0.6050 f         1 B14     -0.103500
     12 F10         3.1980    0.3450   -4.0700 f         1 B14     -0.103500
     13 C11         0.7120   -1.2500   -0.4970 c3        1 B14     -0.186500
     14 C12        -0.2600   -1.7270    0.5770 c3        1 B14     -0.032500
     15 N13        -1.4370   -0.9160    0.6360 n         1 B14     -0.303000
     16 C14        -1.1660    0.5070    0.7500 c3        1 B14     -0.032500
     17 C15        -0.2040    0.9960   -0.3170 c3        1 B14     -0.186500
     18 C16        -2.7910   -1.4650    0.5780 c2        1 B14      0.333000
     19 O17        -2.9600   -2.7120    0.4720 o         1 B14     -0.346000
     20 N18         3.8200    0.4070    1.9450 n3        1 B14     -0.343000
     21 C19        -3.9490   -0.5770    0.7420 c2        1 B14     -0.146000
     22 C20        -4.6230   -0.0890   -0.3900 c2        1 B14     -0.029000
     23 N21        -5.7230    0.6530   -0.2450 n1        1 B14     -0.105000
     24 C22        -6.2030    0.9440    1.0210 c1        1 B14      0.068000
     25 C23        -5.5440    0.4670    2.1410 c1        1 B14     -0.151000
     26 C24        -4.4260   -0.2880    2.0000 c1        1 B14     -0.066000
     27 C25        -7.3490    1.8710    1.1800 c1        1 B14     -0.091000
     28 N26        -8.2360    2.5900    1.3030 n1        1 B14     -0.007000
     29 H2          5.6760    0.2500   -3.7740 ha        1 B14      0.158500
     30 H3          7.0310    0.0730   -1.8070 ha        1 B14      0.158500
     31 HN8         1.4180   -0.3520   -2.2890 hn        1 B14      0.232000
     32 H111        1.5460   -1.7490   -0.4120 hc        1 B14      0.097250
     33 H112        0.3060   -1.4340   -1.4180 hc        1 B14      0.097250
     34 H121       -0.5280   -2.6790    0.3810 h1        1 B14      0.110000
     35 H122        0.1940   -1.6960    1.4560 h1        1 B14      0.110000
     36 H141       -1.9640    0.9740    0.6700 h1        1 B14      0.110000
     37 H142       -0.7560    0.6970    1.6900 h1        1 B14      0.110000
     38 H151       -0.6300    0.9620   -1.1460 hc        1 B14      0.097250
     39 H152        0.0310    1.8850   -0.1310 hc        1 B14      0.097250
     40 H181        4.0420    1.2350    2.2040 hn        1 B14      0.214500
     41 H182        3.9540   -0.3380    2.5480 hn        1 B14      0.214500
     42 H20        -4.2880   -0.2890   -1.2810 h4        1 B14      0.185000
     43 H23        -5.8900    0.6760    3.0450 ha        1 B14      0.160000
     44 H24        -3.9730   -0.6200    2.7750 ha        1 B14      0.159000
@<TRIPOS>BOND
     1    1    2 1   
     2    1   12 1   
     3    2   29 1   
     4    3    4 1   
     5    3   30 1   
     6    4   11 1   
     7    5    6 1   
     8    5   10 1   
     9    6    7 1   
    10    6   20 1   
    11    8    9 1   
    12    8   13 1   
    13    8   17 1   
    14    9   10 1   
    15    9   31 1   
    16   13   14 1   
    17   13   32 1   
    18   13   33 1   
    19   14   15 1   
    20   14   34 1   
    21   14   35 1   
    22   15   16 1   
    23   15   18 1   
    24   16   17 1   
    25   16   36 1   
    26   16   37 1   
    27   17   38 1   
    28   17   39 1   
    29   18   19 1   
    30   18   21 1   
    31   20   40 1   
    32   20   41 1   
    33   21   22 1   
    34   21   26 1   
    35   22   23 1   
    36   22   42 1   
    37   24   25 1   
    38   24   27 1   
    39   25   43 1   
    40   26   44 1   
    41   27   28 1   
@<TRIPOS>SUBSTRUCTURE
     1 B14         1 TEMP              0 ****  ****    0 ROOT
