@<TRIPOS>MOLECULE
B14
   45    46     1     0     0
SMALL
bcc


@<TRIPOS>ATOM
      1 C1          1.4350   -0.4160    0.9390 ca        1 B14      0.044900
      2 C2          2.4800   -1.2930    1.2120 ca        1 B14     -0.050000
      3 C3          2.2620   -2.4420    1.9760 ca        1 B14     -0.176000
      4 C4          0.9890   -2.7180    2.4730 ca        1 B14      0.170900
      5 C4A        -0.1060   -1.8510    2.2220 ca        1 B14     -0.339900
      6 C5         -1.4890   -2.0300    2.6890 ce        1 B14      0.590800
      7 N6         -2.4840   -1.2350    2.4490 n2        1 B14     -0.576900
      8 C7         -2.3000   -0.0150    1.6420 c3        1 B14      0.486600
      9 N8         -0.9130    0.1970    1.1800 nh        1 B14     -0.786600
     10 C8A         0.1080   -0.6740    1.4420 ca        1 B14      0.251600
     11 F9          0.8170   -3.8460    3.2090 f         1 B14     -0.152900
     12 F10         1.6570    0.6950    0.1940 f         1 B14     -0.118900
     13 C11        -3.2570   -0.0930    0.4500 c2        1 B14     -0.212200
     14 C12        -2.9910   -0.7160   -0.6930 c2        1 B14     -0.163000
     15 N13        -8.9310   -1.4960    4.9050 ne        1 B14     -0.680100
     16 C14        -9.9010   -0.8750    4.3440 c2        1 B14      0.545100
     17 C15        -2.7410    1.2130    2.4980 c3        1 B14     -0.105100
     18 C16        -7.6010   -1.4180    4.4080 c         1 B14      0.702100
     19 O17        -7.1750   -0.4670    3.7270 o         1 B14     -0.552100
     20 N18        -1.7890   -3.2260    3.5150 n4        1 B14     -0.831600
     21 C19        -6.6860   -2.5240    4.8020 ca        1 B14     -0.221900
     22 C20        -5.3700   -2.5090    4.2720 ca        1 B14      0.460200
     23 N21        -4.4510   -3.4380    4.5560 nb        1 B14     -0.760000
     24 C22        -4.8110   -4.4500    5.4000 ca        1 B14      0.513300
     25 C23        -6.0910   -4.5440    5.9720 ca        1 B14     -0.199300
     26 C24        -7.0430   -3.5590    5.6660 ca        1 B14     -0.011000
     27 C25        -3.8300   -5.4480    5.7050 cg        1 B14      0.094800
     28 N26        -3.0410   -6.2630    5.9590 n1        1 B14     -0.300800
     29 H2          3.4890   -1.0750    0.8180 ha        1 B14      0.182000
     30 H3          3.0940   -3.1320    2.1870 ha        1 B14      0.181000
     31 HN8        -0.7480    0.9950    0.6090 hn        1 B14      0.479800
     32 H111      -10.9020   -0.9690    4.8120 h4        1 B14      0.012800
     33 H112       -4.2170    0.4170    0.6290 ha        1 B14      0.158000
     34 H121       -2.0500   -1.2440   -0.9020 ha        1 B14      0.130500
     35 H122       -3.7150   -0.7290   -1.5220 ha        1 B14      0.130500
     36 H141       -9.8390   -0.2560    3.4260 h4        1 B14      0.012800
     37 H142       -2.7190    2.1260    1.8560 hc        1 B14      0.068700
     38 H151       -3.7830    1.0580    2.8660 hc        1 B14      0.068700
     39 H152       -2.0620    1.3630    3.3700 hc        1 B14      0.068700
     40 H181       -1.5790   -4.0620    2.9590 hn        1 B14      0.482133
     41 H182       -2.7980   -3.2530    3.8330 hn        1 B14      0.482133
     42 H20        -5.0610   -1.6910    3.5860 h4        1 B14      0.065100
     43 H23        -6.3410   -5.3750    6.6500 ha        1 B14      0.180000
     44 H24        -8.0500   -3.6160    6.1150 ha        1 B14      0.191000
     45 H183       -1.1710   -3.2160    4.3320 hn        1 B14      0.482133
@<TRIPOS>BOND
     1    1    2 ar  
     2    1   10 ar  
     3    1   12 1   
     4    2    3 ar  
     5    2   29 1   
     6    3    4 ar  
     7    3   30 1   
     8    4    5 ar  
     9    4   11 1   
    10    5    6 1   
    11    5   10 ar  
    12    6    7 2   
    13    6   20 1   
    14    7    8 1   
    15    8    9 1   
    16    8   13 1   
    17    8   17 1   
    18    9   10 1   
    19    9   31 1   
    20   13   14 2   
    21   13   33 1   
    22   14   34 1   
    23   14   35 1   
    24   15   16 2   
    25   15   18 1   
    26   16   32 1   
    27   16   36 1   
    28   17   37 1   
    29   17   38 1   
    30   17   39 1   
    31   18   19 2   
    32   18   21 1   
    33   20   40 1   
    34   20   41 1   
    35   20   45 1   
    36   21   22 ar  
    37   21   26 ar  
    38   22   23 ar  
    39   22   42 1   
    40   23   24 ar  
    41   24   25 ar  
    42   24   27 1   
    43   25   26 ar  
    44   25   43 1   
    45   26   44 1   
    46   27   28 3   
@<TRIPOS>SUBSTRUCTURE
     1 B14         1 TEMP              0 ****  ****    0 ROOT
