@<TRIPOS>MOLECULE
B14
   45    48     1     0     0
SMALL
bcc


@<TRIPOS>ATOM
      1 C1         -0.0520    0.1960   -0.1750 ca        1 B14      0.052900
      2 C2          1.0440    1.0450   -0.2920 ca        1 B14     -0.047000
      3 C3          1.7180    1.4980    0.8460 ca        1 B14     -0.167000
      4 C4          1.2950    1.0990    2.1120 ca        1 B14      0.165900
      5 C4A         0.1820    0.2340    2.2780 ca        1 B14     -0.342900
      6 C5         -0.3620   -0.2650    3.5460 ce        1 B14      0.591800
      7 N6         -1.3690   -1.0660    3.6920 n2        1 B14     -0.579900
      8 C7         -2.0980   -1.5850    2.5240 c3        1 B14      0.454400
      9 N8         -1.6050   -1.0510    1.2360 nh        1 B14     -0.787600
     10 C8A        -0.5150   -0.2330    1.1230 ca        1 B14      0.255600
     11 F9          1.9740    1.5560    3.1970 f         1 B14     -0.155900
     12 F10        -0.6970   -0.2400   -1.2840 f         1 B14     -0.112900
     13 C11        -1.9900   -3.1470    2.5120 c3        1 B14     -0.113900
     14 C12        -2.6930   -3.7720    3.7160 c3        1 B14      0.080500
     15 N13        -4.0700   -3.3570    3.8850 n         1 B14     -0.456800
     16 C14        -4.2570   -1.9270    3.8670 c3        1 B14      0.080500
     17 C15        -3.6140   -1.2210    2.6710 c3        1 B14     -0.113900
     18 C16        -5.0880   -4.2260    3.4450 c         1 B14      0.666700
     19 O17        -4.7960   -5.3290    2.9510 o         1 B14     -0.555100
     20 N18         0.3020    0.1880    4.8020 n4        1 B14     -0.804600
     21 C19        -6.5040   -3.8320    3.6560 ca        1 B14     -0.256900
     22 C20        -7.4290   -4.0330    2.6030 ca        1 B14      0.444200
     23 N21        -8.7350   -3.7520    2.7010 nb        1 B14     -0.623000
     24 C22        -9.1830   -3.2690    3.8930 ca        1 B14      0.527300
     25 C23        -8.3400   -3.0620    5.0070 ca        1 B14     -0.218300
     26 C24        -6.9790   -3.3480    4.8780 ca        1 B14     -0.062000
     27 C25       -10.5750   -2.9590    4.0260 cg        1 B14      0.111800
     28 N26       -11.7030   -2.7040    4.1440 n1        1 B14     -0.300800
     29 H2          1.3810    1.3610   -1.2950 ha        1 B14      0.187000
     30 H3          2.5850    2.1710    0.7430 ha        1 B14      0.185000
     31 HN8        -2.0450   -1.3960    0.4110 hn        1 B14      0.480800
     32 H111       -2.4630   -3.5220    1.5660 hc        1 B14      0.076200
     33 H112       -0.9180   -3.4690    2.5110 hc        1 B14      0.076200
     34 H121       -2.1440   -3.4970    4.6610 h1        1 B14      0.075950
     35 H122       -2.6520   -4.8950    3.6030 h1        1 B14      0.075950
     36 H141       -3.8170   -1.5160    4.8220 h1        1 B14      0.075950
     37 H142       -5.3570   -1.6790    3.8650 h1        1 B14      0.075950
     38 H151       -3.7450   -0.1150    2.7920 hc        1 B14      0.076200
     39 H152       -4.1360   -1.5280    1.7260 hc        1 B14      0.076200
     40 H181        1.2890   -0.0990    4.7660 hn        1 B14      0.477133
     41 H182        0.2610    1.2150    4.8360 hn        1 B14      0.477133
     42 H20        -7.0960   -4.4560    1.6350 h4        1 B14      0.050100
     43 H23        -8.7520   -2.6890    5.9560 ha        1 B14      0.168000
     44 H24        -6.2990   -3.2080    5.7320 ha        1 B14      0.155000
     45 H183       -0.1460   -0.2070    5.6380 hn        1 B14      0.477133
@<TRIPOS>BOND
     1    1    2 ar  
     2    1   10 ar  
     3    1   12 1   
     4    2    3 ar  
     5    2   29 1   
     6    3    4 ar  
     7    3   30 1   
     8    4    5 ar  
     9    4   11 1   
    10    5    6 1   
    11    5   10 ar  
    12    6    7 2   
    13    6   20 1   
    14    7    8 1   
    15    8    9 1   
    16    8   13 1   
    17    8   17 1   
    18    9   10 1   
    19    9   31 1   
    20   13   14 1   
    21   13   32 1   
    22   13   33 1   
    23   14   15 1   
    24   14   34 1   
    25   14   35 1   
    26   15   16 1   
    27   15   18 1   
    28   16   17 1   
    29   16   36 1   
    30   16   37 1   
    31   17   38 1   
    32   17   39 1   
    33   18   19 2   
    34   18   21 1   
    35   20   40 1   
    36   20   41 1   
    37   20   45 1   
    38   21   22 ar  
    39   21   26 ar  
    40   22   23 ar  
    41   22   42 1   
    42   23   24 ar  
    43   24   25 ar  
    44   24   27 1   
    45   25   26 ar  
    46   25   43 1   
    47   26   44 1   
    48   27   28 3   
@<TRIPOS>SUBSTRUCTURE
     1 B14         1 TEMP              0 ****  ****    0 ROOT
