@<TRIPOS>MOLECULE
B14
   45    48     1     0     0
SMALL
bcc


@<TRIPOS>ATOM
      1 C1         -0.0640    0.0540   -0.1240 ca        1 B14      0.052900
      2 C2          1.0310    0.9030   -0.2470 ca        1 B14     -0.047000
      3 C3          1.6840    1.3920    0.8880 ca        1 B14     -0.167000
      4 C4          1.2400    1.0290    2.1580 ca        1 B14      0.165900
      5 C4A         0.1270    0.1660    2.3310 ca        1 B14     -0.342900
      6 C5         -0.4380   -0.2970    3.6030 ce        1 B14      0.591800
      7 N6         -1.4440   -1.0970    3.7560 n2        1 B14     -0.579900
      8 C7         -2.1510   -1.6530    2.5920 c3        1 B14      0.454400
      9 N8         -1.6370   -1.1560    1.2970 nu        1 B14     -0.787600
     10 C8A        -0.5480   -0.3380    1.1780 ca        1 B14      0.255600
     11 F9          1.8980    1.5200    3.2400 f         1 B14     -0.155900
     12 F10        -0.6890   -0.4170   -1.2300 f         1 B14     -0.112900
     13 C11        -2.0370   -3.2150    2.6280 c3        1 B14     -0.113900
     14 C12        -2.7590   -3.8070    3.8380 c3        1 B14      0.080500
     15 N13        -4.1390   -3.3930    3.9710 n         1 B14     -0.456800
     16 C14        -4.3310   -1.9640    3.9080 c3        1 B14      0.080500
     17 C15        -3.6710   -1.2920    2.7020 c3        1 B14     -0.113900
     18 C16        -5.1470   -4.2790    3.5390 c         1 B14      0.666700
     19 O17        -4.8420   -5.3940    3.0830 o         1 B14     -0.555100
     20 N18         0.2030    0.1970    4.8570 nz        1 B14     -0.804600
     21 C19        -6.5680   -3.8850    3.7140 ca        1 B14     -0.256900
     22 C20        -7.4730   -4.1210    2.6520 ca        1 B14      0.444200
     23 N21        -8.7820   -3.8430    2.7190 nb        1 B14     -0.623000
     24 C22        -9.2520   -3.3270    3.8880 ca        1 B14      0.527300
     25 C23        -8.4290   -3.0830    5.0100 ca        1 B14     -0.218300
     26 C24        -7.0650   -3.3670    4.9130 ca        1 B14     -0.062000
     27 C25       -10.6480   -3.0200    3.9880 cg        1 B14      0.111800
     28 N26       -11.7780   -2.7660    4.0800 n1        1 B14     -0.300800
     29 H2          1.3850    1.1900   -1.2530 ha        1 B14      0.187000
     30 H3          2.5510    2.0650    0.7810 ha        1 B14      0.185000
     31 HN8        -2.0620   -1.5270    0.4750 hn        1 B14      0.480800
     32 H111       -0.9640   -3.5320    2.6550 hc        1 B14      0.076200
     33 H112       -2.4920   -3.6190    1.6850 hc        1 B14      0.076200
     34 H121       -2.7110   -4.9330    3.7590 h1        1 B14      0.075950
     35 H122       -2.2270   -3.5010    4.7840 h1        1 B14      0.075950
     36 H141       -3.9090   -1.5240    4.8570 h1        1 B14      0.075950
     37 H142       -5.4320   -1.7220    3.8790 h1        1 B14      0.075950
     38 H151       -3.8070   -0.1840    2.7870 hc        1 B14      0.076200
     39 H152       -4.1750   -1.6290    1.7580 hc        1 B14      0.076200
     40 H181       -0.2580   -0.1760    5.6970 hn        1 B14      0.477133
     41 H182        0.1580    1.2240    4.8590 hn        1 B14      0.477133
     42 H20        -7.1220   -4.5710    1.7030 h4        1 B14      0.050100
     43 H23        -8.8590   -2.6850    5.9400 ha        1 B14      0.168000
     44 H24        -6.4010   -3.1990    5.7740 ha        1 B14      0.155000
     45 H183        1.1920   -0.0870    4.8470 hn        1 B14      0.477133
@<TRIPOS>BOND
     1    1    2 ar  
     2    1   10 ar  
     3    1   12 1   
     4    2    3 ar  
     5    2   29 1   
     6    3    4 ar  
     7    3   30 1   
     8    4    5 ar  
     9    4   11 1   
    10    5    6 1   
    11    5   10 ar  
    12    6    7 2   
    13    6   20 1   
    14    7    8 1   
    15    8    9 1   
    16    8   13 1   
    17    8   17 1   
    18    9   10 1   
    19    9   31 1   
    20   13   14 1   
    21   13   32 1   
    22   13   33 1   
    23   14   15 1   
    24   14   34 1   
    25   14   35 1   
    26   15   16 1   
    27   15   18 1   
    28   16   17 1   
    29   16   36 1   
    30   16   37 1   
    31   17   38 1   
    32   17   39 1   
    33   18   19 2   
    34   18   21 1   
    35   20   40 1   
    36   20   41 1   
    37   20   45 1   
    38   21   22 ar  
    39   21   26 ar  
    40   22   23 ar  
    41   22   42 1   
    42   23   24 ar  
    43   24   25 ar  
    44   24   27 1   
    45   25   26 ar  
    46   25   43 1   
    47   26   44 1   
    48   27   28 3   
@<TRIPOS>SUBSTRUCTURE
     1 B14         1 TEMP              0 ****  ****    0 ROOT
