@<TRIPOS>MOLECULE
B14
   44    47     1     0     0
SMALL
bcc


@<TRIPOS>ATOM
      1 C1         -4.3810   -1.9860    0.4550 ca        1 B14      0.024900
      2 C2         -5.7620   -1.7780    0.4900 ca        1 B14     -0.076000
      3 C3         -6.2740   -0.4890    0.4600 ca        1 B14     -0.204000
      4 C4         -5.4050    0.6160    0.4120 ca        1 B14      0.185900
      5 C4A        -4.0050    0.4470    0.4120 ca        1 B14     -0.271900
      6 C5         -2.9910    1.5440    0.3940 ce        1 B14      0.704800
      7 N6         -1.7180    1.3360    0.1380 n2        1 B14     -0.708900
      8 C7         -1.1900   -0.0150   -0.0130 c3        1 B14      0.443400
      9 N8         -2.1110   -1.0880    0.4350 nh        1 B14     -0.762600
     10 C8A        -3.4760   -0.8760    0.4130 ca        1 B14      0.202600
     11 F9         -5.9740    1.8450    0.3490 f         1 B14     -0.139900
     12 F10        -3.8940   -3.2540    0.4550 f         1 B14     -0.139900
     13 C11        -0.7750   -0.2650   -1.5040 c3        1 B14     -0.107900
     14 C12         0.3470    0.6730   -1.9400 c3        1 B14      0.084000
     15 N13         1.5160    0.6430   -1.0810 n         1 B14     -0.445800
     16 C14         1.2120    0.7940    0.3260 c3        1 B14      0.084000
     17 C15         0.1210   -0.1470    0.8360 c3        1 B14     -0.107900
     18 C16         2.6550   -0.0340   -1.5160 c         1 B14      0.660700
     19 O17         2.7120   -0.5340   -2.6580 o         1 B14     -0.586100
     20 N18        -3.3950    2.8340    0.7440 nh        1 B14     -0.900800
     21 C19         3.8560   -0.0700   -0.6340 ca        1 B14     -0.231900
     22 C20         4.5210   -1.3040   -0.4380 ca        1 B14      0.436200
     23 N21         5.6350   -1.4390    0.2940 nb        1 B14     -0.632000
     24 C22         6.1480   -0.3110    0.8590 ca        1 B14      0.504300
     25 C23         5.5650    0.9640    0.7050 ca        1 B14     -0.216300
     26 C24         4.3980    1.0780   -0.0550 ca        1 B14     -0.066000
     27 C25         7.3400   -0.4240    1.6470 cg        1 B14      0.127800
     28 N26         8.3060   -0.5020    2.2880 n1        1 B14     -0.332800
     29 H2         -6.4380   -2.6460    0.5310 ha        1 B14      0.158000
     30 H3         -7.3600   -0.3180    0.4720 ha        1 B14      0.159000
     31 HN8        -1.7990   -2.0160    0.2520 hn        1 B14      0.435800
     32 H111       -0.4410   -1.3290   -1.6140 hc        1 B14      0.057950
     33 H112       -1.6510   -0.1050   -2.1820 hc        1 B14      0.057950
     34 H121        0.6510    0.4060   -2.9930 h1        1 B14      0.070450
     35 H122       -0.0300    1.7360   -1.9410 h1        1 B14      0.070450
     36 H141        2.1380    0.6230    0.9440 h1        1 B14      0.070450
     37 H142        0.8840    1.8620    0.4820 h1        1 B14      0.070450
     38 H151       -0.0880    0.1010    1.9080 hc        1 B14      0.057950
     39 H152        0.4770   -1.2080    0.7860 hc        1 B14      0.057950
     40 H181       -2.7310    3.5630    0.6020 hn        1 B14      0.418300
     41 H182       -4.3330    3.0770    0.5220 hn        1 B14      0.418300
     42 H20         4.1350   -2.2280   -0.9100 h4        1 B14      0.048100
     43 H23         6.0230    1.8480    1.1720 ha        1 B14      0.161000
     44 H24         3.9200    2.0600   -0.1990 ha        1 B14      0.159000
@<TRIPOS>BOND
     1    1    2 ar  
     2    1   10 ar  
     3    1   12 1   
     4    2    3 ar  
     5    2   29 1   
     6    3    4 ar  
     7    3   30 1   
     8    4    5 ar  
     9    4   11 1   
    10    5    6 1   
    11    5   10 ar  
    12    6    7 2   
    13    6   20 1   
    14    7    8 1   
    15    8    9 1   
    16    8   13 1   
    17    8   17 1   
    18    9   10 1   
    19    9   31 1   
    20   13   14 1   
    21   13   32 1   
    22   13   33 1   
    23   14   15 1   
    24   14   34 1   
    25   14   35 1   
    26   15   16 1   
    27   15   18 1   
    28   16   17 1   
    29   16   36 1   
    30   16   37 1   
    31   17   38 1   
    32   17   39 1   
    33   18   19 2   
    34   18   21 1   
    35   20   40 1   
    36   20   41 1   
    37   21   22 ar  
    38   21   26 ar  
    39   22   23 ar  
    40   22   42 1   
    41   23   24 ar  
    42   24   25 ar  
    43   24   27 1   
    44   25   26 ar  
    45   25   43 1   
    46   26   44 1   
    47   27   28 3   
@<TRIPOS>SUBSTRUCTURE
     1 B14         1 TEMP              0 ****  ****    0 ROOT
