@<TRIPOS>MOLECULE
B16
   30    30     1     0     0
SMALL
bcc


@<TRIPOS>ATOM
      1 P           4.3590    1.0870    0.1270 p5        1 B16      1.326900
      2 P'         -3.8590   -1.6710    0.1190 p5        1 B16      1.332900
      3 C1         -1.7850   -0.0010    0.0630 c3        1 B16      0.391900
      4 O1         -2.5600   -0.7920    0.8550 os        1 B16     -0.558200
      5 C2         -2.1290    1.5090    0.2390 c3        1 B16      0.063100
      6 O2         -3.4180    1.8580   -0.2260 oh        1 B16     -0.715800
      7 C3         -1.1200    2.3720   -0.5330 c3        1 B16      0.129100
      8 O3         -1.3890    3.7600   -0.3140 oh        1 B16     -0.631800
      9 C4          0.3080    2.0570   -0.0610 c3        1 B16      0.146100
     10 O4          1.2000    2.7450   -0.9130 oh        1 B16     -0.667800
     11 C5          0.5520    0.5340   -0.1220 c3        1 B16      0.081100
     12 O5         -0.4540   -0.1950    0.5840 os        1 B16     -0.441600
     13 C6          1.9150    0.1720    0.5280 c3        1 B16      0.226400
     14 O6          2.9390    0.2690   -0.3910 os        1 B16     -0.587200
     15 O1P         4.6740    0.5030    1.4810 o         1 B16     -0.941833
     16 O2P         5.3670    0.7680   -0.9480 o         1 B16     -0.941833
     17 O3P         3.8710    2.5180    0.1510 o         1 B16     -0.941833
     18 O1X        -4.8610   -0.5460   -0.0650 o         1 B16     -0.932167
     19 O2X        -3.3020   -2.1990   -1.1720 o         1 B16     -0.932167
     20 O3X        -4.2490   -2.6910    1.1530 o         1 B16     -0.932167
     21 H1         -1.8400   -0.2990   -1.0230 h2        1 B16      0.041700
     22 H2         -2.0730    1.7620    1.3350 h1        1 B16      0.025700
     23 HO2        -3.9740    1.0360   -0.1800 ho        1 B16      0.495000
     24 H3         -1.2080    2.1760   -1.6370 h1        1 B16      0.029700
     25 HO3        -2.3510    3.8360   -0.3140 ho        1 B16      0.383000
     26 H4          0.4330    2.4210    0.9970 h1        1 B16      0.023700
     27 HO4         2.1170    2.5100   -0.6200 ho        1 B16      0.489000
     28 H5          0.5610    0.2160   -1.2000 h1        1 B16      0.036700
     29 H6          2.1080    0.8480    1.4070 h1        1 B16      0.001200
     30 H6A         1.8250   -0.8900    0.9010 h1        1 B16      0.001200
@<TRIPOS>BOND
     1    1   14 1   
     2    1   15 1   
     3    1   16 1   
     4    1   17 1   
     5    2    4 1   
     6    2   18 1   
     7    2   19 1   
     8    2   20 1   
     9    3    4 1   
    10    3    5 1   
    11    3   12 1   
    12    3   21 1   
    13    5    6 1   
    14    5    7 1   
    15    5   22 1   
    16    6   23 1   
    17    7    8 1   
    18    7    9 1   
    19    7   24 1   
    20    8   25 1   
    21    9   10 1   
    22    9   11 1   
    23    9   26 1   
    24   10   27 1   
    25   11   12 1   
    26   11   13 1   
    27   11   28 1   
    28   13   14 1   
    29   13   29 1   
    30   13   30 1   
@<TRIPOS>SUBSTRUCTURE
     1 B16         1 TEMP              0 ****  ****    0 ROOT
