@<TRIPOS>MOLECULE
B16
   30    28     1     0     0
SMALL
bcc


@<TRIPOS>ATOM
      1 P          -4.4120    0.0790    0.5390 p3        1 B16      2.522000
      2 P'          1.0240   -2.7380   -2.5260 p3        1 B16      2.522000
      3 C1          1.1170   -0.8570   -0.8230 c3        1 B16      0.209000
      4 O1          1.3320   -1.2570   -2.1320 o         1 B16     -0.720000
      5 C2          2.1000    0.2250   -0.4830 c3        1 B16     -0.048000
      6 O2          3.4220   -0.3410   -0.4680 oh        1 B16     -0.443000
      7 C3          1.8260    0.8460    0.8490 c3        1 B16      0.018000
      8 O3          2.6830    1.9700    1.0150 oh        1 B16     -0.359000
      9 C4          0.4090    1.2970    0.9800 c3        1 B16      0.035000
     10 O4          0.1750    1.7090    2.3460 oh        1 B16     -0.395000
     11 C5         -0.5860    0.1930    0.6200 c3        1 B16     -0.030000
     12 O5         -0.3080   -0.4070   -0.6800 os        1 B16     -0.298000
     13 C6         -1.9360    0.7630    0.5950 c3        1 B16      0.076000
     14 O6         -2.8670   -0.2560    0.3730 o         1 B16     -0.749000
     15 O1P        -5.2090   -1.2030    0.5090 o         1 B16     -1.256500
     16 O2P        -4.6370    0.7830    1.8620 o         1 B16     -1.256500
     17 O3P        -4.8580    0.9760   -0.5910 o         1 B16     -1.256500
     18 O1X         1.0710   -2.8770   -4.0340 o         1 B16     -1.256500
     19 O2X        -0.3500   -3.1200   -2.0280 o         1 B16     -1.256500
     20 O3X         2.0420   -3.6390   -1.9110 o         1 B16     -1.256500
     21 H1          1.2710   -1.6290   -0.2220 h2        1 B16      0.081000
     22 H2          2.0590    0.9340   -1.1880 h1        1 B16      0.065000
     23 HO2         3.8060   -0.2110   -1.2500 ho        1 B16      0.294000
     24 H3          2.0250    0.1720    1.5740 h1        1 B16      0.069000
     25 HO3         3.2320    1.8230    1.6890 ho        1 B16      0.182000
     26 H4          0.2590    2.0820    0.3740 h1        1 B16      0.063000
     27 HO4        -0.0180    2.5760    2.3660 ho        1 B16      0.288000
     28 H5         -0.5500   -0.5080    1.3090 h1        1 B16      0.076000
     29 H6         -2.1240    1.1960    1.4530 h1        1 B16      0.040500
     30 H6A        -1.9970    1.4170   -0.1180 h1        1 B16      0.040500
@<TRIPOS>BOND
     1    1   15 1   
     2    1   16 1   
     3    1   17 1   
     4    2   18 1   
     5    2   19 1   
     6    2   20 1   
     7    3    4 1   
     8    3    5 1   
     9    3   12 1   
    10    3   21 1   
    11    5    6 1   
    12    5    7 1   
    13    5   22 1   
    14    6   23 1   
    15    7    8 1   
    16    7    9 1   
    17    7   24 1   
    18    8   25 1   
    19    9   10 1   
    20    9   11 1   
    21    9   26 1   
    22   10   27 1   
    23   11   12 1   
    24   11   13 1   
    25   11   28 1   
    26   13   14 1   
    27   13   29 1   
    28   13   30 1   
@<TRIPOS>SUBSTRUCTURE
     1 B16         1 TEMP              0 ****  ****    0 ROOT
