@<TRIPOS>MOLECULE
B18
   55    48     1     0     0
SMALL
bcc


@<TRIPOS>ATOM
      1 C01         2.1610    0.2000    2.0790 c1        1 B18     -0.162000
      2 C02         3.5490    0.2190    2.0410 c2        1 B18     -0.008000
      3 C03         4.2980    0.2430    3.2620 c1        1 B18     -0.096000
      4 C04         3.6260    0.2470    4.4950 c1        1 B18      0.035000
      5 C05         2.2200    0.2270    4.5320 c1        1 B18     -0.149000
      6 C06         1.4840    0.2040    3.3320 c1        1 B18     -0.080000
      7 C07         5.6400    0.1670    3.5140 c1        1 B18     -0.079000
      8 C08         5.8140    0.1230    4.9290 c1        1 B18     -0.084000
      9 N09         4.5780    0.1730    5.5090 n1        1 B18     -0.164000
     10 C10         6.9350    0.0140    2.6180 c2        1 B18     -0.051000
     11 C11         8.1940   -0.0000    3.3170 c3        1 B18     -0.020000
     12 N12         8.2070   -0.6300    4.5670 n3        1 B18     -0.368000
     13 C13         7.2670   -0.2400    5.4840 c1        1 B18      0.365000
     14 O14         7.4200   -0.5150    6.6900 o         1 B18     -0.366000
     15 C15         1.0950    0.4130    0.9280 c1        1 B18      0.355000
     16 O16         1.4770    0.6420   -0.2410 o         1 B18     -0.353000
     17 N17        -0.3060    0.2310    1.2000 n3        1 B18     -0.294000
     18 C18        -1.2470    0.3120    0.1400 c2        1 B18     -0.175000
     19 S19        -1.3200    1.4420   -0.9370 ss        1 B18      0.645000
     20 C20        -2.5080    1.1430   -1.8360 c1        1 B18     -0.463000
     21 C21        -3.1260   -0.0720   -1.3610 c1        1 B18     -0.117000
     22 N22        -2.3070   -0.5870   -0.1000 n2        1 B18     -0.157000
     23 C23        -4.3780   -0.6910   -1.9040 c1        1 B18      0.375000
     24 N24        -5.0570   -0.0870   -3.0600 n3        1 B18     -0.359000
     25 O25        -4.8140   -1.7440   -1.4090 o         1 B18     -0.374000
     26 C26        -5.6730   -0.9360   -4.0560 c3        1 B18     -0.032000
     27 C27        -7.1240   -0.4860   -4.2890 c3        1 B18     -0.095000
     28 N28        -7.3870   -0.4350   -5.6980 n3        1 B18     -0.262000
     29 C29        -8.1230   -1.6230   -6.0980 c3        1 B18     -0.121500
     30 C30        -8.1520    0.7090   -5.9850 c3        1 B18     -0.121500
     31 C31         6.9530    1.2020    1.5900 c3        1 B18     -0.210000
     32 H02         4.0260    0.2220    1.1630 ha        1 B18      0.160000
     33 H05         1.7540    0.2270    5.3890 ha        1 B18      0.146000
     34 H06         0.5050    0.1930    3.3590 ha        1 B18      0.139000
     35 HN09        4.4070    0.1950    6.4090 DU        1 B18      0.239500
     36 H10         6.8580   -0.8380    2.1070 ha        1 B18      0.110000
     37 H111        8.4950    0.9650    3.4470 h1        1 B18      0.085000
     38 H112        8.8480   -0.4460    2.7490 h1        1 B18      0.085000
     39 HN12        8.9540   -1.1010    4.8410 hn        1 B18      0.240000
     40 HN17       -0.5860    0.0740    2.0420 hn        1 B18      0.255000
     41 H20        -2.8020    1.6800   -2.6020 DU        1 B18      0.239500
     42 HN24       -5.0090    0.8530   -3.2000 hn        1 B18      0.236000
     43 H261       -5.6670   -1.9060   -3.7270 h1        1 B18      0.108500
     44 H262       -5.1770   -0.8730   -4.8860 h1        1 B18      0.108500
     45 H271       -7.7450   -1.1350   -3.8570 h1        1 B18      0.075000
     46 H272       -7.2610    0.4210   -3.8930 h1        1 B18      0.075000
     47 H291       -8.9150   -1.7610   -5.4690 h1        1 B18      0.071333
     48 H292       -7.5320   -2.4050   -6.0560 h1        1 B18      0.071333
     49 H293       -8.4570   -1.5080   -7.0380 h1        1 B18      0.071333
     50 H301       -9.0480    0.6460   -5.5070 h1        1 B18      0.071333
     51 H302       -8.3050    0.7710   -6.9720 h1        1 B18      0.071333
     52 H303       -7.6630    1.5210   -5.6720 h1        1 B18      0.071333
     53 H311        6.6070    1.9950    2.0110 hc        1 B18      0.085000
     54 H312        6.4050    0.9780    0.8350 hc        1 B18      0.085000
     55 H313        7.9100    1.3710    1.2780 hc        1 B18      0.085000
@<TRIPOS>BOND
     1    1    2 1   
     2    1    6 1   
     3    2    3 1   
     4    2   32 1   
     5    4    5 1   
     6    5   33 1   
     7    6   34 1   
     8    7    8 1   
     9    8    9 1   
    10   10   11 1   
    11   10   31 1   
    12   10   36 1   
    13   11   12 1   
    14   11   37 1   
    15   11   38 1   
    16   12   13 1   
    17   12   39 1   
    18   13   14 1   
    19   15   16 1   
    20   15   17 1   
    21   17   18 1   
    22   17   40 1   
    23   18   19 1   
    24   18   22 1   
    25   19   20 1   
    26   20   21 1   
    27   21   22 1   
    28   23   24 1   
    29   23   25 1   
    30   24   26 1   
    31   24   42 1   
    32   26   27 1   
    33   26   43 1   
    34   26   44 1   
    35   27   28 1   
    36   27   45 1   
    37   27   46 1   
    38   28   29 1   
    39   28   30 1   
    40   29   47 1   
    41   29   48 1   
    42   29   49 1   
    43   30   50 1   
    44   30   51 1   
    45   30   52 1   
    46   31   53 1   
    47   31   54 1   
    48   31   55 1   
@<TRIPOS>SUBSTRUCTURE
     1 B18         1 TEMP              0 ****  ****    0 ROOT
