@<TRIPOS>MOLECULE
B18
   58    61     1     0     0
SMALL
bcc


@<TRIPOS>ATOM
      1 C01         0.1230   -0.0580    0.3280 ca        1 B18     -0.275600
      2 C02         1.5380   -0.0590    0.1710 ca        1 B18      0.084000
      3 C03         2.3410   -0.0620    1.2860 ca        1 B18     -0.131800
      4 C04         1.7350   -0.0620    2.6270 ca        1 B18      0.034800
      5 C05         0.3210   -0.0650    2.7680 ca        1 B18     -0.108000
      6 C06        -0.4510   -0.0620    1.6370 ca        1 B18     -0.090000
      7 C07         3.7740   -0.0600    1.5030 cc        1 B18     -0.033400
      8 C08         3.9650   -0.0560    2.8870 cd        1 B18     -0.109300
      9 N09         2.7330   -0.0600    3.5630 na        1 B18     -0.078400
     10 C10         4.9180   -0.0460    0.5690 c3        1 B18     -0.023500
     11 C11         6.2030   -0.5210    1.2900 c3        1 B18      0.094000
     12 N12         6.3580   -0.1020    2.6590 n         1 B18     -0.546900
     13 C13         5.3020   -0.0190    3.5390 c         1 B18      0.721700
     14 O14         5.4270    0.1300    4.7660 o         1 B18     -0.592500
     15 C15        -0.6270   -0.0500   -0.8780 c         1 B18      0.602700
     16 O16        -0.2650   -0.0540   -2.0610 o         1 B18     -0.531100
     17 N17        -2.1800   -0.0330   -0.7320 n4        1 B18     -0.644500
     18 C18        -2.8920   -0.0130   -1.9980 cc        1 B18      0.342300
     19 S19        -2.0990   -0.0240   -3.5310 ss        1 B18      0.524700
     20 C20        -3.5090    0.0100   -4.3000 cc        1 B18     -0.264400
     21 C21        -4.6060    0.0310   -3.3970 cd        1 B18      0.210800
     22 N22        -4.2500    0.0180   -2.0650 nd        1 B18     -0.605000
     23 C23        -5.9710    0.0640   -3.8940 c         1 B18      0.508600
     24 N24        -7.0810    0.0850   -2.8260 n4        1 B18     -0.672800
     25 O25        -6.3530    0.0770   -5.0510 o         1 B18     -0.383100
     26 C26        -8.4370    0.1080   -3.4420 c3        1 B18      0.075800
     27 C27        -9.5750    0.1370   -2.4020 c3        1 B18      0.080800
     28 N28       -10.9350    0.0780   -3.0250 n4        1 B18     -0.674400
     29 C29       -11.9550   -0.2910   -1.9930 c3        1 B18      0.075600
     30 C30       -11.3100    1.3670   -3.6760 c3        1 B18      0.075600
     31 C31         5.1150    1.3310   -0.0380 c3        1 B18     -0.096100
     32 H02         1.9800   -0.0550   -0.8430 ha        1 B18      0.178000
     33 H05        -0.1340   -0.0680    3.7720 ha        1 B18      0.178000
     34 H06        -1.5440   -0.0650    1.7700 ha        1 B18      0.113000
     35 HN09        2.6420   -0.0450    4.5560 hn        1 B18      0.355700
     36 H10         4.7250   -0.7820   -0.2650 hc        1 B18      0.076700
     37 H111        6.2230   -1.6510    1.2460 h1        1 B18      0.068700
     38 H112        7.0940   -0.1360    0.7140 h1        1 B18      0.068700
     39 HN12        7.2810   -0.0970    3.0390 hn        1 B18      0.355500
     40 HN17       -2.4340    0.7990   -0.1800 hn        1 B18      0.474800
     41 H20        -3.6490    0.0170   -5.3940 h4        1 B18      0.249000
     42 HN24       -6.9710   -0.7490   -2.2340 hn        1 B18      0.473300
     43 H261       -8.5240   -0.8070   -4.1030 hx        1 B18      0.137700
     44 H262       -8.4890    1.0200   -4.1110 hx        1 B18      0.137700
     45 H271       -9.4820   -0.7480   -1.7040 hx        1 B18      0.123700
     46 H272       -9.5230    1.0830   -1.7860 hx        1 B18      0.123700
     47 H291      -11.9620    0.4780   -1.1740 hx        1 B18      0.123700
     48 H292      -12.9690   -0.3230   -2.4830 hx        1 B18      0.123700
     49 H293      -11.7160   -1.3040   -1.5690 hx        1 B18      0.123700
     50 H301      -10.5640    1.6210   -4.4740 hx        1 B18      0.123700
     51 H302      -12.3290    1.2550   -4.1460 hx        1 B18      0.123700
     52 H303      -11.3510    2.1860   -2.9070 hx        1 B18      0.123700
     53 H311        5.9390    1.2970   -0.7920 hc        1 B18      0.053700
     54 H312        4.1810    1.6690   -0.5460 hc        1 B18      0.053700
     55 H313        5.3860    2.0760    0.7480 hc        1 B18      0.053700
     56 H172       -2.4540   -0.8700   -0.1970 hn        1 B18      0.474800
     57 H242       -6.9420    0.9150   -2.2360 hn        1 B18      0.473300
     58 H281      -10.9370   -0.6590   -3.7470 hn        1 B18      0.463800
@<TRIPOS>BOND
     1    1    2 ar  
     2    1    6 ar  
     3    1   15 1   
     4    2    3 ar  
     5    2   32 1   
     6    3    4 ar  
     7    3    7 1   
     8    4    5 ar  
     9    4    9 1   
    10    5    6 ar  
    11    5   33 1   
    12    6   34 1   
    13    7    8 2   
    14    7   10 1   
    15    8    9 1   
    16    8   13 1   
    17    9   35 1   
    18   10   11 1   
    19   10   31 1   
    20   10   36 1   
    21   11   12 1   
    22   11   37 1   
    23   11   38 1   
    24   12   13 1   
    25   12   39 1   
    26   13   14 2   
    27   15   16 2   
    28   15   17 1   
    29   17   18 1   
    30   17   40 1   
    31   17   56 1   
    32   18   19 1   
    33   18   22 2   
    34   19   20 1   
    35   20   21 2   
    36   20   41 1   
    37   21   22 1   
    38   21   23 1   
    39   23   24 1   
    40   23   25 2   
    41   24   26 1   
    42   24   42 1   
    43   24   57 1   
    44   26   27 1   
    45   26   43 1   
    46   26   44 1   
    47   27   28 1   
    48   27   45 1   
    49   27   46 1   
    50   28   29 1   
    51   28   30 1   
    52   28   58 1   
    53   29   47 1   
    54   29   48 1   
    55   29   49 1   
    56   30   50 1   
    57   30   51 1   
    58   30   52 1   
    59   31   53 1   
    60   31   54 1   
    61   31   55 1   
@<TRIPOS>SUBSTRUCTURE
     1 B18         1 TEMP              0 ****  ****    0 ROOT
