@<TRIPOS>MOLECULE
B18
   57    60     1     0     0
SMALL
bcc


@<TRIPOS>ATOM
      1 C01         0.0570   -0.4560    0.3050 ca        1 B18     -0.216600
      2 C02         1.4310   -0.2260    0.1540 ca        1 B18      0.026000
      3 C03         2.2390   -0.1910    1.2830 ca        1 B18     -0.116800
      4 C04         1.6480   -0.4060    2.5990 ca        1 B18      0.005800
      5 C05         0.2660   -0.6570    2.7290 ca        1 B18     -0.137000
      6 C06        -0.5060   -0.6780    1.5860 ca        1 B18     -0.081000
      7 C07         3.6480    0.0210    1.5080 cc        1 B18     -0.069400
      8 C08         3.8500   -0.0650    2.8910 cd        1 B18     -0.110300
      9 N09         2.6460   -0.3250    3.5540 na        1 B18     -0.125400
     10 C10         4.7630    0.2950    0.5800 c3        1 B18     -0.012500
     11 C11         6.1150   -0.0370    1.2540 c3        1 B18      0.097000
     12 N12         6.2210    0.2720    2.6550 ns        1 B18     -0.554900
     13 C13         5.1700    0.1190    3.5370 c         1 B18      0.723700
     14 O14         5.3110    0.1810    4.7720 o         1 B18     -0.619500
     15 C15        -0.7440   -0.4770   -0.9190 c         1 B18      0.710700
     16 O16        -0.2690   -0.6140   -2.0760 o         1 B18     -0.608100
     17 N17        -2.1440   -0.3160   -0.8520 ns        1 B18     -0.529400
     18 C18        -2.8720   -0.3430   -2.0280 cc        1 B18      0.514300
     19 S19        -2.0320   -0.5710   -3.5660 ss        1 B18      0.322700
     20 C20        -3.4400   -0.4970   -4.3700 cc        1 B18     -0.240400
     21 C21        -4.5330   -0.3010   -3.5020 cd        1 B18      0.185800
     22 N22        -4.2090   -0.2110   -2.1420 nd        1 B18     -0.726000
     23 C23        -5.8770   -0.2010   -3.9890 c         1 B18      0.517600
     24 N24        -6.9410    0.0150   -2.8650 ny        1 B18     -0.680800
     25 O25        -6.3420   -0.2530   -5.1160 o         1 B18     -0.450100
     26 C26        -8.3130    0.1070   -3.4080 c3        1 B18      0.077800
     27 C27        -9.3790    0.3320   -2.3180 c3        1 B18      0.078800
     28 N28       -10.7720    0.3400   -2.8640 nx        1 B18     -0.674400
     29 C29       -11.7580    0.1530   -1.7580 c3        1 B18      0.077100
     30 C30       -11.0680    1.5950   -3.6110 c3        1 B18      0.077100
     31 C31         4.7390    1.7330    0.0970 c3        1 B18     -0.093100
     32 H02         1.8640   -0.0740   -0.8500 ha        1 B18      0.166000
     33 H05        -0.1800   -0.8360    3.7190 ha        1 B18      0.156000
     34 H06        -1.5780   -0.8990    1.6940 ha        1 B18      0.122000
     35 HN09        2.5500   -0.4130    4.5350 hn        1 B18      0.335700
     36 H10         4.6720   -0.3840   -0.3170 hc        1 B18      0.071700
     37 H111        6.9280    0.5320    0.7170 h1        1 B18      0.055200
     38 H112        6.3090   -1.1410    1.1050 h1        1 B18      0.055200
     39 HN12        7.1360    0.3650    3.0370 hn        1 B18      0.340500
     40 HN17       -2.6020   -0.1600    0.0180 hn        1 B18      0.356500
     41 H20        -3.5560   -0.5850   -5.4580 h4        1 B18      0.217000
     42 HN24       -6.8600   -0.7690   -2.2080 hn        1 B18      0.468800
     43 H261       -8.5190   -0.8490   -3.9770 hx        1 B18      0.129700
     44 H262       -8.3260    0.9560   -4.1570 hx        1 B18      0.129700
     45 H271       -9.3190   -0.4930   -1.5460 hx        1 B18      0.121200
     46 H272       -9.2070    1.3190   -1.7960 hx        1 B18      0.121200
     47 H291      -12.7970    0.1740   -2.1900 hx        1 B18      0.119533
     48 H292      -11.6490    0.9840   -1.0100 hx        1 B18      0.119533
     49 H293      -11.5820   -0.8380   -1.2580 hx        1 B18      0.119533
     50 H301      -10.9880    2.4780   -2.9210 hx        1 B18      0.119533
     51 H302      -12.1170    1.5400   -4.0190 hx        1 B18      0.119533
     52 H303      -10.3470    1.7080   -4.4640 hx        1 B18      0.119533
     53 H311        4.8970    2.4380    0.9480 hc        1 B18      0.046700
     54 H312        3.7560    1.9630   -0.3790 hc        1 B18      0.046700
     55 H313        5.5470    1.8960   -0.6560 hc        1 B18      0.046700
     56 H242       -6.6890    0.8740   -2.3620 hn        1 B18      0.468800
     57 H281      -10.8720   -0.4520   -3.5170 hn        1 B18      0.461800
@<TRIPOS>BOND
     1    1    2 ar  
     2    1    6 ar  
     3    1   15 1   
     4    2    3 ar  
     5    2   32 1   
     6    3    4 ar  
     7    3    7 1   
     8    4    5 ar  
     9    4    9 1   
    10    5    6 ar  
    11    5   33 1   
    12    6   34 1   
    13    7    8 2   
    14    7   10 1   
    15    8    9 1   
    16    8   13 1   
    17    9   35 1   
    18   10   11 1   
    19   10   31 1   
    20   10   36 1   
    21   11   12 1   
    22   11   37 1   
    23   11   38 1   
    24   12   13 1   
    25   12   39 1   
    26   13   14 2   
    27   15   16 2   
    28   15   17 1   
    29   17   18 1   
    30   17   40 1   
    31   18   19 1   
    32   18   22 2   
    33   19   20 1   
    34   20   21 2   
    35   20   41 1   
    36   21   22 1   
    37   21   23 1   
    38   23   24 1   
    39   23   25 2   
    40   24   26 1   
    41   24   42 1   
    42   24   56 1   
    43   26   27 1   
    44   26   43 1   
    45   26   44 1   
    46   27   28 1   
    47   27   45 1   
    48   27   46 1   
    49   28   29 1   
    50   28   30 1   
    51   28   57 1   
    52   29   47 1   
    53   29   48 1   
    54   29   49 1   
    55   30   50 1   
    56   30   51 1   
    57   30   52 1   
    58   31   53 1   
    59   31   54 1   
    60   31   55 1   
@<TRIPOS>SUBSTRUCTURE
     1 B18         1 TEMP              0 ****  ****    0 ROOT
