@<TRIPOS>MOLECULE
B18
   55    58     1     0     0
SMALL
bcc


@<TRIPOS>ATOM
      1 C01         1.8850    0.2750   -0.6570 ca        1 B18     -0.180600
      2 C02         3.0670   -0.4020   -0.3680 ca        1 B18     -0.008000
      3 C03         4.2220    0.3370   -0.1160 ca        1 B18     -0.110800
      4 C04         4.1710    1.7890   -0.1740 ca        1 B18     -0.009200
      5 C05         2.9700    2.4530   -0.4880 ca        1 B18     -0.148000
      6 C06         1.8450    1.6860   -0.7240 ca        1 B18     -0.081000
      7 C07         5.5820   -0.0030    0.2180 cc        1 B18     -0.076400
      8 C08         6.2810    1.2050    0.3440 cd        1 B18     -0.125300
      9 N09         5.4350    2.2920    0.1160 na        1 B18     -0.142400
     10 C10         6.2450   -1.3080    0.4020 c3        1 B18     -0.007500
     11 C11         7.5580   -1.1380    1.2000 c3        1 B18      0.099000
     12 N12         8.3130    0.0600    0.9410 n         1 B18     -0.560900
     13 C13         7.7190    1.2780    0.6680 c         1 B18      0.728700
     14 O14         8.3720    2.3400    0.6580 o         1 B18     -0.642500
     15 C15         0.6770   -0.5460   -0.9250 c         1 B18      0.681700
     16 O16         0.7300   -1.6510   -1.5040 o         1 B18     -0.591100
     17 N17        -0.5440   -0.0500   -0.4790 n         1 B18     -0.527400
     18 C18        -1.7500   -0.7210   -0.6750 cc        1 B18      0.482300
     19 S19        -1.8560   -2.2550   -1.4900 ss        1 B18      0.060700
     20 C20        -3.4960   -2.2750   -1.2800 cc        1 B18     -0.259400
     21 C21        -3.9370   -1.1400   -0.6020 cd        1 B18      0.300800
     22 N22        -2.9430   -0.2400   -0.2500 nd        1 B18     -0.684000
     23 C23        -5.3820   -0.9260   -0.2990 c         1 B18      0.591600
     24 N24        -5.7250    0.0830    0.5780 n         1 B18     -0.549900
     25 O25        -6.2400   -1.6840   -0.7980 o         1 B18     -0.613100
     26 C26        -7.0950    0.4300    0.8370 c3        1 B18      0.084000
     27 C27        -7.5880    1.6380    0.0040 c3        1 B18      0.141800
     28 N28        -8.8730    2.1460    0.4630 n3        1 B18     -0.736600
     29 C29        -9.1680    3.4520   -0.0860 c3        1 B18      0.154600
     30 C30        -9.9570    1.2070    0.2840 c3        1 B18      0.154600
     31 C31         6.5050   -1.9860   -0.9300 c3        1 B18     -0.093100
     32 H02         3.0900   -1.5030   -0.3470 ha        1 B18      0.160000
     33 H05         2.9310    3.5490   -0.5480 ha        1 B18      0.146000
     34 H06         0.9060    2.1960   -0.9930 ha        1 B18      0.139000
     35 HN09        5.7160    3.2390    0.1180 hn        1 B18      0.323700
     36 H10         5.5760   -1.9770    1.0160 hc        1 B18      0.069700
     37 H111        7.2970   -1.1760    2.3000 h1        1 B18      0.045200
     38 H112        8.2270   -2.0180    0.9750 h1        1 B18      0.045200
     39 HN12        9.2710    0.0610    1.2050 hn        1 B18      0.327500
     40 HN17       -0.5680    0.8100    0.0250 hn        1 B18      0.341500
     41 H20        -4.1710   -3.0620   -1.6250 h4        1 B18      0.205000
     42 HN24       -5.0350    0.7390    0.8570 hn        1 B18      0.323500
     43 H261       -7.7420   -0.4650    0.6110 h1        1 B18      0.069200
     44 H262       -7.1860    0.6720    1.9340 h1        1 B18      0.069200
     45 H271       -6.8390    2.4750    0.0970 h1        1 B18      0.035700
     46 H272       -7.6240    1.3330   -1.0830 h1        1 B18      0.035700
     47 H291       -9.2680    3.4510   -1.2070 h1        1 B18      0.032033
     48 H292      -10.1310    3.8200    0.3560 h1        1 B18      0.032033
     49 H293       -8.3490    4.1630    0.1970 h1        1 B18      0.032033
     50 H301       -9.7410    0.2840    0.8830 h1        1 B18      0.032033
     51 H302      -10.9070    1.6660    0.6660 h1        1 B18      0.032033
     52 H303      -10.1120    0.9070   -0.7890 h1        1 B18      0.032033
     53 H311        7.2210   -1.3880   -1.5440 hc        1 B18      0.045367
     54 H312        6.9380   -3.0020   -0.7650 hc        1 B18      0.045367
     55 H313        5.5500   -2.0920   -1.4990 hc        1 B18      0.045367
@<TRIPOS>BOND
     1    1    2 ar  
     2    1    6 ar  
     3    1   15 1   
     4    2    3 ar  
     5    2   32 1   
     6    3    4 ar  
     7    3    7 1   
     8    4    5 ar  
     9    4    9 1   
    10    5    6 ar  
    11    5   33 1   
    12    6   34 1   
    13    7    8 2   
    14    7   10 1   
    15    8    9 1   
    16    8   13 1   
    17    9   35 1   
    18   10   11 1   
    19   10   31 1   
    20   10   36 1   
    21   11   12 1   
    22   11   37 1   
    23   11   38 1   
    24   12   13 1   
    25   12   39 1   
    26   13   14 2   
    27   15   16 2   
    28   15   17 1   
    29   17   18 1   
    30   17   40 1   
    31   18   19 1   
    32   18   22 2   
    33   19   20 1   
    34   20   21 2   
    35   20   41 1   
    36   21   22 1   
    37   21   23 1   
    38   23   24 1   
    39   23   25 2   
    40   24   26 1   
    41   24   42 1   
    42   26   27 1   
    43   26   43 1   
    44   26   44 1   
    45   27   28 1   
    46   27   45 1   
    47   27   46 1   
    48   28   29 1   
    49   28   30 1   
    50   29   47 1   
    51   29   48 1   
    52   29   49 1   
    53   30   50 1   
    54   30   51 1   
    55   30   52 1   
    56   31   53 1   
    57   31   54 1   
    58   31   55 1   
@<TRIPOS>SUBSTRUCTURE
     1 B18         1 TEMP              0 ****  ****    0 ROOT
