@<TRIPOS>MOLECULE
B18
   57    60     1     0     0
SMALL
bcc


@<TRIPOS>ATOM
      1 C01         0.0540   -0.4470    0.3130 ca        1 B18     -0.216600
      2 C02         1.4290   -0.2240    0.1620 ca        1 B18      0.026000
      3 C03         2.2360   -0.1860    1.2920 ca        1 B18     -0.116800
      4 C04         1.6420   -0.3900    2.6080 ca        1 B18      0.005800
      5 C05         0.2580   -0.6330    2.7390 ca        1 B18     -0.137000
      6 C06        -0.5120   -0.6580    1.5950 ca        1 B18     -0.081000
      7 C07         3.6460    0.0210    1.5180 cc        1 B18     -0.069400
      8 C08         3.8450   -0.0580    2.9010 cd        1 B18     -0.110300
      9 N09         2.6390   -0.3080    3.5640 na        1 B18     -0.125400
     10 C10         4.7630    0.2830    0.5890 c3        1 B18     -0.012500
     11 C11         6.1130   -0.0520    1.2670 c3        1 B18      0.097000
     12 N12         6.2180    0.2660    2.6670 n         1 B18     -0.554900
     13 C13         5.1650    0.1240    3.5480 c         1 B18      0.723700
     14 O14         5.3050    0.1920    4.7830 o         1 B18     -0.619500
     15 C15        -0.7460   -0.4720   -0.9120 c         1 B18      0.710700
     16 O16        -0.2690   -0.6140   -2.0670 o         1 B18     -0.608100
     17 N17        -2.1450   -0.3090   -0.8490 n         1 B18     -0.529400
     18 C18        -2.8710   -0.3410   -2.0260 cc        1 B18      0.514300
     19 S19        -2.0280   -0.5750   -3.5610 ss        1 B18      0.322700
     20 C20        -3.4340   -0.5020   -4.3680 cc        1 B18     -0.240400
     21 C21        -4.5290   -0.3020   -3.5030 cd        1 B18      0.185800
     22 N22        -4.2080   -0.2080   -2.1420 nd        1 B18     -0.726000
     23 C23        -5.8720   -0.2040   -3.9930 c         1 B18      0.517600
     24 N24        -6.9380    0.0160   -2.8720 n4        1 B18     -0.680800
     25 O25        -6.3350   -0.2600   -5.1210 o         1 B18     -0.450100
     26 C26        -8.3100    0.1060   -3.4180 c3        1 B18      0.077800
     27 C27        -9.3780    0.3310   -2.3300 c3        1 B18      0.078800
     28 N28       -10.7700    0.3380   -2.8800 n4        1 B18     -0.674400
     29 C29       -11.7580    0.1500   -1.7750 c3        1 B18      0.077100
     30 C30       -11.0650    1.5930   -3.6280 c3        1 B18      0.077100
     31 C31         4.7470    1.7180    0.0980 c3        1 B18     -0.093100
     32 H02         1.8640   -0.0800   -0.8420 ha        1 B18      0.166000
     33 H05        -0.1890   -0.8050    3.7290 ha        1 B18      0.156000
     34 H06        -1.5850   -0.8740    1.7030 ha        1 B18      0.122000
     35 HN09        2.5420   -0.3900    4.5470 hn        1 B18      0.335700
     36 H10         4.6700   -0.4010   -0.3030 hc        1 B18      0.071700
     37 H111        6.3010   -1.1570    1.1250 h1        1 B18      0.055200
     38 H112        6.9290    0.5100    0.7280 h1        1 B18      0.055200
     39 HN12        7.1330    0.3570    3.0500 hn        1 B18      0.340500
     40 HN17       -2.6050   -0.1490    0.0200 hn        1 B18      0.356500
     41 H20        -3.5490   -0.5950   -5.4560 h4        1 B18      0.217000
     42 HN24       -6.6880    0.8770   -2.3720 hn        1 B18      0.468800
     43 H261       -8.3210    0.9520   -4.1680 hx        1 B18      0.129700
     44 H262       -8.5130   -0.8520   -3.9860 hx        1 B18      0.129700
     45 H271       -9.2080    1.3190   -1.8100 hx        1 B18      0.121200
     46 H272       -9.3190   -0.4920   -1.5570 hx        1 B18      0.121200
     47 H291      -12.7960    0.1700   -2.2100 hx        1 B18      0.119533
     48 H292      -11.6520    0.9820   -1.0270 hx        1 B18      0.119533
     49 H293      -11.5820   -0.8400   -1.2750 hx        1 B18      0.119533
     50 H301      -10.9880    2.4750   -2.9380 hx        1 B18      0.119533
     51 H302      -12.1130    1.5360   -4.0380 hx        1 B18      0.119533
     52 H303      -10.3420    1.7070   -4.4790 hx        1 B18      0.119533
     53 H311        3.7650    1.9510   -0.3800 hc        1 B18      0.046700
     54 H312        5.5570    1.8730   -0.6550 hc        1 B18      0.046700
     55 H313        4.9080    2.4280    0.9450 hc        1 B18      0.046700
     56 H242       -6.8590   -0.7660   -2.2120 hn        1 B18      0.468800
     57 H281      -10.8680   -0.4550   -3.5330 hn        1 B18      0.461800
@<TRIPOS>BOND
     1    1    2 ar  
     2    1    6 ar  
     3    1   15 1   
     4    2    3 ar  
     5    2   32 1   
     6    3    4 ar  
     7    3    7 1   
     8    4    5 ar  
     9    4    9 1   
    10    5    6 ar  
    11    5   33 1   
    12    6   34 1   
    13    7    8 2   
    14    7   10 1   
    15    8    9 1   
    16    8   13 1   
    17    9   35 1   
    18   10   11 1   
    19   10   31 1   
    20   10   36 1   
    21   11   12 1   
    22   11   37 1   
    23   11   38 1   
    24   12   13 1   
    25   12   39 1   
    26   13   14 2   
    27   15   16 2   
    28   15   17 1   
    29   17   18 1   
    30   17   40 1   
    31   18   19 1   
    32   18   22 2   
    33   19   20 1   
    34   20   21 2   
    35   20   41 1   
    36   21   22 1   
    37   21   23 1   
    38   23   24 1   
    39   23   25 2   
    40   24   26 1   
    41   24   42 1   
    42   24   56 1   
    43   26   27 1   
    44   26   43 1   
    45   26   44 1   
    46   27   28 1   
    47   27   45 1   
    48   27   46 1   
    49   28   29 1   
    50   28   30 1   
    51   28   57 1   
    52   29   47 1   
    53   29   48 1   
    54   29   49 1   
    55   30   50 1   
    56   30   51 1   
    57   30   52 1   
    58   31   53 1   
    59   31   54 1   
    60   31   55 1   
@<TRIPOS>SUBSTRUCTURE
     1 B18         1 TEMP              0 ****  ****    0 ROOT
