@<TRIPOS>MOLECULE
B19
   44    45     1     0     0
SMALL
bcc


@<TRIPOS>ATOM
      1 C11        -3.8400    0.7780   -0.5570 c3        1 B19     -0.226500
      2 C10        -2.3510    1.1170   -0.6870 c3        1 B19      0.201000
      3 C12        -2.1810    2.5310   -1.2910 c3        1 B19     -0.226500
      4 O3         -1.6220    1.0380    0.7860 os        1 B19     -0.277000
      5 O4         -1.8020    0.3030   -1.3790 os        1 B19     -0.286000
      6 C3         -0.4340    0.1020   -0.7840 c3        1 B19     -0.011000
      7 C4          0.6630    0.6490   -1.5190 c3        1 B19      0.003000
      8 O5          0.8440   -0.1920   -2.5790 os        1 B19     -0.293000
      9 C7          2.0440   -0.9960   -2.2310 c3        1 B19      0.201000
     10 C8          3.0380   -1.0060   -3.4110 c3        1 B19     -0.227500
     11 C9          1.6440   -2.3950   -1.8830 c3        1 B19     -0.227500
     12 O6          2.6680   -0.3170   -1.0310 os        1 B19     -0.285000
     13 C5          2.0530    0.8370   -0.9350 c3        1 B19     -0.013000
     14 C6          1.9910    1.2940    0.5120 c3        1 B19     -0.052000
     15 O2          0.5700    1.9750    0.9100 os        1 B19     -0.293000
     16 C2         -0.4670    0.5610    0.6090 c3        1 B19      0.142000
     17 C1         -0.1710   -0.5920    1.6040 c3        1 B19     -0.012000
     18 N2         -0.5840   -0.2000    2.9400 n3        1 B19     -0.864000
     19 S1         -0.9410   -1.3610    4.0700 s4        1 B19      2.034800
     20 O7         -0.3980   -2.6390    3.6950 o         1 B19     -0.547400
     21 O8         -2.3500   -1.6520    4.0930 o         1 B19     -0.547400
     22 N1         -0.3960   -0.8890    5.5750 n2        1 B19     -0.955000
     23 H111       -4.2430    1.3390    0.1370 hc        1 B19      0.095667
     24 H112       -4.2960    0.9470   -1.4250 hc        1 B19      0.095667
     25 H113       -3.9410   -0.1580   -0.3160 hc        1 B19      0.095667
     26 H121       -1.3080    2.8760   -1.0620 hc        1 B19      0.095667
     27 H122       -2.2710    2.4820   -2.2820 hc        1 B19      0.095667
     28 H123       -2.8790    3.1310   -0.9260 hc        1 B19      0.095667
     29 H3         -0.2860   -0.8720   -0.7530 h1        1 B19      0.143000
     30 H4          0.3760    1.5100   -1.8670 h1        1 B19      0.134000
     31 H81         2.6910   -1.5890   -4.1300 hc        1 B19      0.094333
     32 H82         3.1490   -0.0850   -3.7580 hc        1 B19      0.094333
     33 H83         3.8980   -1.3440   -3.1070 hc        1 B19      0.094333
     34 H91         2.3610   -3.0180   -2.1510 hc        1 B19      0.094333
     35 H92         0.8220   -2.6250   -2.3540 hc        1 B19      0.094333
     36 H93         1.4960   -2.4620   -0.9210 hc        1 B19      0.094333
     37 H5          2.5340    1.5010   -1.4610 h1        1 B19      0.126000
     38 H61         2.7090    1.9480    0.6660 h1        1 B19      0.122500
     39 H62         2.1420    0.5130    1.0960 h1        1 B19      0.122500
     40 H11        -0.6650   -1.3950    1.3310 h1        1 B19      0.117000
     41 H12         0.7860   -0.7840    1.6040 h1        1 B19      0.117000
     42 HN2        -0.5580    0.6690    3.1810 hn        1 B19      0.246000
     43 HN11       -0.8260   -0.2120    6.0290 hn        1 B19      0.248000
     44 HN12        0.3290   -1.3200    5.9610 hn        1 B19      0.248000
@<TRIPOS>BOND
     1    1    2 1   
     2    1   23 1   
     3    1   24 1   
     4    1   25 1   
     5    2    3 1   
     6    2    4 1   
     7    2    5 1   
     8    3   26 1   
     9    3   27 1   
    10    3   28 1   
    11    4   16 1   
    12    5    6 1   
    13    6    7 1   
    14    6   16 1   
    15    6   29 1   
    16    7    8 1   
    17    7   13 1   
    18    7   30 1   
    19    8    9 1   
    20    9   10 1   
    21    9   11 1   
    22    9   12 1   
    23   10   31 1   
    24   10   32 1   
    25   10   33 1   
    26   11   34 1   
    27   11   35 1   
    28   11   36 1   
    29   12   13 1   
    30   13   14 1   
    31   13   37 1   
    32   14   15 1   
    33   14   38 1   
    34   14   39 1   
    35   15   16 1   
    36   16   17 1   
    37   17   18 1   
    38   17   40 1   
    39   17   41 1   
    40   18   19 1   
    41   18   42 1   
    42   19   20 1   
    43   19   21 1   
    44   22   43 1   
    45   22   44 1   
@<TRIPOS>SUBSTRUCTURE
     1 B19         1 TEMP              0 ****  ****    0 ROOT
