@<TRIPOS>MOLECULE
B19
   46    48     1     0     0
SMALL
bcc


@<TRIPOS>ATOM
      1 C11         0.1640    0.8960   -0.8470 c3        1 B19     -0.118600
      2 C10         1.3740    1.0330    0.0550 c3        1 B19      0.360600
      3 C12         1.5970    2.4400    0.5700 c3        1 B19     -0.118600
      4 O3          1.2360    0.1190    1.1940 os        1 B19     -0.466600
      5 O4          2.5760    0.5770   -0.5920 os        1 B19     -0.397600
      6 C3          2.7540   -0.8170   -0.3500 c3        1 B19      0.119100
      7 C4          4.2440   -1.1520   -0.3970 c3        1 B19      0.121100
      8 O5          4.3250   -2.5740   -0.6010 os        1 B19     -0.442600
      9 C7          5.3540   -3.1210    0.2390 c3        1 B19      0.342600
     10 C8          6.7240   -3.0510   -0.4070 c3        1 B19     -0.120100
     11 C9          4.9620   -4.5320    0.6390 c3        1 B19     -0.120100
     12 O6          5.2630   -2.2570    1.3990 os        1 B19     -0.507600
     13 C5          4.9970   -0.9170    0.9310 c3        1 B19      0.080100
     14 C6          4.1490   -0.2020    1.9680 c3        1 B19      0.134400
     15 O2          2.9340   -0.9380    2.1700 os        1 B19     -0.532600
     16 C2          2.0800   -0.9940    1.0360 c3        1 B19      0.288600
     17 C1          1.2710   -2.3040    1.1630 c3        1 B19      0.101800
     18 N2          0.7110   -2.4810    2.5370 n4        1 B19     -0.741900
     19 S1          1.7300   -3.2030    3.8570 s6        1 B19      1.419800
     20 O7          1.2610   -4.4920    3.9350 o         1 B19     -0.449800
     21 O8          1.7800   -2.2590    4.8460 o         1 B19     -0.449800
     22 N1          3.3920   -3.3870    3.2440 n4        1 B19     -0.864500
     23 H111       -0.7530    1.2270   -0.3030 hc        1 B19      0.078200
     24 H112        0.0340   -0.1600   -1.1810 hc        1 B19      0.078200
     25 H113        0.3060    1.5440   -1.7470 hc        1 B19      0.078200
     26 H121        0.6640    2.8060    1.0630 hc        1 B19      0.078200
     27 H122        1.8480    3.1070   -0.2920 hc        1 B19      0.078200
     28 H123        2.4350    2.4650    1.3060 hc        1 B19      0.078200
     29 H3          2.2060   -1.4110   -1.1340 h1        1 B19      0.108700
     30 H4          4.7260   -0.6290   -1.2670 h1        1 B19      0.141700
     31 H81         7.0020   -1.9920   -0.6250 hc        1 B19      0.071700
     32 H82         6.7110   -3.6230   -1.3670 hc        1 B19      0.071700
     33 H83         7.4870   -3.4940    0.2780 hc        1 B19      0.071700
     34 H91         5.2530   -5.2360   -0.1820 hc        1 B19      0.071700
     35 H92         3.8590   -4.6140    0.7860 hc        1 B19      0.071700
     36 H93         5.5060   -4.8250    1.5690 hc        1 B19      0.071700
     37 H5          5.9760   -0.3880    0.7790 h1        1 B19      0.131700
     38 H61         4.6300   -0.1910    2.9830 h1        1 B19      0.113700
     39 H62         3.9090    0.8410    1.6260 h1        1 B19      0.113700
     40 H11         0.4120   -2.2370    0.4240 hx        1 B19      0.135700
     41 H12         1.9070   -3.1910    0.8840 hx        1 B19      0.135700
     42 HN2         0.4040   -1.5270    2.8260 hn        1 B19      0.511800
     43 HN11        3.6420   -4.3640    3.0220 hn        1 B19      0.519467
     44 HN12        3.6510   -2.8290    2.3830 hn        1 B19      0.519467
     45 H22        -0.1520   -3.0430    2.4360 hn        1 B19      0.511800
     46 H13         4.0850   -3.0620    3.9410 hn        1 B19      0.519467
@<TRIPOS>BOND
     1    1    2 1   
     2    1   23 1   
     3    1   24 1   
     4    1   25 1   
     5    2    3 1   
     6    2    4 1   
     7    2    5 1   
     8    3   26 1   
     9    3   27 1   
    10    3   28 1   
    11    4   16 1   
    12    5    6 1   
    13    6    7 1   
    14    6   16 1   
    15    6   29 1   
    16    7    8 1   
    17    7   13 1   
    18    7   30 1   
    19    8    9 1   
    20    9   10 1   
    21    9   11 1   
    22    9   12 1   
    23   10   31 1   
    24   10   32 1   
    25   10   33 1   
    26   11   34 1   
    27   11   35 1   
    28   11   36 1   
    29   12   13 1   
    30   13   14 1   
    31   13   37 1   
    32   14   15 1   
    33   14   38 1   
    34   14   39 1   
    35   15   16 1   
    36   16   17 1   
    37   17   18 1   
    38   17   40 1   
    39   17   41 1   
    40   18   19 1   
    41   18   42 1   
    42   18   45 1   
    43   19   20 2   
    44   19   21 2   
    45   19   22 1   
    46   22   43 1   
    47   22   44 1   
    48   22   46 1   
@<TRIPOS>SUBSTRUCTURE
     1 B19         1 TEMP              0 ****  ****    0 ROOT
