@<TRIPOS>MOLECULE
B19
   46    48     1     0     0
SMALL
bcc


@<TRIPOS>ATOM
      1 C11         0.1950    0.9880   -0.7720 c3        1 B19     -0.118600
      2 C10         1.3710    1.0730    0.1810 c3        1 B19      0.360600
      3 C12         1.5540    2.4410    0.8060 c3        1 B19     -0.118600
      4 O3          1.2060    0.0760    1.2440 os        1 B19     -0.466600
      5 O4          2.6010    0.6800   -0.4540 os        1 B19     -0.397600
      6 C3          2.7910   -0.7260   -0.3080 c3        1 B19      0.119100
      7 C4          4.2860   -1.0380   -0.3250 c3        1 B19      0.121100
      8 O5          4.3960   -2.4400   -0.6290 os        1 B19     -0.442600
      9 C7          5.4030   -3.0340    0.2060 c3        1 B19      0.342600
     10 C8          6.7930   -2.9010   -0.3830 c3        1 B19     -0.120100
     11 C9          5.0170   -4.4760    0.4880 c3        1 B19     -0.120100
     12 O6          5.2580   -2.2600    1.4220 os        1 B19     -0.507600
     13 C5          4.9890   -0.8920    1.0440 c3        1 B19      0.080100
     14 C6          4.0940   -0.2660    2.0990 c3        1 B19      0.134400
     15 O2          2.8840   -1.0300    2.2010 os        1 B19     -0.532600
     16 C2          2.0710   -1.0120    1.0360 c3        1 B19      0.288600
     17 C1          1.2770   -2.3370    1.0380 c3        1 B19      0.101800
     18 N2          0.6710   -2.6220    2.3730 ny        1 B19     -0.741900
     19 S1          1.6550   -3.4250    3.6740 s6        1 B19      1.419800
     20 O7          1.2010   -4.7220    3.6420 o         1 B19     -0.449800
     21 O8          1.6560   -2.5540    4.7290 o         1 B19     -0.449800
     22 N1          3.3390   -3.5450    3.1100 nz        1 B19     -0.864500
     23 H111        0.0930   -0.0420   -1.1870 hc        1 B19      0.078200
     24 H112        0.3600    1.7030   -1.6170 hc        1 B19      0.078200
     25 H113       -0.7450    1.2680   -0.2390 hc        1 B19      0.078200
     26 H121        2.3650    2.4220    1.5710 hc        1 B19      0.078200
     27 H122        1.8260    3.1730    0.0040 hc        1 B19      0.078200
     28 H123        0.5990    2.7580    1.2900 hc        1 B19      0.078200
     29 H3          2.2810   -1.2660   -1.1530 h1        1 B19      0.108700
     30 H4          4.7910   -0.4470   -1.1360 h1        1 B19      0.141700
     31 H81         6.8230   -3.4010   -1.3820 hc        1 B19      0.071700
     32 H82         7.5380   -3.3830    0.2950 hc        1 B19      0.071700
     33 H83         7.0630   -1.8250   -0.5130 hc        1 B19      0.071700
     34 H91         5.3480   -5.1140   -0.3720 hc        1 B19      0.071700
     35 H92         5.5320   -4.8300    1.4130 hc        1 B19      0.071700
     36 H93         3.9110   -4.5820    0.5880 hc        1 B19      0.071700
     37 H5          5.9640   -0.3410    0.9660 h1        1 B19      0.131700
     38 H61         3.8510    0.7970    1.8250 h1        1 B19      0.113700
     39 H62         4.5380   -0.3240    3.1280 h1        1 B19      0.113700
     40 H11         1.9360   -3.1930    0.7180 hx        1 B19      0.135700
     41 H12         0.4450   -2.2270    0.2750 hx        1 B19      0.135700
     42 HN2         0.3400   -1.6950    2.7200 hn        1 B19      0.511800
     43 HN11        3.6200   -2.9220    2.3020 hn        1 B19      0.519467
     44 HN12        4.0030   -3.2640    3.8530 hn        1 B19      0.519467
     45 H22        -0.1780   -3.1860    2.2000 hn        1 B19      0.511800
     46 H13         3.6100   -4.5000    2.8260 hn        1 B19      0.519467
@<TRIPOS>BOND
     1    1    2 1   
     2    1   23 1   
     3    1   24 1   
     4    1   25 1   
     5    2    3 1   
     6    2    4 1   
     7    2    5 1   
     8    3   26 1   
     9    3   27 1   
    10    3   28 1   
    11    4   16 1   
    12    5    6 1   
    13    6    7 1   
    14    6   16 1   
    15    6   29 1   
    16    7    8 1   
    17    7   13 1   
    18    7   30 1   
    19    8    9 1   
    20    9   10 1   
    21    9   11 1   
    22    9   12 1   
    23   10   31 1   
    24   10   32 1   
    25   10   33 1   
    26   11   34 1   
    27   11   35 1   
    28   11   36 1   
    29   12   13 1   
    30   13   14 1   
    31   13   37 1   
    32   14   15 1   
    33   14   38 1   
    34   14   39 1   
    35   15   16 1   
    36   16   17 1   
    37   17   18 1   
    38   17   40 1   
    39   17   41 1   
    40   18   19 1   
    41   18   42 1   
    42   18   45 1   
    43   19   20 2   
    44   19   21 2   
    45   19   22 1   
    46   22   43 1   
    47   22   44 1   
    48   22   46 1   
@<TRIPOS>SUBSTRUCTURE
     1 B19         1 TEMP              0 ****  ****    0 ROOT
