@<TRIPOS>MOLECULE
B19
   44    46     1     0     0
SMALL
bcc


@<TRIPOS>ATOM
      1 C11        -1.2190   -3.1680    0.6110 c3        1 B19     -0.113600
      2 C10        -0.0700   -2.6120   -0.2190 c3        1 B19      0.349600
      3 C12         0.3690   -3.5720   -1.3150 c3        1 B19     -0.113600
      4 O3         -0.4420   -1.3620   -0.8130 os        1 B19     -0.446600
      5 O4          1.0540   -2.3220    0.6290 os        1 B19     -0.439600
      6 C3          1.2270   -0.9120    0.7950 c3        1 B19      0.096100
      7 C4          2.6900   -0.5790    0.4900 c3        1 B19      0.124100
      8 O5          3.0940    0.5140    1.3210 os        1 B19     -0.438600
      9 C7          3.5340    1.6270    0.5300 c3        1 B19      0.349600
     10 C8          4.8960    2.0840    1.0350 c3        1 B19     -0.112600
     11 C9          2.5000    2.7430    0.5680 c3        1 B19     -0.112600
     12 O6          3.6800    1.1200   -0.8020 os        1 B19     -0.432600
     13 C5          3.0130   -0.1390   -0.9440 c3        1 B19      0.096100
     14 C6          1.7980    0.0040   -1.8520 c3        1 B19      0.112400
     15 O2          0.6730    0.5440   -1.1680 os        1 B19     -0.401600
     16 C2          0.1710   -0.2690   -0.1340 c3        1 B19      0.299600
     17 C1         -0.8630    0.5770    0.6530 c3        1 B19      0.243800
     18 N2         -2.0040    0.9730   -0.1040 n3        1 B19     -0.909100
     19 S1         -3.5340    0.5350    0.2450 s6        1 B19      1.590800
     20 O7         -3.5040   -0.6110    1.0880 o         1 B19     -0.655300
     21 O8         -4.2590    0.4470   -0.9700 o         1 B19     -0.655300
     22 N1         -4.1430    1.7570    1.1020 n3        1 B19     -1.026700
     23 H111       -1.9450   -3.6870   -0.0580 hc        1 B19      0.059200
     24 H112       -0.8180   -3.8910    1.3590 hc        1 B19      0.059200
     25 H113       -1.7550   -2.3430    1.1420 hc        1 B19      0.059200
     26 H121        1.2820   -3.1870   -1.8270 hc        1 B19      0.059200
     27 H122        0.5950   -4.5660   -0.8620 hc        1 B19      0.059200
     28 H123       -0.4530   -3.6760   -2.0620 hc        1 B19      0.059200
     29 H3          1.0190   -0.6730    1.8740 h1        1 B19      0.091700
     30 H4          3.3210   -1.4600    0.7980 h1        1 B19      0.093700
     31 H81         4.7880    2.4840    2.0690 hc        1 B19      0.055033
     32 H82         5.6090    1.2270    1.0450 hc        1 B19      0.055033
     33 H83         5.2890    2.8800    0.3600 hc        1 B19      0.055033
     34 H91         2.8920    3.6310    0.0190 hc        1 B19      0.055033
     35 H92         1.5550    2.4010    0.0790 hc        1 B19      0.055033
     36 H93         2.2900    3.0200    1.6270 hc        1 B19      0.055033
     37 H5          3.7630   -0.8220   -1.4290 h1        1 B19      0.084700
     38 H61         1.9990    0.7550   -2.6630 h1        1 B19      0.077700
     39 H62         1.5320   -0.9940   -2.2900 h1        1 B19      0.077700
     40 H11        -1.1960   -0.0470    1.5330 h1        1 B19      0.067700
     41 H12        -0.3090    1.4870    1.0270 h1        1 B19      0.067700
     42 HN2        -1.7680    1.4040   -0.9690 hn        1 B19      0.461800
     43 HN11       -4.6120    2.5270    0.6970 hn        1 B19      0.446300
     44 HN12       -4.1190    1.7990    2.0890 hn        1 B19      0.446300
@<TRIPOS>BOND
     1    1    2 1   
     2    1   23 1   
     3    1   24 1   
     4    1   25 1   
     5    2    3 1   
     6    2    4 1   
     7    2    5 1   
     8    3   26 1   
     9    3   27 1   
    10    3   28 1   
    11    4   16 1   
    12    5    6 1   
    13    6    7 1   
    14    6   16 1   
    15    6   29 1   
    16    7    8 1   
    17    7   13 1   
    18    7   30 1   
    19    8    9 1   
    20    9   10 1   
    21    9   11 1   
    22    9   12 1   
    23   10   31 1   
    24   10   32 1   
    25   10   33 1   
    26   11   34 1   
    27   11   35 1   
    28   11   36 1   
    29   12   13 1   
    30   13   14 1   
    31   13   37 1   
    32   14   15 1   
    33   14   38 1   
    34   14   39 1   
    35   15   16 1   
    36   16   17 1   
    37   17   18 1   
    38   17   40 1   
    39   17   41 1   
    40   18   19 1   
    41   18   42 1   
    42   19   20 2   
    43   19   21 2   
    44   19   22 1   
    45   22   43 1   
    46   22   44 1   
@<TRIPOS>SUBSTRUCTURE
     1 B19         1 TEMP              0 ****  ****    0 ROOT
