@<TRIPOS>MOLECULE
B19
   46    48     1     0     0
SMALL
bcc


@<TRIPOS>ATOM
      1 C11         0.2610    1.0560   -0.7820 c3        1 B19     -0.118600
      2 C10         1.4780    1.1220    0.1190 c3        1 B19      0.360600
      3 C12         1.7600    2.5050    0.6670 c3        1 B19     -0.118600
      4 O3          1.3040    0.1870    1.2370 os        1 B19     -0.466600
      5 O4          2.6590    0.6310   -0.5420 os        1 B19     -0.397600
      6 C3          2.7800   -0.7740   -0.3330 c3        1 B19      0.119100
      7 C4          4.2540   -1.1690   -0.3920 c3        1 B19      0.121100
      8 O5          4.2760   -2.5880   -0.6300 os        1 B19     -0.442600
      9 C7          5.2830   -3.1960    0.1950 c3        1 B19      0.342600
     10 C8          6.6540   -3.1680   -0.4540 c3        1 B19     -0.120100
     11 C9          4.8340   -4.6000    0.5630 c3        1 B19     -0.120100
     12 O6          5.2300   -2.3580    1.3750 os        1 B19     -0.507600
     13 C5          5.0190   -0.9970    0.9390 c3        1 B19      0.080100
     14 C6          4.2040   -0.2720    1.9950 c3        1 B19      0.134400
     15 O2          2.9590   -0.9620    2.1830 os        1 B19     -0.532600
     16 C2          2.1010   -0.9560    1.0500 c3        1 B19      0.288600
     17 C1          1.2390   -2.2340    1.1490 c3        1 B19      0.101800
     18 N2          0.6740   -2.4200    2.5200 n4        1 B19     -0.741900
     19 S1          1.6670   -3.2130    3.8210 s6        1 B19      1.419800
     20 O7          1.1440   -4.4830    3.8710 o         1 B19     -0.449800
     21 O8          1.7580   -2.2940    4.8300 o         1 B19     -0.449800
     22 N1          3.3170   -3.4520    3.1980 n4        1 B19     -0.864500
     23 H111        0.0870    0.0140   -1.1410 hc        1 B19      0.078200
     24 H112       -0.6400    1.4120   -0.2280 hc        1 B19      0.078200
     25 H113        0.4290    1.7190   -1.6670 hc        1 B19      0.078200
     26 H121        0.8440    2.8980    1.1710 hc        1 B19      0.078200
     27 H122        2.6000    2.4780    1.4010 hc        1 B19      0.078200
     28 H123        2.0360    3.1820   -0.1800 hc        1 B19      0.078200
     29 H3          2.2060   -1.3260   -1.1300 h1        1 B19      0.108700
     30 H4          4.7560   -0.6460   -1.2510 h1        1 B19      0.141700
     31 H81         6.9740   -2.1170   -0.6480 hc        1 B19      0.071700
     32 H82         6.6150   -3.7170   -1.4270 hc        1 B19      0.071700
     33 H83         7.3990   -3.6580    0.2180 hc        1 B19      0.071700
     34 H91         5.0950   -5.2950   -0.2760 hc        1 B19      0.071700
     35 H92         5.3670   -4.9360    1.4830 hc        1 B19      0.071700
     36 H93         3.7280   -4.6390    0.7110 hc        1 B19      0.071700
     37 H5          6.0180   -0.5050    0.7960 h1        1 B19      0.131700
     38 H61         4.6860   -0.3050    3.0080 h1        1 B19      0.113700
     39 H62         4.0060    0.7880    1.6780 h1        1 B19      0.113700
     40 H11         1.8370   -3.1390    0.8480 hx        1 B19      0.135700
     41 H12         0.3820   -2.1150    0.4140 hx        1 B19      0.135700
     42 HN2         0.4080   -1.4610    2.8320 hn        1 B19      0.511800
     43 HN11        4.0250   -3.1730    3.9000 hn        1 B19      0.519467
     44 HN12        3.5980   -2.8850    2.3490 hn        1 B19      0.519467
     45 H22        -0.2100   -2.9440    2.4090 hn        1 B19      0.511800
     46 H13         3.5260   -4.4330    2.9530 hn        1 B19      0.519467
@<TRIPOS>BOND
     1    1    2 1   
     2    1   23 1   
     3    1   24 1   
     4    1   25 1   
     5    2    3 1   
     6    2    4 1   
     7    2    5 1   
     8    3   26 1   
     9    3   27 1   
    10    3   28 1   
    11    4   16 1   
    12    5    6 1   
    13    6    7 1   
    14    6   16 1   
    15    6   29 1   
    16    7    8 1   
    17    7   13 1   
    18    7   30 1   
    19    8    9 1   
    20    9   10 1   
    21    9   11 1   
    22    9   12 1   
    23   10   31 1   
    24   10   32 1   
    25   10   33 1   
    26   11   34 1   
    27   11   35 1   
    28   11   36 1   
    29   12   13 1   
    30   13   14 1   
    31   13   37 1   
    32   14   15 1   
    33   14   38 1   
    34   14   39 1   
    35   15   16 1   
    36   16   17 1   
    37   17   18 1   
    38   17   40 1   
    39   17   41 1   
    40   18   19 1   
    41   18   42 1   
    42   18   45 1   
    43   19   20 2   
    44   19   21 2   
    45   19   22 1   
    46   22   43 1   
    47   22   44 1   
    48   22   46 1   
@<TRIPOS>SUBSTRUCTURE
     1 B19         1 TEMP              0 ****  ****    0 ROOT
