@<TRIPOS>MOLECULE
B1E
   59    53     1     0     0
SMALL
bcc


@<TRIPOS>ATOM
      1 C1         -1.1300    3.0670   -4.6010 c1        1 B1E     -0.129000
      2 C2         -0.1750    3.9590   -5.0410 c1        1 B1E     -0.005000
      3 C3          0.9010    4.3140   -4.1980 c1        1 B1E     -0.088000
      4 C4          0.9980    3.7620   -2.9210 c1        1 B1E     -0.141000
      5 C5          0.0330    2.8600   -2.4760 c1        1 B1E      0.044000
      6 C6         -1.0310    2.5080   -3.3090 c2        1 B1E     -0.127000
      7 C7         -2.1800    2.5530   -5.5590 c2        1 B1E      0.343000
      8 N8         -2.1810    2.9870   -6.8990 n         1 B1E     -0.292000
      9 C9         -1.2090    3.9410   -7.3430 c2        1 B1E      0.054000
     10 N10        -0.1910    4.4200   -6.4280 n2        1 B1E     -0.177000
     11 O11        -3.0650    1.8170   -5.1560 o         1 B1E     -0.352000
     12 N12         0.5490    1.5870   -2.9150 n2        1 B1E     -0.236000
     13 C13         1.2270    0.7240   -1.9820 c2        1 B1E      0.036000
     14 C14         2.3400   -0.0070   -2.3940 c2        1 B1E     -0.076000
     15 C15         2.9290   -0.9240   -1.5290 c1        1 B1E     -0.105000
     16 C16         2.4080   -1.1110   -0.2510 c1        1 B1E     -0.150000
     17 C17         1.2970   -0.3810    0.1610 c1        1 B1E      0.083000
     18 C18         0.7060    0.5370   -0.7050 c2        1 B1E     -0.210000
     19 C19         2.8750    0.1520   -3.8190 c3        1 B1E     -0.173000
     20 N20         0.7250   -0.6170    1.4550 n2        1 B1E     -0.323000
     21 C21         0.7870   -1.9260    2.0400 c1        1 B1E      0.354000
     22 C22         0.0930   -2.2000    3.3780 c1        1 B1E     -0.124000
     23 O23         1.3260   -2.8370    1.4370 o         1 B1E     -0.335000
     24 C24         0.5060   -2.3720    4.7000 c1        1 B1E     -0.069000
     25 C25        -0.4360   -2.6030    5.6980 c1        1 B1E     -0.077000
     26 C26        -1.7900   -2.6620    5.3780 c2        1 B1E     -0.102000
     27 C27        -2.2020   -2.4900    4.0570 c1        1 B1E     -0.134000
     28 C28        -1.2600   -2.2590    3.0580 c1        1 B1E     -0.103000
     29 C29         0.0150   -2.7550    7.1610 c2        1 B1E      0.085000
     30 C30         1.5360   -2.6730    7.2350 c1        1 B1E     -0.139000
     31 C31        -0.4510   -4.1120    7.7010 c3        1 B1E     -0.207500
     32 C32        -0.6000   -1.6310    8.0060 c3        1 B1E     -0.207500
     33 C33        -3.1100    2.4230   -7.8330 c3        1 B1E     -0.086000
     34 N34         2.6800   -2.6110    7.2910 n1        1 B1E     -0.037000
     35 H1          1.5820    4.9500   -4.5120 ha        1 B1E      0.154000
     36 H2          1.7480    4.0100   -2.3340 ha        1 B1E      0.152000
     37 H3         -1.7120    1.8720   -2.9950 ha        1 B1E      0.160000
     38 H4         -1.2100    4.2440   -8.2800 h5        1 B1E      0.182000
     39 H5          0.4260    1.3170   -3.7810 hn        1 B1E      0.200000
     40 H6          3.7130   -1.4400   -1.8200 ha        1 B1E      0.140000
     41 H7          2.8240   -1.7570    0.3580 ha        1 B1E      0.176000
     42 H8         -0.0770    1.0520   -0.4140 ha        1 B1E      0.130000
     43 H9          3.2910   -0.6910   -4.1090 hc        1 B1E      0.088333
     44 H10         2.1360    0.3770   -4.4230 hc        1 B1E      0.088333
     45 H11         3.5440    0.8710   -3.8380 hc        1 B1E      0.088333
     46 H12         0.3260    0.0710    1.9120 hn        1 B1E      0.232000
     47 H13         1.4600   -2.3300    4.9250 ha        1 B1E      0.165000
     48 H14        -2.4550   -2.8250    6.0820 ha        1 B1E      0.138000
     49 H15        -3.1580   -2.5320    3.8310 ha        1 B1E      0.141000
     50 H16        -1.5500   -2.1380    2.1290 ha        1 B1E      0.141000
     51 H17        -0.0290   -4.8330    7.1840 hc        1 B1E      0.090000
     52 H18        -1.4280   -4.1790    7.6190 hc        1 B1E      0.090000
     53 H19        -0.1950   -4.1940    8.6480 hc        1 B1E      0.090000
     54 H20        -0.4140   -1.7970    8.9570 hc        1 B1E      0.090000
     55 H21        -1.5710   -1.6060    7.8620 hc        1 B1E      0.090000
     56 H22        -0.2070   -0.7690    7.7410 hc        1 B1E      0.090000
     57 H23        -4.0240    2.5160   -7.4840 h1        1 B1E      0.096667
     58 H24        -3.0380    2.8950   -8.6920 h1        1 B1E      0.096667
     59 H25        -2.9050    1.4720   -7.9650 h1        1 B1E      0.096667
@<TRIPOS>BOND
     1    1    6 1   
     2    1    7 1   
     3    2    3 1   
     4    2   10 1   
     5    3   35 1   
     6    4    5 1   
     7    4   36 1   
     8    5    6 1   
     9    6   37 1   
    10    7    8 1   
    11    7   11 1   
    12    8    9 1   
    13    8   33 1   
    14    9   10 1   
    15    9   38 1   
    16   12   13 1   
    17   12   39 1   
    18   13   14 1   
    19   13   18 1   
    20   14   15 1   
    21   14   19 1   
    22   15   40 1   
    23   16   17 1   
    24   16   41 1   
    25   17   18 1   
    26   18   42 1   
    27   19   43 1   
    28   19   44 1   
    29   19   45 1   
    30   20   21 1   
    31   20   46 1   
    32   21   23 1   
    33   22   28 1   
    34   24   25 1   
    35   24   47 1   
    36   25   26 1   
    37   26   27 1   
    38   26   48 1   
    39   27   49 1   
    40   28   50 1   
    41   29   30 1   
    42   29   31 1   
    43   29   32 1   
    44   30   34 1   
    45   31   51 1   
    46   31   52 1   
    47   31   53 1   
    48   32   54 1   
    49   32   55 1   
    50   32   56 1   
    51   33   57 1   
    52   33   58 1   
    53   33   59 1   
@<TRIPOS>SUBSTRUCTURE
     1 B1E         1 TEMP              0 ****  ****    0 ROOT
