@<TRIPOS>MOLECULE
B1E
   61    64     1     0     0
SMALL
bcc


@<TRIPOS>ATOM
      1 C1          0.6710    0.8450    0.5480 ca        1 B1E     -0.213600
      2 C2          1.7360    0.0540    0.0310 ca        1 B1E      0.259400
      3 C3          1.8170   -1.3120    0.4400 ca        1 B1E     -0.095000
      4 C4          0.8960   -1.8380    1.3160 ca        1 B1E     -0.089000
      5 C5         -0.1480   -1.0230    1.8270 ca        1 B1E     -0.135400
      6 C6         -0.2630    0.3140    1.4410 ca        1 B1E     -0.003000
      7 C7          0.5580    2.2670    0.1450 c         1 B1E      0.703100
      8 N8          1.5670    2.7410   -0.7270 n         1 B1E     -0.369300
      9 C9          2.5530    1.8690   -1.1590 cc        1 B1E      0.553800
     10 N10         2.6720    0.5890   -0.8380 nd        1 B1E     -0.626100
     11 O11        -0.3620    3.0040    0.5350 o         1 B1E     -0.584500
     12 N12        -1.0810   -1.5820    2.8120 n4        1 B1E     -0.489800
     13 C13        -2.4340   -1.8130    2.2810 ca        1 B1E     -0.030400
     14 C14        -3.5400   -1.1170    2.8200 ca        1 B1E      0.018700
     15 C15        -4.8130   -1.3970    2.2990 ca        1 B1E     -0.091000
     16 C16        -5.0000   -2.3220    1.2800 ca        1 B1E     -0.055000
     17 C17        -3.8850   -2.9970    0.7450 ca        1 B1E     -0.033400
     18 C18        -2.5970   -2.7410    1.2390 ca        1 B1E     -0.061000
     19 C19        -3.4000   -0.1180    3.9040 c3        1 B1E     -0.111800
     20 N20        -4.0690   -3.9710   -0.3330 n4        1 B1E     -0.564200
     21 C21        -3.6890   -5.4000    0.1210 c         1 B1E      0.602700
     22 C22        -4.8120   -6.3080    0.3120 ca        1 B1E     -0.211600
     23 O23        -2.4920   -5.5640    0.2870 o         1 B1E     -0.424100
     24 C24        -4.7600   -7.1560    1.4290 ca        1 B1E     -0.043000
     25 C25        -5.8100   -8.0480    1.6860 ca        1 B1E     -0.063300
     26 C26        -6.8780   -8.1190    0.7850 ca        1 B1E     -0.037000
     27 C27        -6.9070   -7.2970   -0.3480 ca        1 B1E     -0.109000
     28 C28        -5.8890   -6.3830   -0.5880 ca        1 B1E     -0.097000
     29 C29        -5.7410   -8.9110    2.9260 c3        1 B1E      0.061400
     30 C30        -5.2250   -8.0890    4.0230 c1        1 B1E      0.201700
     31 C31        -7.1090   -9.4590    3.3290 c3        1 B1E     -0.096600
     32 C32        -4.7850  -10.0800    2.6750 c3        1 B1E     -0.096600
     33 C33         1.5830    4.1210   -1.1580 c3        1 B1E      0.049300
     34 N34        -4.8200   -7.4340    4.8930 n1        1 B1E     -0.351800
     35 H1          2.6400   -1.9410    0.0510 ha        1 B1E      0.196000
     36 H2          0.9920   -2.8930    1.6260 ha        1 B1E      0.154000
     37 H3         -1.0620    0.9780    1.8210 ha        1 B1E      0.174000
     38 H4          3.3250    2.2910   -1.8480 h5        1 B1E      0.093800
     39 H5         -1.1370   -0.9290    3.6100 hn        1 B1E      0.470300
     40 H6         -5.6910   -0.8640    2.7120 ha        1 B1E      0.199000
     41 H7         -6.0240   -2.5100    0.9080 ha        1 B1E      0.182000
     42 H8         -1.7190   -3.2700    0.8180 ha        1 B1E      0.187000
     43 H9         -2.7170    0.7160    3.5960 hc        1 B1E      0.091033
     44 H10        -3.0060   -0.5930    4.8400 hc        1 B1E      0.091033
     45 H11        -4.3900    0.3420    4.1590 hc        1 B1E      0.091033
     46 H12        -5.0510   -3.9600   -0.6370 hn        1 B1E      0.468800
     47 H13        -3.8890   -7.1210    2.1060 ha        1 B1E      0.167000
     48 H14        -7.7080   -8.8280    0.9560 ha        1 B1E      0.181000
     49 H15        -7.7480   -7.3810   -1.0590 ha        1 B1E      0.178000
     50 H16        -5.9210   -5.7700   -1.5010 ha        1 B1E      0.137000
     51 H17        -7.0380   -9.9470    4.3320 hc        1 B1E      0.063867
     52 H18        -7.8650   -8.6400    3.3840 hc        1 B1E      0.063867
     53 H19        -7.4470  -10.2270    2.5920 hc        1 B1E      0.063867
     54 H20        -4.7130  -10.7130    3.5930 hc        1 B1E      0.063867
     55 H21        -3.7670   -9.7060    2.4130 hc        1 B1E      0.063867
     56 H22        -5.1690  -10.7080    1.8360 hc        1 B1E      0.063867
     57 H23         0.7140    4.6690   -0.7030 h1        1 B1E      0.083367
     58 H24         1.5050    4.1680   -2.2770 h1        1 B1E      0.083367
     59 H25         2.5400    4.6090   -0.8280 h1        1 B1E      0.083367
     60 H122       -0.7070   -2.4810    3.1510 hn        1 B1E      0.470300
     61 H202       -3.4700   -3.7000   -1.1240 hn        1 B1E      0.468800
@<TRIPOS>BOND
     1    1    2 ar  
     2    1    6 ar  
     3    1    7 1   
     4    2    3 ar  
     5    2   10 1   
     6    3    4 ar  
     7    3   35 1   
     8    4    5 ar  
     9    4   36 1   
    10    5    6 ar  
    11    5   12 1   
    12    6   37 1   
    13    7    8 1   
    14    7   11 2   
    15    8    9 1   
    16    8   33 1   
    17    9   10 2   
    18    9   38 1   
    19   12   13 1   
    20   12   39 1   
    21   12   60 1   
    22   13   14 ar  
    23   13   18 ar  
    24   14   15 ar  
    25   14   19 1   
    26   15   16 ar  
    27   15   40 1   
    28   16   17 ar  
    29   16   41 1   
    30   17   18 ar  
    31   17   20 1   
    32   18   42 1   
    33   19   43 1   
    34   19   44 1   
    35   19   45 1   
    36   20   21 1   
    37   20   46 1   
    38   20   61 1   
    39   21   22 1   
    40   21   23 2   
    41   22   24 ar  
    42   22   28 ar  
    43   24   25 ar  
    44   24   47 1   
    45   25   26 ar  
    46   25   29 1   
    47   26   27 ar  
    48   26   48 1   
    49   27   28 ar  
    50   27   49 1   
    51   28   50 1   
    52   29   30 1   
    53   29   31 1   
    54   29   32 1   
    55   30   34 3   
    56   31   51 1   
    57   31   52 1   
    58   31   53 1   
    59   32   54 1   
    60   32   55 1   
    61   32   56 1   
    62   33   57 1   
    63   33   58 1   
    64   33   59 1   
@<TRIPOS>SUBSTRUCTURE
     1 B1E         1 TEMP              0 ****  ****    0 ROOT
