@<TRIPOS>MOLECULE
B1E
   59    62     1     0     0
SMALL
bcc


@<TRIPOS>ATOM
      1 C1          0.0440   -0.1370   -0.1070 ca        1 B1E     -0.156600
      2 C2          1.4630   -0.1090   -0.1020 ca        1 B1E      0.140400
      3 C3          2.1240   -0.0950    1.1480 ca        1 B1E     -0.088000
      4 C4          1.4010   -0.1150    2.3250 ca        1 B1E     -0.153000
      5 C5         -0.0210   -0.1330    2.3220 ca        1 B1E      0.138600
      6 C6         -0.6870   -0.1330    1.0820 ca        1 B1E     -0.107000
      7 C7         -0.6760   -0.1680   -1.4010 c         1 B1E      0.706100
      8 N8          0.1310   -0.1310   -2.5590 n         1 B1E     -0.403300
      9 C9          1.5220   -0.0980   -2.4210 cc        1 B1E      0.479800
     10 N10         2.1960   -0.0910   -1.2980 nd        1 B1E     -0.605100
     11 O11        -1.9150   -0.2320   -1.5040 o         1 B1E     -0.626500
     12 N12        -0.7190   -0.0450    3.5340 nh        1 B1E     -0.630000
     13 C13        -1.8690   -0.7990    3.8330 ca        1 B1E      0.174600
     14 C14        -2.5900   -0.4940    5.0200 ca        1 B1E     -0.142300
     15 C15        -3.7520   -1.2110    5.3020 ca        1 B1E     -0.079000
     16 C16        -4.2330   -2.2080    4.4610 ca        1 B1E     -0.177000
     17 C17        -3.5240   -2.5290    3.2870 ca        1 B1E      0.098600
     18 C18        -2.3310   -1.8290    2.9950 ca        1 B1E     -0.234000
     19 C19        -2.1330    0.5640    5.9500 c3        1 B1E     -0.044800
     20 N20        -3.9490   -3.5100    2.3760 n         1 B1E     -0.469100
     21 C21        -4.9760   -4.4300    2.5470 c         1 B1E      0.679700
     22 C22        -5.2280   -5.3390    1.3870 ca        1 B1E     -0.144600
     23 O23        -5.6420   -4.5230    3.5940 o         1 B1E     -0.576100
     24 C24        -5.4910   -6.6850    1.6540 ca        1 B1E     -0.069000
     25 C25        -5.7420   -7.5800    0.6040 ca        1 B1E     -0.089300
     26 C26        -5.7420   -7.1030   -0.7110 ca        1 B1E     -0.098000
     27 C27        -5.4970   -5.7550   -0.9720 ca        1 B1E     -0.136000
     28 C28        -5.2380   -4.8680    0.0710 ca        1 B1E     -0.100000
     29 C29        -5.9830   -9.0330    0.9310 c3        1 B1E      0.067400
     30 C30        -6.9890   -9.1290    1.9910 c1        1 B1E      0.210700
     31 C31        -6.4840   -9.8340   -0.2690 c3        1 B1E     -0.090100
     32 C32        -4.6760   -9.6570    1.4300 c3        1 B1E     -0.090100
     33 C33        -0.4500   -0.1340   -3.8740 c3        1 B1E      0.068300
     34 N34        -7.7910   -9.2220    2.8260 n1        1 B1E     -0.360800
     35 H1          3.2250   -0.0730    1.1810 ha        1 B1E      0.155000
     36 H2          1.9450   -0.1080    3.2830 ha        1 B1E      0.137000
     37 H3         -1.7890   -0.1170    1.0270 ha        1 B1E      0.172000
     38 H4          2.0990   -0.0760   -3.3710 h5        1 B1E      0.053800
     39 H5         -0.1530    0.1660    4.3300 hn        1 B1E      0.425800
     40 H6         -4.3150   -0.9780    6.2200 ha        1 B1E      0.137000
     41 H7         -5.1620   -2.7390    4.7260 ha        1 B1E      0.175000
     42 H8         -1.7500   -2.1000    2.0980 ha        1 B1E      0.140000
     43 H9         -2.8540    0.6950    6.7940 hc        1 B1E      0.042033
     44 H10        -1.1360    0.3030    6.3870 hc        1 B1E      0.042033
     45 H11        -2.0380    1.5450    5.4190 hc        1 B1E      0.042033
     46 H12        -3.4340   -3.5580    1.5240 hn        1 B1E      0.321500
     47 H13        -5.5130   -7.0340    2.7000 ha        1 B1E      0.161000
     48 H14        -5.9400   -7.7800   -1.5560 ha        1 B1E      0.140000
     49 H15        -5.5130   -5.3890   -2.0090 ha        1 B1E      0.141000
     50 H16        -5.0640   -3.8030   -0.1500 ha        1 B1E      0.145000
     51 H17        -5.6900   -9.8860   -1.0510 hc        1 B1E      0.050367
     52 H18        -7.3990   -9.3640   -0.7030 hc        1 B1E      0.050367
     53 H19        -6.7350  -10.8750    0.0490 hc        1 B1E      0.050367
     54 H20        -4.8400  -10.7290    1.6940 hc        1 B1E      0.050367
     55 H21        -3.9030   -9.5950    0.6270 hc        1 B1E      0.050367
     56 H22        -4.3040   -9.1140    2.3320 hc        1 B1E      0.050367
     57 H23        -0.1420   -1.0620   -4.4280 h1        1 B1E      0.058033
     58 H24        -0.1030    0.7660   -4.4480 h1        1 B1E      0.058033
     59 H25        -1.5700   -0.1100   -3.7920 h1        1 B1E      0.058033
@<TRIPOS>BOND
     1    1    2 ar  
     2    1    6 ar  
     3    1    7 1   
     4    2    3 ar  
     5    2   10 1   
     6    3    4 ar  
     7    3   35 1   
     8    4    5 ar  
     9    4   36 1   
    10    5    6 ar  
    11    5   12 1   
    12    6   37 1   
    13    7    8 1   
    14    7   11 2   
    15    8    9 1   
    16    8   33 1   
    17    9   10 2   
    18    9   38 1   
    19   12   13 1   
    20   12   39 1   
    21   13   14 ar  
    22   13   18 ar  
    23   14   15 ar  
    24   14   19 1   
    25   15   16 ar  
    26   15   40 1   
    27   16   17 ar  
    28   16   41 1   
    29   17   18 ar  
    30   17   20 1   
    31   18   42 1   
    32   19   43 1   
    33   19   44 1   
    34   19   45 1   
    35   20   21 1   
    36   20   46 1   
    37   21   22 1   
    38   21   23 2   
    39   22   24 ar  
    40   22   28 ar  
    41   24   25 ar  
    42   24   47 1   
    43   25   26 ar  
    44   25   29 1   
    45   26   27 ar  
    46   26   48 1   
    47   27   28 ar  
    48   27   49 1   
    49   28   50 1   
    50   29   30 1   
    51   29   31 1   
    52   29   32 1   
    53   30   34 3   
    54   31   51 1   
    55   31   52 1   
    56   31   53 1   
    57   32   54 1   
    58   32   55 1   
    59   32   56 1   
    60   33   57 1   
    61   33   58 1   
    62   33   59 1   
@<TRIPOS>SUBSTRUCTURE
     1 B1E         1 TEMP              0 ****  ****    0 ROOT
