@<TRIPOS>MOLECULE
B1E
   59    62     1     0     0
SMALL
bcc


@<TRIPOS>ATOM
      1 C1         -4.1750    1.1110    0.0940 ca        1 B1E     -0.156600
      2 C2         -5.0690    1.2900    1.1810 ca        1 B1E      0.140400
      3 C3         -5.3840    0.1640    1.9770 ca        1 B1E     -0.088000
      4 C4         -4.8270   -1.0690    1.7000 ca        1 B1E     -0.153000
      5 C5         -3.9390   -1.2530    0.6060 ca        1 B1E      0.138600
      6 C6         -3.6320   -0.1410   -0.2000 ca        1 B1E     -0.107000
      7 C7         -3.8150    2.2740   -0.7490 c         1 B1E      0.706100
      8 N8         -4.4350    3.4970   -0.4130 n         1 B1E     -0.403300
      9 C9         -5.3060    3.5430    0.6810 cc        1 B1E      0.480800
     10 N10        -5.6330    2.5440    1.4620 nd        1 B1E     -0.605100
     11 O11        -3.0110    2.2200   -1.6980 o         1 B1E     -0.626500
     12 N12        -3.4780   -2.5400    0.2940 nh        1 B1E     -0.630000
     13 C13        -2.1540   -2.8280   -0.0860 ca        1 B1E      0.174600
     14 C14        -1.8520   -4.1390   -0.5460 ca        1 B1E     -0.142300
     15 C15        -0.5510   -4.4200   -0.9600 ca        1 B1E     -0.079000
     16 C16         0.4570   -3.4640   -0.9460 ca        1 B1E     -0.177000
     17 C17         0.1760   -2.1640   -0.4830 ca        1 B1E      0.098600
     18 C18        -1.1320   -1.8650   -0.0370 ca        1 B1E     -0.234000
     19 C19        -2.8860   -5.1980   -0.5940 c3        1 B1E     -0.044800
     20 N20         1.1310   -1.1350   -0.4520 n         1 B1E     -0.469100
     21 C21         2.4990   -1.2500   -0.6650 c         1 B1E      0.679700
     22 C22         3.2720    0.0290   -0.6000 ca        1 B1E     -0.144600
     23 O23         3.0690   -2.3350   -0.8760 o         1 B1E     -0.575100
     24 C24         4.5070    0.0170    0.0520 ca        1 B1E     -0.069000
     25 C25         5.2760    1.1860    0.1350 ca        1 B1E     -0.089300
     26 C26         4.7980    2.3580   -0.4590 ca        1 B1E     -0.098000
     27 C27         3.5720    2.3620   -1.1250 ca        1 B1E     -0.136000
     28 C28         2.8030    1.2030   -1.1980 ca        1 B1E     -0.100000
     29 C29         6.5870    1.1410    0.8810 c3        1 B1E      0.067400
     30 C30         7.3700   -0.0040    0.4130 c1        1 B1E      0.210700
     31 C31         7.4260    2.4010    0.6790 c3        1 B1E     -0.090100
     32 C32         6.3050    0.9700    2.3770 c3        1 B1E     -0.090100
     33 C33        -4.1840    4.6940   -1.1680 c3        1 B1E      0.068300
     34 N34         8.0070   -0.9040    0.0470 n1        1 B1E     -0.360800
     35 H1         -6.0760    0.2760    2.8280 ha        1 B1E      0.155000
     36 H2         -5.0890   -1.9260    2.3430 ha        1 B1E      0.137000
     37 H3         -2.9700   -0.2390   -1.0780 ha        1 B1E      0.172000
     38 H4         -5.7550    4.5370    0.8950 h5        1 B1E      0.053800
     39 H5         -3.9280   -3.2790    0.7950 hn        1 B1E      0.425800
     40 H6         -0.3110   -5.4350   -1.3190 ha        1 B1E      0.137000
     41 H7          1.4670   -3.7360   -1.2930 ha        1 B1E      0.175000
     42 H8         -1.3520   -0.8610    0.3620 ha        1 B1E      0.140000
     43 H9         -3.7560   -4.8750   -1.2200 hc        1 B1E      0.042033
     44 H10        -2.4750   -6.1410   -1.0320 hc        1 B1E      0.042033
     45 H11        -3.2600   -5.4330    0.4350 hc        1 B1E      0.042033
     46 H12         0.7810   -0.2290   -0.2260 hn        1 B1E      0.321500
     47 H13         4.8780   -0.9250    0.4900 ha        1 B1E      0.161000
     48 H14         5.3810    3.2910   -0.4140 ha        1 B1E      0.140000
     49 H15         3.2120    3.2880   -1.5990 ha        1 B1E      0.141000
     50 H16         1.8460    1.2180   -1.7420 ha        1 B1E      0.145000
     51 H17         6.9120    3.2790    1.1370 hc        1 B1E      0.050367
     52 H18         8.4200    2.2770    1.1740 hc        1 B1E      0.050367
     53 H19         7.5900    2.5960   -0.4070 hc        1 B1E      0.050367
     54 H20         5.7130    1.8410    2.7470 hc        1 B1E      0.050367
     55 H21         5.7230    0.0350    2.5600 hc        1 B1E      0.050367
     56 H22         7.2640    0.9170    2.9450 hc        1 B1E      0.050367
     57 H23        -5.1500    5.1110   -1.5580 h1        1 B1E      0.058033
     58 H24        -3.6900    5.4630   -0.5160 h1        1 B1E      0.058033
     59 H25        -3.5070    4.4590   -2.0340 h1        1 B1E      0.058033
@<TRIPOS>BOND
     1    1    2 ar  
     2    1    6 ar  
     3    1    7 1   
     4    2    3 ar  
     5    2   10 1   
     6    3    4 ar  
     7    3   35 1   
     8    4    5 ar  
     9    4   36 1   
    10    5    6 ar  
    11    5   12 1   
    12    6   37 1   
    13    7    8 1   
    14    7   11 2   
    15    8    9 1   
    16    8   33 1   
    17    9   10 2   
    18    9   38 1   
    19   12   13 1   
    20   12   39 1   
    21   13   14 ar  
    22   13   18 ar  
    23   14   15 ar  
    24   14   19 1   
    25   15   16 ar  
    26   15   40 1   
    27   16   17 ar  
    28   16   41 1   
    29   17   18 ar  
    30   17   20 1   
    31   18   42 1   
    32   19   43 1   
    33   19   44 1   
    34   19   45 1   
    35   20   21 1   
    36   20   46 1   
    37   21   22 1   
    38   21   23 2   
    39   22   24 ar  
    40   22   28 ar  
    41   24   25 ar  
    42   24   47 1   
    43   25   26 ar  
    44   25   29 1   
    45   26   27 ar  
    46   26   48 1   
    47   27   28 ar  
    48   27   49 1   
    49   28   50 1   
    50   29   30 1   
    51   29   31 1   
    52   29   32 1   
    53   30   34 3   
    54   31   51 1   
    55   31   52 1   
    56   31   53 1   
    57   32   54 1   
    58   32   55 1   
    59   32   56 1   
    60   33   57 1   
    61   33   58 1   
    62   33   59 1   
@<TRIPOS>SUBSTRUCTURE
     1 B1E         1 TEMP              0 ****  ****    0 ROOT
