@<TRIPOS>MOLECULE
B1E
   59    62     1     0     0
SMALL
bcc


@<TRIPOS>ATOM
      1 C1          0.0000    0.0000    0.0000 ca        1 B1E     -0.151600
      2 C2          1.4140    0.0000    0.0000 ca        1 B1E      0.162400
      3 C3          2.1000    0.0000    1.2160 ca        1 B1E     -0.081000
      4 C4          1.4040    0.0010    2.3910 ca        1 B1E     -0.074000
      5 C5          0.0100   -0.0000    2.3980 ca        1 B1E     -0.094400
      6 C6         -0.6970    0.0070    1.2050 ca        1 B1E     -0.097000
      7 C7         -0.6910   -0.0010   -1.2980 c         1 B1E      0.617100
      8 N8          0.0770   -0.0010   -2.4120 n         1 B1E      0.092700
      9 C9          1.4330   -0.0010   -2.3180 cc        1 B1E      0.300800
     10 N10         2.0710   -0.0000   -1.1880 nd        1 B1E     -0.571100
     11 O11        -1.9060   -0.0010   -1.3670 o         1 B1E     -0.659500
     12 N12        -0.6790    0.0000    3.6140 nu        1 B1E     -0.259000
     13 C13        -1.8050   -0.8110    3.7790 ca        1 B1E      0.014600
     14 C14        -2.5850   -0.6930    4.9220 ca        1 B1E     -0.150300
     15 C15        -3.6990   -1.4950    5.0860 ca        1 B1E     -0.053000
     16 C16        -4.0400   -2.4150    4.1140 ca        1 B1E     -0.122000
     17 C17        -3.2640   -2.5380    2.9680 ca        1 B1E     -0.071400
     18 C18        -2.1490   -1.7310    2.7970 ca        1 B1E     -0.218000
     19 C19        -2.2170    0.3090    5.9850 c3        1 B1E      0.064200
     20 N20        -3.6130   -3.4670    1.9810 ns        1 B1E     -0.068100
     21 C21        -4.1800   -4.6380    2.3310 c         1 B1E      0.624700
     22 C22        -4.6620   -5.5660    1.2850 ca        1 B1E     -0.174600
     23 O23        -4.2950   -4.9330    3.5040 o         1 B1E     -0.627100
     24 C24        -5.2540   -6.7780    1.6420 ca        1 B1E     -0.017000
     25 C25        -5.7080   -7.6370    0.6620 ca        1 B1E     -0.131300
     26 C26        -5.5750   -7.2990   -0.6730 ca        1 B1E     -0.096000
     27 C27        -4.9870   -6.0990   -1.0350 ca        1 B1E     -0.082000
     28 C28        -4.5310   -5.2310   -0.0640 ca        1 B1E     -0.073000
     29 C29        -6.3470   -8.9460    1.0460 c3        1 B1E      0.147400
     30 C30        -7.5390   -8.6860    1.8700 c1        1 B1E      0.199700
     31 C31        -6.7570   -9.7030   -0.2180 c3        1 B1E     -0.042100
     32 C32        -5.3490   -9.7870    1.8440 c3        1 B1E     -0.042100
     33 C33        -0.5590   -0.0020   -3.7320 c3        1 B1E      0.014300
     34 N34        -8.4480   -8.4750    2.5190 n1        1 B1E     -0.373800
     35 H1          3.1330   -0.1600    1.5020 ha        1 B1E      0.125000
     36 H2          1.8750    0.2160    3.3420 ha        1 B1E      0.112000
     37 H3         -1.5040    0.2330    1.8910 ha        1 B1E      0.181000
     38 H4          2.2940   -0.1010   -2.9680 h5        1 B1E      0.045800
     39 H5         -0.8130    0.8990    4.0330 hn        1 B1E      0.280800
     40 H6         -4.3170   -1.3210    5.9570 ha        1 B1E      0.106000
     41 H7         -4.9510   -2.9860    4.2500 ha        1 B1E      0.136000
     42 H8         -1.4770   -1.6550    1.9510 ha        1 B1E      0.149000
     43 H9         -1.7370    1.0920    5.4110 hc        1 B1E      0.008700
     44 H10        -3.0740    0.5030    6.6180 hc        1 B1E      0.008700
     45 H11        -1.4680   -0.0230    6.6950 hc        1 B1E      0.008700
     46 H12        -3.3310   -2.9140    1.1960 hn        1 B1E      0.204500
     47 H13        -5.2680   -7.1230    2.6690 ha        1 B1E      0.132000
     48 H14        -5.9880   -8.0320   -1.3550 ha        1 B1E      0.129000
     49 H15        -4.6610   -6.0220   -2.0650 ha        1 B1E      0.106000
     50 H16        -4.1200   -4.2310   -0.1290 ha        1 B1E      0.106000
     51 H17        -6.5600  -10.6670    0.2370 hc        1 B1E      0.028200
     52 H18        -6.2590   -9.4490   -1.1460 hc        1 B1E      0.028200
     53 H19        -7.8270   -9.8610   -0.1540 hc        1 B1E      0.028200
     54 H20        -5.4980   -9.5970    2.9000 hc        1 B1E      0.028200
     55 H21        -5.9320  -10.6830    1.6720 hc        1 B1E      0.028200
     56 H22        -4.3160  -10.0720    1.6850 hc        1 B1E      0.028200
     57 H23        -1.3000   -0.7910   -3.7710 h1        1 B1E      0.027700
     58 H24        -0.0490   -0.0360   -4.6870 h1        1 B1E      0.027700
     59 H25        -1.3010    0.7810   -3.8380 h1        1 B1E      0.027700
@<TRIPOS>BOND
     1    1    2 ar  
     2    1    6 ar  
     3    1    7 1   
     4    2    3 ar  
     5    2   10 1   
     6    3    4 ar  
     7    3   35 1   
     8    4    5 ar  
     9    4   36 1   
    10    5    6 ar  
    11    5   12 1   
    12    6   37 1   
    13    7    8 1   
    14    7   11 2   
    15    8    9 1   
    16    8   33 1   
    17    9   10 2   
    18    9   38 1   
    19   12   13 1   
    20   12   39 1   
    21   13   14 ar  
    22   13   18 ar  
    23   14   15 ar  
    24   14   19 1   
    25   15   16 ar  
    26   15   40 1   
    27   16   17 ar  
    28   16   41 1   
    29   17   18 ar  
    30   17   20 1   
    31   18   42 1   
    32   19   43 1   
    33   19   44 1   
    34   19   45 1   
    35   20   21 1   
    36   20   46 1   
    37   21   22 1   
    38   21   23 2   
    39   22   24 ar  
    40   22   28 ar  
    41   24   25 ar  
    42   24   47 1   
    43   25   26 ar  
    44   25   29 1   
    45   26   27 ar  
    46   26   48 1   
    47   27   28 ar  
    48   27   49 1   
    49   28   50 1   
    50   29   30 1   
    51   29   31 1   
    52   29   32 1   
    53   30   34 3   
    54   31   51 1   
    55   31   52 1   
    56   31   53 1   
    57   32   54 1   
    58   32   55 1   
    59   32   56 1   
    60   33   57 1   
    61   33   58 1   
    62   33   59 1   
@<TRIPOS>SUBSTRUCTURE
     1 B1E         1 TEMP              0 ****  ****    0 ROOT
