@<TRIPOS>MOLECULE
B1L
   50    52     1     0     0
SMALL
bcc


@<TRIPOS>ATOM
      1 O1          0.8710    3.0830    0.5270 oh        1 B1L     -0.461100
      2 C1          1.8950    2.1880    0.4870 ca        1 B1L      0.211100
      3 C2          2.6920    1.8760    1.6030 ca        1 B1L     -0.194500
      4 C3          3.7170    0.9510    1.4700 ca        1 B1L     -0.023500
      5 C4          3.9720    0.3400    0.2260 ca        1 B1L     -0.254600
      6 C5          3.1580    0.6480   -0.8810 ca        1 B1L     -0.023500
      7 C6          2.1290    1.5650   -0.7600 ca        1 B1L     -0.194500
      8 C7          5.0590   -0.6300    0.1900 c         1 B1L      0.581700
      9 O7          5.5350   -1.2590    1.1290 o         1 B1L     -0.441100
     10 N8          5.7010   -0.9070   -1.1520 n4        1 B1L     -0.673800
     11 C8          7.1650   -0.5690   -1.1710 c3        1 B1L      0.101500
     12 C9          7.8600   -1.0860   -2.4590 c3        1 B1L      0.145100
     13 C10         9.3210   -1.4610   -2.2190 c3        1 B1L     -0.086400
     14 C11        10.0730   -0.5990   -1.2340 c3        1 B1L     -0.090400
     15 C12         9.7890    0.8960   -1.3610 c3        1 B1L      0.157800
     16 N13         8.6520    1.3300   -0.5770 n3        1 B1L     -0.834200
     17 C14         7.3550    0.9740   -1.0850 c3        1 B1L      0.164800
     18 O9          7.2590   -2.3060   -2.9320 os        1 B1L     -0.465900
     19 C15         6.2810   -2.2100   -3.9060 c         1 B1L      0.676700
     20 O15         5.6360   -1.1490   -3.9080 o         1 B1L     -0.604000
     21 C16         6.1070   -3.3940   -4.7290 ca        1 B1L     -0.218600
     22 C17         6.9270   -4.5260   -4.5670 ca        1 B1L     -0.017000
     23 C18         6.7480   -5.6400   -5.3700 ca        1 B1L     -0.205500
     24 C19         5.7380   -5.6240   -6.3560 ca        1 B1L      0.197100
     25 C20         4.9160   -4.4950   -6.5270 ca        1 B1L     -0.205500
     26 C21         5.1040   -3.3860   -5.7140 ca        1 B1L     -0.017000
     27 O19         5.6160   -6.7520   -7.1120 oh        1 B1L     -0.470100
     28 HO1         0.7880    3.4340    1.4300 ho        1 B1L      0.448000
     29 H2          2.5000    2.3550    2.5760 ha        1 B1L      0.174500
     30 H3          4.3400    0.6880    2.3440 ha        1 B1L      0.155500
     31 H5          3.2940    0.1560   -1.8570 ha        1 B1L      0.155500
     32 H6          1.4800    1.8140   -1.6150 ha        1 B1L      0.174500
     33 HN8         5.6170   -1.9110   -1.3640 hn        1 B1L      0.467300
     34 H8          7.6200   -1.0760   -0.2660 hx        1 B1L      0.139700
     35 H9          7.7740   -0.2970   -3.2600 h1        1 B1L      0.088700
     36 H101        9.8320   -1.4230   -3.2200 hc        1 B1L      0.074200
     37 H102        9.3630   -2.5300   -1.8720 hc        1 B1L      0.074200
     38 H111       11.1720   -0.7520   -1.4180 hc        1 B1L      0.070200
     39 H112        9.8730   -0.9450   -0.1850 hc        1 B1L      0.070200
     40 H121        9.6780    1.1550   -2.4550 h1        1 B1L      0.050200
     41 H122       10.6880    1.4550   -0.9680 h1        1 B1L      0.050200
     42 H13         8.6920    2.3160   -0.3990 hn        1 B1L      0.399800
     43 H141        7.1390    1.4060   -2.1080 h1        1 B1L      0.048700
     44 H142        6.5960    1.4030   -0.3670 h1        1 B1L      0.048700
     45 H17         7.7160   -4.5210   -3.7970 ha        1 B1L      0.157500
     46 H18         7.3790   -6.5350   -5.2590 ha        1 B1L      0.165000
     47 H20         4.1350   -4.4910   -7.3010 ha        1 B1L      0.165000
     48 H21         4.4730   -2.4900   -5.8400 ha        1 B1L      0.157500
     49 H19         4.9040   -6.6220   -7.7590 ho        1 B1L      0.439000
     50 H82         5.2370   -0.3830   -1.9080 hn        1 B1L      0.467300
@<TRIPOS>BOND
     1    1    2 1   
     2    1   28 1   
     3    2    3 ar  
     4    2    7 ar  
     5    3    4 ar  
     6    3   29 1   
     7    4    5 ar  
     8    4   30 1   
     9    5    6 ar  
    10    5    8 1   
    11    6    7 ar  
    12    6   31 1   
    13    7   32 1   
    14    8    9 2   
    15    8   10 1   
    16   10   11 1   
    17   10   33 1   
    18   10   50 1   
    19   11   12 1   
    20   11   17 1   
    21   11   34 1   
    22   12   13 1   
    23   12   18 1   
    24   12   35 1   
    25   13   14 1   
    26   13   36 1   
    27   13   37 1   
    28   14   15 1   
    29   14   38 1   
    30   14   39 1   
    31   15   16 1   
    32   15   40 1   
    33   15   41 1   
    34   16   17 1   
    35   16   42 1   
    36   17   43 1   
    37   17   44 1   
    38   18   19 1   
    39   19   20 2   
    40   19   21 1   
    41   21   22 ar  
    42   21   26 ar  
    43   22   23 ar  
    44   22   45 1   
    45   23   24 ar  
    46   23   46 1   
    47   24   25 ar  
    48   24   27 1   
    49   25   26 ar  
    50   25   47 1   
    51   26   48 1   
    52   27   49 1   
@<TRIPOS>SUBSTRUCTURE
     1 B1L         1 TEMP              0 ****  ****    0 ROOT
