@<TRIPOS>MOLECULE
B1L
   50    52     1     0     0
SMALL
bcc


@<TRIPOS>ATOM
      1 O1          1.0080    3.1360    0.7500 oh        1 B1L     -0.459100
      2 C1          1.9750    2.2010    0.5450 ca        1 B1L      0.210100
      3 C2          2.8040    1.9060    1.6490 ca        1 B1L     -0.194000
      4 C3          3.8080    0.9650    1.5060 ca        1 B1L     -0.024500
      5 C4          4.0160    0.3170    0.2680 ca        1 B1L     -0.253600
      6 C5          3.1750    0.6080   -0.8190 ca        1 B1L     -0.024500
      7 C6          2.1610    1.5440   -0.6870 ca        1 B1L     -0.194000
      8 C7          5.0860   -0.6720    0.2250 c         1 B1L      0.581700
      9 O7          5.5540   -1.3150    1.1570 o         1 B1L     -0.437100
     10 N8          5.7200   -0.9480   -1.1220 ny        1 B1L     -0.674800
     11 C8          7.1800   -0.5920   -1.1530 c3        1 B1L      0.102500
     12 C9          7.8700   -1.0990   -2.4460 c3        1 B1L      0.146100
     13 C10         9.3400   -1.4510   -2.2220 c3        1 B1L     -0.086400
     14 C11        10.0860   -0.5860   -1.2360 c3        1 B1L     -0.090400
     15 C12         9.7850    0.9070   -1.3530 c3        1 B1L      0.158800
     16 N13         8.6470    1.3240   -0.5620 n7        1 B1L     -0.834200
     17 C14         7.3520    0.9540   -1.0670 c3        1 B1L      0.164800
     18 O9          7.2840   -2.3290   -2.9100 os        1 B1L     -0.465900
     19 C15         6.2960   -2.2520   -3.8770 c         1 B1L      0.676700
     20 O15         5.6350   -1.2020   -3.8760 o         1 B1L     -0.605000
     21 C16         6.1340   -3.4410   -4.6940 ca        1 B1L     -0.218600
     22 C17         6.9720   -4.5600   -4.5340 ca        1 B1L     -0.017000
     23 C18         6.8050   -5.6800   -5.3320 ca        1 B1L     -0.205000
     24 C19         5.7880   -5.6820   -6.3110 ca        1 B1L      0.197100
     25 C20         4.9480   -4.5660   -6.4810 ca        1 B1L     -0.205000
     26 C21         5.1250   -3.4520   -5.6730 ca        1 B1L     -0.017000
     27 O19         5.6770   -6.8150   -7.0620 oh        1 B1L     -0.470100
     28 HO1         0.4900    3.2460   -0.0660 ho        1 B1L      0.446000
     29 H2          2.6350    2.4240    2.6070 ha        1 B1L      0.174000
     30 H3          4.4540    0.7120    2.3660 ha        1 B1L      0.155500
     31 H5          3.2750    0.0880   -1.7860 ha        1 B1L      0.155500
     32 H6          1.4980    1.7670   -1.5370 ha        1 B1L      0.174000
     33 HN8         5.6470   -1.9530   -1.3300 hn        1 B1L      0.467300
     34 H8          7.6480   -1.0940   -0.2520 hx        1 B1L      0.139700
     35 H9          7.7630   -0.3130   -3.2470 h1        1 B1L      0.088700
     36 H101        9.4020   -2.5220   -1.8840 hc        1 B1L      0.074200
     37 H102        9.8410   -1.3960   -3.2260 hc        1 B1L      0.074200
     38 H111       11.1860   -0.7260   -1.4250 hc        1 B1L      0.070200
     39 H112        9.8960   -0.9390   -0.1870 hc        1 B1L      0.070200
     40 H121        9.6660    1.1700   -2.4460 h1        1 B1L      0.050700
     41 H122       10.6790    1.4740   -0.9620 h1        1 B1L      0.050700
     42 H13         8.6760    2.3090   -0.3790 hn        1 B1L      0.399800
     43 H141        6.5900    1.3740   -0.3450 h1        1 B1L      0.048700
     44 H142        7.1280    1.3840   -2.0890 h1        1 B1L      0.048700
     45 H17         7.7660   -4.5410   -3.7690 ha        1 B1L      0.157500
     46 H18         7.4490   -6.5650   -5.2220 ha        1 B1L      0.165500
     47 H20         4.1620   -4.5770   -7.2500 ha        1 B1L      0.165500
     48 H21         4.4790   -2.5660   -5.7970 ha        1 B1L      0.157500
     49 H19         4.9590   -6.6970   -7.7050 ho        1 B1L      0.439000
     50 H82         5.2430   -0.4320   -1.8760 hn        1 B1L      0.467300
@<TRIPOS>BOND
     1    1    2 1   
     2    1   28 1   
     3    2    3 ar  
     4    2    7 ar  
     5    3    4 ar  
     6    3   29 1   
     7    4    5 ar  
     8    4   30 1   
     9    5    6 ar  
    10    5    8 1   
    11    6    7 ar  
    12    6   31 1   
    13    7   32 1   
    14    8    9 2   
    15    8   10 1   
    16   10   11 1   
    17   10   33 1   
    18   10   50 1   
    19   11   12 1   
    20   11   17 1   
    21   11   34 1   
    22   12   13 1   
    23   12   18 1   
    24   12   35 1   
    25   13   14 1   
    26   13   36 1   
    27   13   37 1   
    28   14   15 1   
    29   14   38 1   
    30   14   39 1   
    31   15   16 1   
    32   15   40 1   
    33   15   41 1   
    34   16   17 1   
    35   16   42 1   
    36   17   43 1   
    37   17   44 1   
    38   18   19 1   
    39   19   20 2   
    40   19   21 1   
    41   21   22 ar  
    42   21   26 ar  
    43   22   23 ar  
    44   22   45 1   
    45   23   24 ar  
    46   23   46 1   
    47   24   25 ar  
    48   24   27 1   
    49   25   26 ar  
    50   25   47 1   
    51   26   48 1   
    52   27   49 1   
@<TRIPOS>SUBSTRUCTURE
     1 B1L         1 TEMP              0 ****  ****    0 ROOT
