@<TRIPOS>MOLECULE
B1L
   50    52     1     0     0
SMALL
bcc


@<TRIPOS>ATOM
      1 O1          0.7980    3.0130    0.4030 oh        1 B1L     -0.461100
      2 C1          1.8420    2.1400    0.3900 ca        1 B1L      0.211100
      3 C2          2.6400    1.8740    1.5170 ca        1 B1L     -0.194500
      4 C3          3.6850    0.9690    1.4130 ca        1 B1L     -0.023500
      5 C4          3.9590    0.3310    0.1860 ca        1 B1L     -0.254600
      6 C5          3.1440    0.5940   -0.9320 ca        1 B1L     -0.023500
      7 C6          2.0950    1.4900   -0.8400 ca        1 B1L     -0.194500
      8 C7          5.0670   -0.6160    0.1790 c         1 B1L      0.581700
      9 O7          5.5510   -1.2100    1.1360 o         1 B1L     -0.441100
     10 N8          5.7210   -0.9130   -1.1530 n4        1 B1L     -0.673800
     11 C8          7.1790   -0.5500   -1.1730 c3        1 B1L      0.101500
     12 C9          7.8890   -1.0850   -2.4450 c3        1 B1L      0.145100
     13 C10         9.3560   -1.4280   -2.1890 c3        1 B1L     -0.086400
     14 C11        10.0870   -0.5290   -1.2220 c3        1 B1L     -0.090400
     15 C12         9.7770    0.9570   -1.3870 c3        1 B1L      0.157800
     16 N13         8.6290    1.3900   -0.6190 n3        1 B1L     -0.834200
     17 C14         7.3400    0.9980   -1.1240 c3        1 B1L      0.164800
     18 O9          7.3120   -2.3270   -2.8900 os        1 B1L     -0.465900
     19 C15         6.3380   -2.2720   -3.8720 c         1 B1L      0.676700
     20 O15         5.6740   -1.2240   -3.9020 o         1 B1L     -0.604000
     21 C16         6.1890   -3.4780   -4.6670 ca        1 B1L     -0.218600
     22 C17         7.0290   -4.5900   -4.4740 ca        1 B1L     -0.017000
     23 C18         6.8750   -5.7270   -5.2510 ca        1 B1L     -0.205500
     24 C19         5.8690   -5.7520   -6.2410 ca        1 B1L      0.197100
     25 C20         5.0280   -4.6430   -6.4430 ca        1 B1L     -0.205500
     26 C21         5.1920   -3.5120   -5.6560 ca        1 B1L     -0.017000
     27 O19         5.7710   -6.9010   -6.9710 oh        1 B1L     -0.470100
     28 HO1         0.7040    3.3850    1.2960 ho        1 B1L      0.448000
     29 H2          2.4320    2.3730    2.4760 ha        1 B1L      0.174500
     30 H3          4.3090    0.7410    2.2950 ha        1 B1L      0.155500
     31 H5          3.2960    0.0790   -1.8950 ha        1 B1L      0.155500
     32 H6          1.4460    1.7040   -1.7040 ha        1 B1L      0.174500
     33 HN8         5.6550   -1.9240   -1.3410 hn        1 B1L      0.467800
     34 H8          7.6380   -1.0260   -0.2540 hx        1 B1L      0.139700
     35 H9          7.7930   -0.3170   -3.2650 h1        1 B1L      0.088700
     36 H101        9.8710   -1.4060   -3.1880 hc        1 B1L      0.074200
     37 H102        9.4140   -2.4880   -1.8150 hc        1 B1L      0.074200
     38 H111        9.8880   -0.8520   -0.1650 hc        1 B1L      0.070200
     39 H112       11.1900   -0.6670   -1.3970 hc        1 B1L      0.070200
     40 H121       10.6630    1.5420   -1.0050 h1        1 B1L      0.050200
     41 H122        9.6660    1.1870   -2.4880 h1        1 B1L      0.050200
     42 H13         8.6500    2.3810   -0.4650 hn        1 B1L      0.399800
     43 H141        7.1220    1.4010   -2.1580 h1        1 B1L      0.048700
     44 H142        6.5710    1.4310   -0.4190 h1        1 B1L      0.048700
     45 H17         7.8140   -4.5530   -3.7010 ha        1 B1L      0.157500
     46 H18         7.5210   -6.6070   -5.1160 ha        1 B1L      0.165000
     47 H20         4.2500   -4.6720   -7.2210 ha        1 B1L      0.165000
     48 H21         4.5440   -2.6310   -5.8060 ha        1 B1L      0.157500
     49 H19         5.0600   -6.7980   -7.6250 ho        1 B1L      0.439000
     50 H82         5.2510   -0.4170   -1.9230 hn        1 B1L      0.467800
@<TRIPOS>BOND
     1    1    2 1   
     2    1   28 1   
     3    2    3 ar  
     4    2    7 ar  
     5    3    4 ar  
     6    3   29 1   
     7    4    5 ar  
     8    4   30 1   
     9    5    6 ar  
    10    5    8 1   
    11    6    7 ar  
    12    6   31 1   
    13    7   32 1   
    14    8    9 2   
    15    8   10 1   
    16   10   11 1   
    17   10   33 1   
    18   10   50 1   
    19   11   12 1   
    20   11   17 1   
    21   11   34 1   
    22   12   13 1   
    23   12   18 1   
    24   12   35 1   
    25   13   14 1   
    26   13   36 1   
    27   13   37 1   
    28   14   15 1   
    29   14   38 1   
    30   14   39 1   
    31   15   16 1   
    32   15   40 1   
    33   15   41 1   
    34   16   17 1   
    35   16   42 1   
    36   17   43 1   
    37   17   44 1   
    38   18   19 1   
    39   19   20 2   
    40   19   21 1   
    41   21   22 ar  
    42   21   26 ar  
    43   22   23 ar  
    44   22   45 1   
    45   23   24 ar  
    46   23   46 1   
    47   24   25 ar  
    48   24   27 1   
    49   25   26 ar  
    50   25   47 1   
    51   26   48 1   
    52   27   49 1   
@<TRIPOS>SUBSTRUCTURE
     1 B1L         1 TEMP              0 ****  ****    0 ROOT
