@<TRIPOS>MOLECULE
B1L
   49    51     1     0     0
SMALL
bcc


@<TRIPOS>ATOM
      1 O1          6.1940   -0.5440    0.2230 oh        1 B1L     -0.492100
      2 C1          4.9090   -0.2850    0.6360 ca        1 B1L      0.144100
      3 C2          4.7610    0.2420    1.9310 ca        1 B1L     -0.194500
      4 C3          3.4850    0.5210    2.4040 ca        1 B1L     -0.057000
      5 C4          2.3610    0.2710    1.6040 ca        1 B1L     -0.177600
      6 C5          2.5180   -0.2420    0.3150 ca        1 B1L     -0.057000
      7 C6          3.7910   -0.5230   -0.1770 ca        1 B1L     -0.194500
      8 C7          1.0150    0.6010    2.1540 c         1 B1L      0.672700
      9 O7          0.8160    1.6420    2.8110 o         1 B1L     -0.595100
     10 N8          0.0150   -0.3420    1.9640 n         1 B1L     -0.544900
     11 C8         -1.3710   -0.0430    2.2410 c3        1 B1L      0.093700
     12 C9         -2.3190   -0.1680    1.0140 c3        1 B1L      0.131100
     13 C10        -3.4400    0.8640    1.0360 c3        1 B1L     -0.101400
     14 C11        -4.1330    1.0230    2.3680 c3        1 B1L     -0.076400
     15 C12        -4.2540   -0.2750    3.1650 c3        1 B1L      0.165800
     16 N13        -3.1040   -0.5460    4.0010 n3        1 B1L     -0.831200
     17 C14        -1.9090   -1.0110    3.3410 c3        1 B1L      0.161800
     18 O9         -1.5470    0.0560   -0.1870 os        1 B1L     -0.448900
     19 C15        -2.0080   -0.5070   -1.3490 c         1 B1L      0.654700
     20 O15        -3.0260   -1.2060   -1.3030 o         1 B1L     -0.548000
     21 C16        -1.1890   -0.1960   -2.5260 ca        1 B1L     -0.178600
     22 C17        -0.1070    0.6940   -2.4530 ca        1 B1L     -0.036500
     23 C18         0.6480    0.9760   -3.5840 ca        1 B1L     -0.205000
     24 C19         0.3140    0.3560   -4.8020 ca        1 B1L      0.159100
     25 C20        -0.7690   -0.5350   -4.8860 ca        1 B1L     -0.205000
     26 C21        -1.5170   -0.8050   -3.7450 ca        1 B1L     -0.036500
     27 O19         1.0990    0.6690   -5.8820 oh        1 B1L     -0.490100
     28 HO1         6.1560   -0.8880   -0.6810 ho        1 B1L      0.422000
     29 H2          5.6520    0.4280    2.5470 ha        1 B1L      0.147500
     30 H3          3.3450    0.9520    3.4090 ha        1 B1L      0.148000
     31 H5          1.6430   -0.4110   -0.3330 ha        1 B1L      0.148000
     32 H6          3.9180   -0.9230   -1.1930 ha        1 B1L      0.147500
     33 HN8         0.1810   -1.0710    1.3110 hn        1 B1L      0.305500
     34 H8         -1.4270    1.0210    2.6280 h1        1 B1L      0.112700
     35 H9         -2.7500   -1.2090    0.9720 h1        1 B1L      0.072700
     36 H101       -4.1850    0.5540    0.2530 hc        1 B1L      0.058200
     37 H102       -3.0200    1.8570    0.7210 hc        1 B1L      0.058200
     38 H111       -5.1720    1.4060    2.1800 hc        1 B1L      0.054700
     39 H112       -3.6040    1.8000    2.9810 hc        1 B1L      0.054700
     40 H121       -4.4790   -1.1210    2.4510 h1        1 B1L      0.030700
     41 H122       -5.1420   -0.1740    3.8540 h1        1 B1L      0.030700
     42 H13        -3.3530   -1.1940    4.7250 hn        1 B1L      0.369800
     43 H141       -2.0430   -2.0320    2.8740 h1        1 B1L      0.036200
     44 H142       -1.1230   -1.1050    4.1460 h1        1 B1L      0.036200
     45 H17         0.1380    1.1760   -1.4910 ha        1 B1L      0.160500
     46 H18         1.4960    1.6750   -3.5450 ha        1 B1L      0.151500
     47 H20        -1.0230   -1.0100   -5.8430 ha        1 B1L      0.151500
     48 H21        -2.3740   -1.4980   -3.7900 ha        1 B1L      0.160500
     49 H19         0.7540    0.1990   -6.6550 ho        1 B1L      0.426000
@<TRIPOS>BOND
     1    1    2 1   
     2    1   28 1   
     3    2    3 ar  
     4    2    7 ar  
     5    3    4 ar  
     6    3   29 1   
     7    4    5 ar  
     8    4   30 1   
     9    5    6 ar  
    10    5    8 1   
    11    6    7 ar  
    12    6   31 1   
    13    7   32 1   
    14    8    9 2   
    15    8   10 1   
    16   10   11 1   
    17   10   33 1   
    18   11   12 1   
    19   11   17 1   
    20   11   34 1   
    21   12   13 1   
    22   12   18 1   
    23   12   35 1   
    24   13   14 1   
    25   13   36 1   
    26   13   37 1   
    27   14   15 1   
    28   14   38 1   
    29   14   39 1   
    30   15   16 1   
    31   15   40 1   
    32   15   41 1   
    33   16   17 1   
    34   16   42 1   
    35   17   43 1   
    36   17   44 1   
    37   18   19 1   
    38   19   20 2   
    39   19   21 1   
    40   21   22 ar  
    41   21   26 ar  
    42   22   23 ar  
    43   22   45 1   
    44   23   24 ar  
    45   23   46 1   
    46   24   25 ar  
    47   24   27 1   
    48   25   26 ar  
    49   25   47 1   
    50   26   48 1   
    51   27   49 1   
@<TRIPOS>SUBSTRUCTURE
     1 B1L         1 TEMP              0 ****  ****    0 ROOT
