@<TRIPOS>MOLECULE
B1L
   49    47     1     0     0
SMALL
bcc


@<TRIPOS>ATOM
      1 O1         -6.6970    1.8330    2.1700 oh        1 B1L     -0.247000
      2 C1         -5.2510    1.6090    2.1580 c2        1 B1L      0.100000
      3 C2         -4.5610    1.5950    0.9480 c2        1 B1L     -0.226000
      4 C3         -3.1730    1.4890    0.9400 c1        1 B1L     -0.062000
      5 C4         -2.4750    1.3980    2.1390 c1        1 B1L     -0.158000
      6 C5         -3.1660    1.4130    3.3560 c1        1 B1L     -0.044000
      7 C6         -4.5470    1.5180    3.3670 c1        1 B1L     -0.168000
      8 C7         -0.9230    1.2670    2.1280 c2        1 B1L      0.355000
      9 O7         -0.2830    1.1830    3.2280 o         1 B1L     -0.370000
     10 N8         -0.1930    1.3280    0.8660 n         1 B1L     -0.379000
     11 C8          1.2470    1.2880    0.8690 c3        1 B1L      0.015000
     12 C9          1.7170    0.5080   -0.3270 c3        1 B1L      0.026000
     13 C10         2.9950   -0.2860    0.0010 c3        1 B1L     -0.159000
     14 C11         3.8440    0.4480    1.0350 c3        1 B1L     -0.157000
     15 C12         4.0220    1.9080    0.6460 c3        1 B1L     -0.071000
     16 N13         3.1310    2.7530    1.3970 n3        1 B1L     -0.307000
     17 C14         1.7960    2.7130    0.8460 c3        1 B1L     -0.083000
     18 O9          0.6860   -0.4040   -0.7170 os        1 B1L     -0.267000
     19 C15         0.7750   -0.8510   -2.1010 c2        1 B1L      0.360000
     20 O15         1.0830   -0.0550   -2.9780 o         1 B1L     -0.388000
     21 C16         0.3740   -2.2410   -2.4630 c2        1 B1L     -0.160000
     22 C17         1.0340   -3.3330   -1.8900 c2        1 B1L     -0.031000
     23 C18         0.7420   -4.6270   -2.3180 c1        1 B1L     -0.175000
     24 C19        -0.2090   -4.8350   -3.3200 c1        1 B1L      0.116000
     25 C20        -0.8700   -3.7460   -3.8950 c1        1 B1L     -0.235000
     26 C21        -0.5810   -2.4490   -3.4690 c1        1 B1L     -0.035000
     27 O19        -0.6100   -6.1250   -3.6330 oh        1 B1L     -0.243000
     28 HO1        -6.8660    2.7210    2.0910 ho        1 B1L      0.220000
     29 H2         -5.0540    1.6600    0.0950 ha        1 B1L      0.137000
     30 H3         -2.6970    1.4800    0.1040 ha        1 B1L      0.143000
     31 H5         -2.6820    1.3500    4.1840 ha        1 B1L      0.161000
     32 H6         -5.0390    1.5280    4.2330 ha        1 B1L      0.156000
     33 HN8        -0.6560    1.4280    0.0650 hn        1 B1L      0.238000
     34 H8          1.5500    0.8480    1.6730 h1        1 B1L      0.153000
     35 H9          1.9050    1.1390   -1.0800 h1        1 B1L      0.107000
     36 H101        3.5390   -0.4070   -0.8470 hc        1 B1L      0.094500
     37 H102        2.7520   -1.1370    0.3410 hc        1 B1L      0.094500
     38 H111        4.7650    0.0030    1.0950 hc        1 B1L      0.096000
     39 H112        3.3910    0.3960    1.9370 hc        1 B1L      0.096000
     40 H121        3.8240    2.0110   -0.3400 h1        1 B1L      0.068000
     41 H122        4.9110    2.1680    0.8140 h1        1 B1L      0.068000
     42 H13         3.4540    3.6440    1.3890 hn        1 B1L      0.165000
     43 H141        1.1730    3.3290    1.4110 h1        1 B1L      0.076500
     44 H142        1.8170    3.0520   -0.1200 h1        1 B1L      0.076500
     45 H17         1.6930   -3.1910   -1.1980 ha        1 B1L      0.163000
     46 H18         1.2230   -5.4240   -1.9020 ha        1 B1L      0.160000
     47 H20        -1.5570   -3.8980   -4.6210 ha        1 B1L      0.141000
     48 H21        -1.0700   -1.6440   -3.8960 ha        1 B1L      0.156000
     49 H19        -0.2840   -6.3530   -4.4120 ho        1 B1L      0.224000
@<TRIPOS>BOND
     1    1    2 1   
     2    1   28 1   
     3    2    3 1   
     4    2    7 1   
     5    3    4 1   
     6    3   29 1   
     7    4   30 1   
     8    5    6 1   
     9    5    8 1   
    10    6   31 1   
    11    7   32 1   
    12    8    9 1   
    13    8   10 1   
    14   10   11 1   
    15   10   33 1   
    16   11   12 1   
    17   11   17 1   
    18   11   34 1   
    19   12   13 1   
    20   12   18 1   
    21   12   35 1   
    22   13   14 1   
    23   13   36 1   
    24   13   37 1   
    25   14   15 1   
    26   14   38 1   
    27   14   39 1   
    28   15   16 1   
    29   15   40 1   
    30   15   41 1   
    31   16   17 1   
    32   16   42 1   
    33   17   43 1   
    34   17   44 1   
    35   18   19 1   
    36   19   20 1   
    37   19   21 1   
    38   21   22 1   
    39   21   26 1   
    40   22   23 1   
    41   22   45 1   
    42   23   46 1   
    43   24   25 1   
    44   24   27 1   
    45   25   47 1   
    46   26   48 1   
    47   27   49 1   
@<TRIPOS>SUBSTRUCTURE
     1 B1L         1 TEMP              0 ****  ****    0 ROOT
