@<TRIPOS>MOLECULE
B1P
   22    22     1     0     0
SMALL
bcc


@<TRIPOS>ATOM
      1 OP3        -2.5360   -1.6590    3.6100 o         1 B1P     -0.933167
      2 P          -1.8360   -2.0120    2.3200 p5        1 B1P      1.331900
      3 OP1        -0.7410   -3.0140    2.6000 o         1 B1P     -0.933167
      4 OP2        -2.8310   -2.6100    1.3540 o         1 B1P     -0.933167
      5 O5'        -1.2060   -0.7070    1.6880 os        1 B1P     -0.561200
      6 C5'        -0.5200   -0.8190    0.4630 c3        1 B1P      0.228400
      7 C4'        -0.5110    0.4190   -0.1790 c3        1 B1P      0.062100
      8 O4'         0.2230    1.4440    0.6650 os        1 B1P     -0.469600
      9 C1'         1.3600    1.6450    0.0430 c3        1 B1P      0.334900
     10 O1'         2.3420    0.7830    0.5460 oh        1 B1P     -0.661800
     11 C2'         1.0910    1.3280   -1.5020 c3        1 B1P     -0.147400
     12 C3'         0.2850    0.3270   -1.5250 c3        1 B1P      0.153100
     13 O3'        -0.6420    0.4410   -2.6800 oh        1 B1P     -0.675800
     14 H5'         0.4030   -1.1070    0.6300 h1        1 B1P     -0.003800
     15 H5''       -0.9710   -1.4790   -0.1060 h1        1 B1P     -0.003800
     16 H4'        -1.4260    0.7170   -0.3490 h1        1 B1P      0.066700
     17 H1'         1.6430    2.5760    0.1510 h2        1 B1P      0.045700
     18 HO1'        2.9540    1.2550    0.9860 ho        1 B1P      0.422000
     19 H2'         0.6800    2.1030   -1.9380 hc        1 B1P      0.042200
     20 H2''        1.9310    1.0950   -1.9490 hc        1 B1P      0.042200
     21 H3'         0.7850   -0.5120   -1.5690 h1        1 B1P      0.095700
     22 HO3'       -0.4760   -0.2130   -3.2590 ho        1 B1P      0.498000
@<TRIPOS>BOND
     1    1    2 1   
     2    2    3 1   
     3    2    4 1   
     4    2    5 1   
     5    5    6 1   
     6    6    7 1   
     7    6   14 1   
     8    6   15 1   
     9    7    8 1   
    10    7   12 1   
    11    7   16 1   
    12    8    9 1   
    13    9   10 1   
    14    9   11 1   
    15    9   17 1   
    16   10   18 1   
    17   11   12 1   
    18   11   19 1   
    19   11   20 1   
    20   12   13 1   
    21   12   21 1   
    22   13   22 1   
@<TRIPOS>SUBSTRUCTURE
     1 B1P         1 TEMP              0 ****  ****    0 ROOT
