@<TRIPOS>MOLECULE
B1P
   22    22     1     0     0
SMALL
bcc


@<TRIPOS>ATOM
      1 OP3        -2.8870   -4.2340    0.7630 o         1 B1P     -0.933167
      2 P          -3.8210   -4.7090   -0.3330 p5        1 B1P      1.331900
      3 OP1        -3.6680   -6.1310   -0.7810 o         1 B1P     -0.933167
      4 OP2        -5.2130   -4.1490   -0.2420 o         1 B1P     -0.933167
      5 O5'        -3.1510   -3.7950   -1.6550 os        1 B1P     -0.561200
      6 C5'        -3.2620   -2.4390   -1.5090 c3        1 B1P      0.228400
      7 C4'        -1.9070   -1.8150   -1.1000 c3        1 B1P      0.062100
      8 O4'        -1.7750   -0.5100   -1.7200 os        1 B1P     -0.469600
      9 C1'        -1.5140    0.4860   -0.7550 c3        1 B1P      0.334900
     10 O1'        -2.6450    1.3350   -0.7920 oh        1 B1P     -0.661800
     11 C2'        -1.3070   -0.1690    0.6130 c3        1 B1P     -0.147400
     12 C3'        -1.7460   -1.6290    0.4250 c3        1 B1P      0.153100
     13 O3'        -0.7480   -2.4780    0.9440 oh        1 B1P     -0.675800
     14 H5'        -3.5480   -1.9730   -2.4990 h1        1 B1P     -0.003800
     15 H5''       -4.0490   -2.1740   -0.7470 h1        1 B1P     -0.003800
     16 H4'        -1.0670   -2.4380   -1.5070 h1        1 B1P      0.066700
     17 H1'        -0.6500    1.1160   -1.0970 h2        1 B1P      0.045700
     18 HO1'       -3.4230    0.7660   -0.8610 ho        1 B1P      0.422000
     19 H2'        -1.9240    0.3400    1.3890 hc        1 B1P      0.042200
     20 H2''       -0.2340   -0.1190    0.9150 hc        1 B1P      0.042200
     21 H3'        -2.7200   -1.8330    0.9520 h1        1 B1P      0.095700
     22 HO3'       -1.1720   -3.3660    1.0010 ho        1 B1P      0.498000
@<TRIPOS>BOND
     1    1    2 1   
     2    2    3 1   
     3    2    4 1   
     4    2    5 1   
     5    5    6 1   
     6    6    7 1   
     7    6   14 1   
     8    6   15 1   
     9    7    8 1   
    10    7   12 1   
    11    7   16 1   
    12    8    9 1   
    13    9   10 1   
    14    9   11 1   
    15    9   17 1   
    16   10   18 1   
    17   11   12 1   
    18   11   19 1   
    19   11   20 1   
    20   12   13 1   
    21   12   21 1   
    22   13   22 1   
@<TRIPOS>SUBSTRUCTURE
     1 B1P         1 TEMP              0 ****  ****    0 ROOT
