@<TRIPOS>MOLECULE
B1Q
   56    55     1     0     0
SMALL
bcc


@<TRIPOS>ATOM
      1 N1          0.7260   -0.3420   -0.9050 n         1 B1Q     -0.447000
      2 C2         -0.3960   -0.6080   -1.7630 c3        1 B1Q      0.010000
      3 N3         -2.2510    0.6230   -3.0480 n4        1 B1Q      0.020000
      4 C4         -2.5370   -0.6000   -3.9060 c3        1 B1Q     -0.161000
      5 C5          1.9420    0.0550   -1.3960 c2        1 B1Q      0.241000
      6 C6         -2.6740   -0.2180   -5.3430 c2        1 B1Q     -0.104000
      7 C7         -0.8440    0.6700   -2.5430 c3        1 B1Q     -0.131000
      8 C8         -3.7830   -1.3320   -3.4290 c3        1 B1Q     -0.224000
      9 C9         -0.2620   -1.6690   -2.8330 c1        1 B1Q     -0.222000
     10 C10        -3.7180    0.7950   -5.6810 c3        1 B1Q     -0.129000
     11 C11        -1.9020   -0.7760   -6.3030 c2        1 B1Q     -0.115000
     12 C12        -2.0220   -0.3270   -7.6760 c2        1 B1Q      0.156000
     13 C13         2.4450   -0.8960    2.5220 c2        1 B1Q      0.043000
     14 C14        -3.6740    1.3670   -7.0310 c1        1 B1Q     -0.116000
     15 C15        -2.8750    0.7280   -7.9920 c2        1 B1Q     -0.113000
     16 C16         0.2090   -0.4130    1.8380 c1        1 B1Q     -0.117000
     17 C17        -2.5470    1.9130   -3.7580 c3        1 B1Q     -0.128000
     18 C18         1.1490   -0.6730    2.8560 c2        1 B1Q     -0.263000
     19 O19         2.1820    0.1830   -2.6130 o         1 B1Q     -0.397000
     20 C20        -3.8100    1.8690   -4.6030 c3        1 B1Q     -0.140000
     21 N21         0.7750   -2.3960   -3.0600 n3        1 B1Q     -0.196000
     22 O22        -1.2230   -0.9700   -8.5620 oh        1 B1Q     -0.225000
     23 O23        -2.8510    1.1290   -9.3190 os        1 B1Q     -0.236000
     24 C25         0.6910   -0.6970    4.2940 c3        1 B1Q      0.024000
     25 C26        -3.7630    2.1850   -9.6320 c3        1 B1Q     -0.049000
     26 C27         1.0550   -4.2530   -5.1180 c1        1 B1Q     -0.043000
     27 H2         -1.2440   -0.9580   -1.0960 h1        1 B1Q      0.116000
     28 H4         -2.8720    0.5610   -2.2330 hn        1 B1Q      0.220000
     29 H7         -0.1470    0.8030   -3.4210 hx        1 B1Q      0.142500
     30 H7A        -0.7670    1.5740   -1.8750 hx        1 B1Q      0.142500
     31 H8         -1.5950   -1.3430   -3.7280 hx        1 B1Q      0.286000
     32 H8A        -4.6970   -0.6920   -3.4860 hc        1 B1Q      0.098667
     33 H9         -3.9330   -2.2220   -4.0890 hc        1 B1Q      0.098667
     34 H11        -1.1530   -1.5560   -6.0900 ha        1 B1Q      0.165000
     35 H13         0.5630   -0.3690    0.1280 hn        1 B1Q      0.310000
     36 H13A        3.2160   -1.1070    3.2820 ha        1 B1Q      0.143000
     37 H14        -4.7170    0.2340   -5.7070 hc        1 B1Q      0.180000
     38 H16         2.7120    0.2440   -0.6100 h5        1 B1Q      0.128000
     39 H16A       -0.8340   -0.2390    2.1370 ha        1 B1Q      0.072000
     40 H17        -2.6340    2.7200   -2.9770 hx        1 B1Q      0.135500
     41 H17A       -1.6680    2.1500   -4.4250 hx        1 B1Q      0.135500
     42 H18         2.7800   -0.8770    1.4720 ha        1 B1Q      0.143000
     43 H20        -4.7070    1.6870   -3.9550 hc        1 B1Q      0.127500
     44 H20A       -3.9410    2.8770   -5.0870 hc        1 B1Q      0.127500
     45 HN21       -3.6550   -1.6960   -2.3800 hc        1 B1Q      0.098667
     46 HN2A        1.6370   -2.3080   -2.5570 hn        1 B1Q      0.242000
     47 H25         0.2590    0.3110    4.5570 h1        1 B1Q      0.099500
     48 H25A       -0.1180   -1.4740    4.4070 h1        1 B1Q      0.099500
     49 H26        -4.8110    1.8640   -9.4200 h1        1 B1Q      0.091667
     50 H26A       -3.5130    3.0970   -9.0390 h1        1 B1Q      0.091667
     51 H26B       -3.5970    2.3480  -10.7260 h1        1 B1Q      0.091667
     52 H27        -1.3640   -0.5870   -9.4480 ho        1 B1Q      0.269000
     53 H27A        1.8030   -5.0530   -5.0590 ha        1 B1Q      0.062500
     54 H27B        0.4930   -4.2360   -6.0600 ha        1 B1Q      0.062500
     55 F24         1.7010   -0.9860    5.1900 f         1 B1Q     -0.160000
     56 H213        0.7830   -3.0920   -3.8430 hn        1 B1Q      0.242000
@<TRIPOS>BOND
     1    1    2 1   
     2    1    5 1   
     3    1   35 1   
     4    2    7 1   
     5    2    9 1   
     6    2   27 1   
     7    3    4 1   
     8    3    7 1   
     9    3   17 1   
    10    3   28 1   
    11    4    6 1   
    12    4    8 1   
    13    4   31 1   
    14    5   19 1   
    15    5   38 1   
    16    6   10 1   
    17    6   11 1   
    18    7   29 1   
    19    7   30 1   
    20    8   32 1   
    21    8   33 1   
    22    8   45 1   
    23    9   21 1   
    24   10   14 1   
    25   10   20 1   
    26   10   37 1   
    27   11   12 1   
    28   11   34 1   
    29   12   15 1   
    30   12   22 1   
    31   13   18 1   
    32   13   36 1   
    33   13   42 1   
    34   14   15 1   
    35   15   23 1   
    36   16   18 1   
    37   16   39 1   
    38   17   20 1   
    39   17   40 1   
    40   17   41 1   
    41   18   24 1   
    42   20   43 1   
    43   20   44 1   
    44   21   46 1   
    45   21   56 1   
    46   22   52 1   
    47   23   25 1   
    48   24   47 1   
    49   24   48 1   
    50   24   55 1   
    51   25   49 1   
    52   25   50 1   
    53   25   51 1   
    54   26   53 1   
    55   26   54 1   
@<TRIPOS>SUBSTRUCTURE
     1 B1Q         1 TEMP              0 ****  ****    0 ROOT
