@<TRIPOS>MOLECULE
B1Q
   55    58     1     0     0
SMALL
bcc


@<TRIPOS>ATOM
      1 N1          3.4320   -0.6520   -0.1350 n         1 B1Q     -0.472800
      2 C2          2.0220   -0.5030   -0.4050 c3        1 B1Q      0.127700
      3 N3         -0.2070   -1.5220   -0.0560 n3        1 B1Q     -0.737600
      4 C4         -0.7920   -0.2440    0.3720 c3        1 B1Q      0.237800
      5 C5          4.0370   -0.4930    1.1120 c         1 B1Q      0.690500
      6 C6         -2.2850   -0.1720    0.1560 ca        1 B1Q     -0.069300
      7 C7          1.1960   -1.6170    0.3040 c3        1 B1Q      0.160800
      8 C8         -0.0570    0.9060   -0.3380 c3        1 B1Q     -0.072400
      9 C9          1.4350    0.8800    0.0290 c3        1 B1Q      0.139500
     10 C10        -3.0330   -1.3170   -0.1390 ca        1 B1Q     -0.060300
     11 C11        -2.9430    1.0560    0.3280 ca        1 B1Q     -0.176000
     12 C12        -4.3220    1.1500    0.1620 ca        1 B1Q      0.100100
     13 C13         4.3940   -0.5430   -1.2170 c3        1 B1Q      0.091000
     14 C14        -4.4220   -1.2300   -0.3100 ca        1 B1Q     -0.181000
     15 C15        -5.0740   -0.0090   -0.1710 ca        1 B1Q      0.106100
     16 C16         5.5500   -0.4160    0.9410 c3        1 B1Q     -0.157400
     17 C17        -0.9920   -2.6710    0.3550 c3        1 B1Q      0.181800
     18 C18         5.7960   -0.4090   -0.5700 c3        1 B1Q     -0.116700
     19 O19         3.4360   -0.4460    2.1970 o         1 B1Q     -0.631500
     20 C20        -2.3830   -2.6470   -0.2780 c3        1 B1Q     -0.032100
     21 N21         2.1720    1.9740   -0.5830 n3        1 B1Q     -0.916800
     22 O22        -5.0590    2.3100    0.3010 os        1 B1Q     -0.303900
     23 O23        -6.4320    0.1880   -0.3210 os        1 B1Q     -0.303900
     24 C25         6.4770    0.8730   -1.0470 c3        1 B1Q      0.163900
     25 C26        -7.1920   -0.9640   -0.6660 c3        1 B1Q      0.110700
     26 C27        -4.3240    3.4790    0.6430 c3        1 B1Q      0.110700
     27 H2          1.8830   -0.6090   -1.5230 h1        1 B1Q      0.080700
     28 H4         -0.6360   -0.1030    1.4920 h1        1 B1Q      0.034700
     29 H7          1.5750   -2.6200   -0.0390 h1        1 B1Q      0.052700
     30 H7A         1.3640   -1.5400    1.4190 h1        1 B1Q      0.052700
     31 H8         -0.1900    0.8220   -1.4470 hc        1 B1Q      0.056700
     32 H8A        -0.4960    1.8820   -0.0090 hc        1 B1Q      0.056700
     33 H9          1.5090    0.9220    1.1620 h1        1 B1Q      0.042700
     34 H11        -2.3680    1.9500    0.6080 ha        1 B1Q      0.138000
     35 H13         4.3430   -1.4710   -1.8500 h1        1 B1Q      0.056700
     36 H13A        4.1600    0.3440   -1.8700 h1        1 B1Q      0.056700
     37 H14        -4.9880   -2.1420   -0.5530 ha        1 B1Q      0.139000
     38 H16         5.9370    0.5100    1.4330 hc        1 B1Q      0.086700
     39 H16A        6.0240   -1.3000    1.4330 hc        1 B1Q      0.086700
     40 H17        -0.4570   -3.6030    0.0170 h1        1 B1Q      0.035200
     41 H17A       -1.1010   -2.7280    1.4780 h1        1 B1Q      0.035200
     42 H18         6.4330   -1.2840   -0.8590 hc        1 B1Q      0.077700
     43 H20        -3.0090   -3.4380    0.2120 hc        1 B1Q      0.056200
     44 H20A       -2.3060   -2.9020   -1.3700 hc        1 B1Q      0.056200
     45 HN21        1.6080    2.8000   -0.6210 hn        1 B1Q      0.349800
     46 HN2A        2.9990    2.1690   -0.0550 hn        1 B1Q      0.349800
     47 H25         6.5220    0.8720   -2.1730 h1        1 B1Q      0.047700
     48 H25A        5.8850    1.7700   -0.7120 h1        1 B1Q      0.047700
     49 H26        -6.8540   -1.3840   -1.6450 h1        1 B1Q      0.043367
     50 H26A       -7.1230   -1.7380    0.1370 h1        1 B1Q      0.043367
     51 H26B       -8.2370   -0.5700   -0.7450 h1        1 B1Q      0.043367
     52 H27        -3.8220    3.3570    1.6340 h1        1 B1Q      0.043033
     53 H27A       -3.5750    3.7230   -0.1480 h1        1 B1Q      0.043033
     54 H27B       -5.1130    4.2720    0.6960 h1        1 B1Q      0.043033
     55 F24         7.7640    0.9880   -0.5590 f         1 B1Q     -0.243300
@<TRIPOS>BOND
     1    1    2 1   
     2    1    5 1   
     3    1   13 1   
     4    2    7 1   
     5    2    9 1   
     6    2   27 1   
     7    3    4 1   
     8    3    7 1   
     9    3   17 1   
    10    4    6 1   
    11    4    8 1   
    12    4   28 1   
    13    5   16 1   
    14    5   19 2   
    15    6   10 ar  
    16    6   11 ar  
    17    7   29 1   
    18    7   30 1   
    19    8    9 1   
    20    8   31 1   
    21    8   32 1   
    22    9   21 1   
    23    9   33 1   
    24   10   14 ar  
    25   10   20 1   
    26   11   12 ar  
    27   11   34 1   
    28   12   15 ar  
    29   12   22 1   
    30   13   18 1   
    31   13   35 1   
    32   13   36 1   
    33   14   15 ar  
    34   14   37 1   
    35   15   23 1   
    36   16   18 1   
    37   16   38 1   
    38   16   39 1   
    39   17   20 1   
    40   17   40 1   
    41   17   41 1   
    42   18   24 1   
    43   18   42 1   
    44   20   43 1   
    45   20   44 1   
    46   21   45 1   
    47   21   46 1   
    48   22   26 1   
    49   23   25 1   
    50   24   47 1   
    51   24   48 1   
    52   24   55 1   
    53   25   49 1   
    54   25   50 1   
    55   25   51 1   
    56   26   52 1   
    57   26   53 1   
    58   26   54 1   
@<TRIPOS>SUBSTRUCTURE
     1 B1Q         1 TEMP              0 ****  ****    0 ROOT
