@<TRIPOS>MOLECULE
B1Q
   55    56     1     0     0
SMALL
bcc


@<TRIPOS>ATOM
      1 N1          1.3640    1.4730    3.0690 n         1 B1Q     -0.313000
      2 C2          0.5030    1.0830    1.8970 c3        1 B1Q      0.048000
      3 N3          0.3410    1.2900   -0.6160 n3        1 B1Q     -0.263000
      4 C4          0.3340   -0.1360   -0.7480 c3        1 B1Q      0.035000
      5 C5          2.5500    1.0000    3.3360 c2        1 B1Q      0.306000
      6 C6         -0.4980   -0.7130   -1.9640 c2        1 B1Q     -0.083000
      7 C7          1.0350    1.7640    0.6350 c3        1 B1Q     -0.074000
      8 C8         -0.2080   -0.8350    0.5450 c3        1 B1Q     -0.184000
      9 C9          0.4910   -0.3680    1.7840 c3        1 B1Q     -0.070000
     10 C10        -1.0980    0.2510   -2.8990 c1        1 B1Q     -0.032000
     11 C11        -0.6340   -2.0690   -2.1910 c2        1 B1Q     -0.112000
     12 C12        -1.3370   -2.5210   -3.3050 c1        1 B1Q      0.027000
     13 C13         1.1630    2.6910    3.9530 c3        1 B1Q     -0.026000
     14 C14        -1.7960   -0.2020   -4.0050 c1        1 B1Q     -0.194000
     15 C15        -1.9300   -1.5680   -4.2300 c1        1 B1Q      0.057000
     16 C16         2.8140    1.3540    4.8760 c3        1 B1Q     -0.185000
     17 C17         0.3310    2.0530   -1.7920 c3        1 B1Q     -0.056000
     18 C18         1.6970    2.3740    5.1730 c3        1 B1Q     -0.152000
     19 O19         3.1660    0.1470    2.6650 o         1 B1Q     -0.352000
     20 C20        -0.6930    1.7600   -2.7470 c3        1 B1Q     -0.122000
     21 N21        -0.1960   -0.9280    2.9620 n3        1 B1Q     -0.340000
     22 O22        -1.8510   -3.8140   -3.3000 os        1 B1Q     -0.215000
     23 O23        -2.9670   -2.1570   -5.0290 os        1 B1Q     -0.207000
     24 F24         1.0380    1.7720    7.3430 f         1 B1Q     -0.174000
     25 C25         0.6200    1.7410    6.0900 c3        1 B1Q      0.011000
     26 C26        -2.9190   -1.7790   -6.4180 c3        1 B1Q     -0.077000
     27 C27        -0.9800   -4.7620   -3.8160 c3        1 B1Q     -0.074000
     28 H2         -0.4270    1.4000    2.0620 h1        1 B1Q      0.105000
     29 H4          1.2670   -0.4230   -0.8700 h1        1 B1Q      0.077000
     30 H7          1.9700    1.5800    0.5570 h1        1 B1Q      0.095500
     31 H7A         0.9090    2.7090    0.7170 h1        1 B1Q      0.095500
     32 H8         -1.1760   -0.6460    0.6310 hc        1 B1Q      0.092000
     33 H8A        -0.0820   -1.7860    0.4590 hc        1 B1Q      0.092000
     34 H9          1.4300   -0.7000    1.7700 h1        1 B1Q      0.123000
     35 H11        -0.2130   -2.7520   -1.5330 ha        1 B1Q      0.147000
     36 H13         1.6250    3.4600    3.5730 h1        1 B1Q      0.089500
     37 H13A        0.1990    2.8850    4.0460 h1        1 B1Q      0.089500
     38 H14        -2.1990    0.4450   -4.6380 ha        1 B1Q      0.139000
     39 H16         2.7560    0.6310    5.5010 hc        1 B1Q      0.126000
     40 H16A        3.7210    1.6770    5.0140 hc        1 B1Q      0.126000
     41 H17         1.2010    1.9350   -2.2370 h1        1 B1Q      0.075500
     42 H17A        0.2450    2.9800   -1.5410 h1        1 B1Q      0.075500
     43 H18         2.0750    3.1750    5.5950 hc        1 B1Q      0.113000
     44 H20        -1.4750    2.2500   -2.5010 hc        1 B1Q      0.097000
     45 H20A       -0.3940    2.0810   -3.6200 hc        1 B1Q      0.097000
     46 HN21       -1.1060   -1.0550    2.7650 hn        1 B1Q      0.142000
     47 HN2A        0.1850   -1.7330    3.1860 hn        1 B1Q      0.142000
     48 H25        -0.1980    2.2400    6.0150 h1        1 B1Q      0.090500
     49 H25A        0.4610    0.7960    5.8160 h1        1 B1Q      0.090500
     50 H26        -3.4670   -2.4090   -6.9490 h1        1 B1Q      0.084000
     51 H26A       -2.0000   -1.8080   -6.7300 h1        1 B1Q      0.084000
     52 H26B       -3.2810   -0.8430   -6.5260 h1        1 B1Q      0.084000
     53 H27        -0.5860   -5.2740   -3.0870 h1        1 B1Q      0.082667
     54 H27A       -0.2910   -4.3250   -4.3040 h1        1 B1Q      0.082667
     55 H27B       -1.4910   -5.3910   -4.4380 h1        1 B1Q      0.082667
@<TRIPOS>BOND
     1    1    2 1   
     2    1    5 1   
     3    1   13 1   
     4    2    7 1   
     5    2    9 1   
     6    2   28 1   
     7    3    4 1   
     8    3    7 1   
     9    3   17 1   
    10    4    6 1   
    11    4    8 1   
    12    4   29 1   
    13    5   16 1   
    14    5   19 1   
    15    6   10 1   
    16    6   11 1   
    17    7   30 1   
    18    7   31 1   
    19    8    9 1   
    20    8   32 1   
    21    8   33 1   
    22    9   21 1   
    23    9   34 1   
    24   10   20 1   
    25   11   12 1   
    26   11   35 1   
    27   12   22 1   
    28   13   18 1   
    29   13   36 1   
    30   13   37 1   
    31   14   15 1   
    32   14   38 1   
    33   15   23 1   
    34   16   18 1   
    35   16   39 1   
    36   16   40 1   
    37   17   20 1   
    38   17   41 1   
    39   17   42 1   
    40   18   25 1   
    41   18   43 1   
    42   20   44 1   
    43   20   45 1   
    44   21   46 1   
    45   21   47 1   
    46   22   27 1   
    47   23   26 1   
    48   24   25 1   
    49   25   48 1   
    50   25   49 1   
    51   26   50 1   
    52   26   51 1   
    53   26   52 1   
    54   27   53 1   
    55   27   54 1   
    56   27   55 1   
@<TRIPOS>SUBSTRUCTURE
     1 B1Q         1 TEMP              0 ****  ****    0 ROOT
