@<TRIPOS>MOLECULE
B1T
   25    26     1     0     0
SMALL
bcc


@<TRIPOS>ATOM
      1 OAA         0.1650   -0.4180    0.0470 oh        1 B1T     -0.479600
      2 CAP         1.5040   -0.1340    0.0680 ca        1 B1T      0.160100
      3 CAN         2.2110    0.1460    1.2560 ca        1 B1T     -0.064100
      4 CLAE        1.4110    0.1630    2.7580 cl        1 B1T     -0.081400
      5 CAG         3.5760    0.4240    1.2160 ca        1 B1T     -0.073500
      6 CAL         4.2420    0.4090   -0.0130 ca        1 B1T     -0.010100
      7 CLAC        5.9050    0.7420   -0.0690 cl        1 B1T     -0.079900
      8 CAI         3.5520    0.1140   -1.1900 ca        1 B1T     -0.069500
      9 CAR         2.1770   -0.1460   -1.1730 ca        1 B1T     -0.060600
     10 SAK         1.4520   -0.2610   -2.7080 ss        1 B1T     -0.010800
     11 CAS         0.7210   -1.7860   -2.8360 ca        1 B1T     -0.060600
     12 CAJ         0.7470   -2.7630   -1.8400 ca        1 B1T     -0.069500
     13 CAM         0.1420   -4.0060   -2.0360 ca        1 B1T     -0.010100
     14 CLAD        0.1980   -5.1700   -0.7990 cl        1 B1T     -0.079900
     15 CAH        -0.5080   -4.3050   -3.2330 ca        1 B1T     -0.073500
     16 CAO        -0.5480   -3.3380   -4.2400 ca        1 B1T     -0.064100
     17 CLAF       -1.3470   -3.7060   -5.6990 cl        1 B1T     -0.081400
     18 CAQ         0.0580   -2.0850   -4.0520 ca        1 B1T      0.160100
     19 OAB         0.0550   -1.0960   -5.0050 oh        1 B1T     -0.479600
     20 HOAA       -0.1910   -0.3170    0.9460 ho        1 B1T      0.437000
     21 HAG         4.1240    0.6500    2.1460 ha        1 B1T      0.165000
     22 HAI         4.0880    0.0880   -2.1550 ha        1 B1T      0.162500
     23 HAJ         1.2420   -2.5420   -0.8790 ha        1 B1T      0.162500
     24 HAH        -0.9850   -5.2860   -3.3860 ha        1 B1T      0.165000
     25 HOAB       -0.4460   -1.4120   -5.7760 ho        1 B1T      0.437000
@<TRIPOS>BOND
     1    1    2 1   
     2    1   20 1   
     3    2    3 ar  
     4    2    9 ar  
     5    3    4 1   
     6    3    5 ar  
     7    5    6 ar  
     8    5   21 1   
     9    6    7 1   
    10    6    8 ar  
    11    8    9 ar  
    12    8   22 1   
    13    9   10 1   
    14   10   11 1   
    15   11   12 ar  
    16   11   18 ar  
    17   12   13 ar  
    18   12   23 1   
    19   13   14 1   
    20   13   15 ar  
    21   15   16 ar  
    22   15   24 1   
    23   16   17 1   
    24   16   18 ar  
    25   18   19 1   
    26   19   25 1   
@<TRIPOS>SUBSTRUCTURE
     1 B1T         1 TEMP              0 ****  ****    0 ROOT
