@<TRIPOS>MOLECULE
B1T
   25    22     1     0     0
SMALL
bcc


@<TRIPOS>ATOM
      1 OAA        -0.5750   -1.8200    1.2950 oh        1 B1T     -0.230000
      2 CAP         0.7720   -1.4150    1.3100 c2        1 B1T      0.132000
      3 CAN         1.4970   -1.4630    2.4900 c2        1 B1T     -0.155000
      4 CLAE        0.7430   -2.0350    3.9540 cl        1 B1T      0.001000
      5 CAG         2.8150   -1.0350    2.5110 c1        1 B1T     -0.056000
      6 CAL         3.4080   -0.5590    1.3520 c1        1 B1T     -0.103000
      7 CLAC        5.0840   -0.0760    1.3650 cl        1 B1T      0.004000
      8 CAI         2.6830   -0.5110    0.1720 c1        1 B1T     -0.045000
      9 CAR         1.3650   -0.9390    0.1500 c1        1 B1T     -0.315000
     10 SAK         0.4700   -0.9730   -1.3800 ss        1 B1T      0.443000
     11 CAS        -0.7600    0.3040   -1.3750 c2        1 B1T     -0.260000
     12 CAJ        -0.4010    1.6090   -1.0740 c2        1 B1T     -0.094000
     13 CAM        -1.3490    2.6190   -1.1320 c1        1 B1T     -0.074000
     14 CLAD       -0.8870    4.2670   -0.7980 cl        1 B1T     -0.007000
     15 CAH        -2.6540    2.3240   -1.4920 c2        1 B1T     -0.091000
     16 CAO        -3.0130    1.0200   -1.7930 c1        1 B1T     -0.130000
     17 CLAF       -4.6630    0.6440   -2.2130 cl        1 B1T     -0.007000
     18 CAQ        -2.0650    0.0100   -1.7350 c1        1 B1T      0.098000
     19 OAB        -2.4240   -1.3100   -2.0600 oh        1 B1T     -0.237000
     20 HOAA       -0.6340   -2.6630    1.5720 ho        1 B1T      0.238000
     21 HAG         3.3260   -1.0690    3.3420 ha        1 B1T      0.167000
     22 HAI         3.1010   -0.1760   -0.6440 ha        1 B1T      0.169000
     23 HAJ         0.5140    1.8140   -0.8040 ha        1 B1T      0.156000
     24 HAH        -3.3210    3.0360   -1.5330 ha        1 B1T      0.163000
     25 HOAB       -3.0320   -1.6030   -1.4800 ho        1 B1T      0.234000
@<TRIPOS>BOND
     1    1    2 1   
     2    1   20 1   
     3    2    3 1   
     4    2    9 1   
     5    3    4 1   
     6    3    5 1   
     7    5   21 1   
     8    6    7 1   
     9    6    8 1   
    10    8   22 1   
    11    9   10 1   
    12   10   11 1   
    13   11   12 1   
    14   11   18 1   
    15   12   13 1   
    16   12   23 1   
    17   13   15 1   
    18   15   16 1   
    19   15   24 1   
    20   16   17 1   
    21   18   19 1   
    22   19   25 1   
@<TRIPOS>SUBSTRUCTURE
     1 B1T         1 TEMP              0 ****  ****    0 ROOT
