@<TRIPOS>MOLECULE
B1T
   25    26     1     0     0
SMALL
bcc


@<TRIPOS>ATOM
      1 OAA         0.1700   -0.4360    0.0630 oh        1 B1T     -0.479600
      2 CAP         1.5060   -0.1430    0.0750 ca        1 B1T      0.160100
      3 CAN         2.2210    0.1350    1.2600 ca        1 B1T     -0.064100
      4 ClAE        1.4320    0.1370    2.7680 cl        1 B1T     -0.081400
      5 CAG         3.5840    0.4230    1.2110 ca        1 B1T     -0.073500
      6 CAL         4.2400    0.4200   -0.0240 ca        1 B1T     -0.010100
      7 ClAC        5.9010    0.7650   -0.0900 cl        1 B1T     -0.079900
      8 CAI         3.5430    0.1270   -1.1970 ca        1 B1T     -0.069500
      9 CAR         2.1700   -0.1420   -1.1710 ca        1 B1T     -0.060600
     10 SAK         1.4340   -0.2530   -2.7010 ss        1 B1T     -0.011800
     11 CAS         0.7130   -1.7820   -2.8330 ca        1 B1T     -0.060600
     12 CAJ         0.7540   -2.7650   -1.8440 ca        1 B1T     -0.069500
     13 CAM         0.1560   -4.0120   -2.0430 ca        1 B1T     -0.010100
     14 ClAD        0.2300   -5.1830   -0.8130 cl        1 B1T     -0.079900
     15 CAH        -0.5000   -4.3080   -3.2370 ca        1 B1T     -0.073500
     16 CAO        -0.5540   -3.3350   -4.2380 ca        1 B1T     -0.064100
     17 ClAF       -1.3600   -3.7000   -5.6940 cl        1 B1T     -0.081400
     18 CAQ         0.0440   -2.0780   -4.0470 ca        1 B1T      0.160100
     19 OAB         0.0270   -1.0840   -4.9940 oh        1 B1T     -0.479600
     20 HOAA       -0.1800   -0.3430    0.9650 ho        1 B1T      0.437000
     21 HAG         4.1370    0.6470    2.1380 ha        1 B1T      0.165000
     22 HAI         4.0720    0.1120   -2.1670 ha        1 B1T      0.162500
     23 HAJ         1.2540   -2.5460   -0.8850 ha        1 B1T      0.162500
     24 HAH        -0.9710   -5.2910   -3.3930 ha        1 B1T      0.165000
     25 HOAB       -0.4760   -1.3990   -5.7620 ho        1 B1T      0.437000
@<TRIPOS>BOND
     1    1    2 1   
     2    1   20 1   
     3    2    3 ar  
     4    2    9 ar  
     5    3    4 1   
     6    3    5 ar  
     7    5    6 ar  
     8    5   21 1   
     9    6    7 1   
    10    6    8 ar  
    11    8    9 ar  
    12    8   22 1   
    13    9   10 1   
    14   10   11 1   
    15   11   12 ar  
    16   11   18 ar  
    17   12   13 ar  
    18   12   23 1   
    19   13   14 1   
    20   13   15 ar  
    21   15   16 ar  
    22   15   24 1   
    23   16   17 1   
    24   16   18 ar  
    25   18   19 1   
    26   19   25 1   
@<TRIPOS>SUBSTRUCTURE
     1 B1T         1 TEMP              0 ****  ****    0 ROOT
