@<TRIPOS>MOLECULE
B1T
   25    26     1     0     0
SMALL
bcc


@<TRIPOS>ATOM
      1 OAA         1.4220    0.0960    2.6990 oh        1 B1T     -0.478100
      2 CAP         1.9890    0.2460    1.4670 ca        1 B1T      0.175100
      3 CAN         3.2780   -0.3070    1.2740 ca        1 B1T     -0.040100
      4 CLAE        4.0860   -1.1270    2.5190 cl        1 B1T     -0.066900
      5 CAG         3.9050   -0.1820    0.0360 ca        1 B1T     -0.070000
      6 CAL         3.2600    0.4910   -1.0090 ca        1 B1T     -0.016100
      7 CLAC        4.0360    0.6390   -2.5120 cl        1 B1T     -0.076400
      8 CAI         1.9930    1.0380   -0.8240 ca        1 B1T     -0.066500
      9 CAR         1.3430    0.9220    0.4100 ca        1 B1T     -0.104100
     10 SAK        -0.1400    1.7200    0.6640 ss        1 B1T     -0.056800
     11 CAS        -1.3390    0.6710    0.0640 ca        1 B1T     -0.104100
     12 CAJ        -1.0680   -0.4910   -0.6580 ca        1 B1T     -0.066500
     13 CAM        -2.1040   -1.2960   -1.1380 ca        1 B1T     -0.016100
     14 CLAD       -1.7360   -2.7060   -2.0100 cl        1 B1T     -0.076400
     15 CAH        -3.4380   -0.9530   -0.9120 ca        1 B1T     -0.070000
     16 CAO        -3.7280    0.2080   -0.1940 ca        1 B1T     -0.040100
     17 CLAF       -5.3560    0.6210    0.0790 cl        1 B1T     -0.066900
     18 CAQ        -2.6910    1.0220    0.2970 ca        1 B1T      0.175100
     19 OAB        -2.9100    2.1700    1.0160 oh        1 B1T     -0.478100
     20 HOAA        0.5510    0.5420    2.6900 ho        1 B1T      0.442500
     21 HAG         4.9090   -0.6120   -0.1180 ha        1 B1T      0.166500
     22 HAI         1.4910    1.5740   -1.6480 ha        1 B1T      0.163000
     23 HAJ        -0.0200   -0.7770   -0.8540 ha        1 B1T      0.163000
     24 HAH        -4.2540   -1.5880   -1.2940 ha        1 B1T      0.166500
     25 HOAB       -3.8690    2.3020    1.1030 ho        1 B1T      0.442500
@<TRIPOS>BOND
     1    1    2 1   
     2    1   20 1   
     3    2    3 ar  
     4    2    9 ar  
     5    3    4 1   
     6    3    5 ar  
     7    5    6 ar  
     8    5   21 1   
     9    6    7 1   
    10    6    8 ar  
    11    8    9 ar  
    12    8   22 1   
    13    9   10 1   
    14   10   11 1   
    15   11   12 ar  
    16   11   18 ar  
    17   12   13 ar  
    18   12   23 1   
    19   13   14 1   
    20   13   15 ar  
    21   15   16 ar  
    22   15   24 1   
    23   16   17 1   
    24   16   18 ar  
    25   18   19 1   
    26   19   25 1   
@<TRIPOS>SUBSTRUCTURE
     1 B1T         1 TEMP              0 ****  ****    0 ROOT
