@<TRIPOS>MOLECULE
B1V
   35    36     1     0     0
SMALL
bcc


@<TRIPOS>ATOM
      1 F27         0.3190   -0.1740    0.8480 f         1 B1V     -0.222967
      2 C24         1.2460    0.0820   -0.1280 c3        1 B1V      0.598600
      3 F25         2.1580    0.9130    0.4720 f         1 B1V     -0.222967
      4 F26         0.6040    0.8750   -1.0400 f         1 B1V     -0.222967
      5 C9          1.8770   -1.1900   -0.7400 ca        1 B1V      0.403600
      6 N11         1.0380   -2.0580   -1.3470 nb        1 B1V     -0.673000
      7 C7          3.2620   -1.3840   -0.6410 ca        1 B1V     -0.357600
      8 C5          3.7510   -2.5810   -1.2330 ca        1 B1V      0.679600
      9 O13         5.1010   -2.7890   -1.1470 oh        1 B1V     -0.597300
     10 N3          2.9510   -3.4840   -1.8560 nb        1 B1V     -0.799000
     11 C1          1.6130   -3.1830   -1.8870 ca        1 B1V      0.737300
     12 S14         0.5060   -4.2500   -2.6490 ss        1 B1V     -0.057400
     13 C15         1.5350   -5.5720   -3.2190 c3        1 B1V     -0.146300
     14 C16         0.6640   -6.6030   -3.9070 c         1 B1V      0.668100
     15 O23        -0.5580   -6.4050   -4.0620 o         1 B1V     -0.588100
     16 N17         1.2380   -7.8110   -4.2910 n         1 B1V     -0.447800
     17 C18         2.6680   -7.9920   -4.4130 c3        1 B1V      0.079000
     18 C19         3.1640   -8.0540   -5.8610 c3        1 B1V     -0.104400
     19 C20         2.3840   -9.0810   -6.6550 c3        1 B1V     -0.079400
     20 C21         0.8930   -8.8430   -6.5410 c3        1 B1V     -0.104400
     21 C22         0.4560   -8.7470   -5.0790 c3        1 B1V      0.079000
     22 H7          3.9350   -0.6750   -0.1460 ha        1 B1V      0.189000
     23 H13         5.3350   -3.6300   -1.5770 ho        1 B1V      0.446000
     24 H151        2.2990   -5.1910   -3.9430 h1        1 B1V      0.100700
     25 H152        2.0780   -6.0440   -2.3600 h1        1 B1V      0.100700
     26 H181        3.2240   -7.1800   -3.8700 h1        1 B1V      0.060950
     27 H182        2.9180   -8.9720   -3.9090 h1        1 B1V      0.060950
     28 H191        4.2520   -8.3220   -5.8500 hc        1 B1V      0.051700
     29 H192        3.0650   -7.0470   -6.3420 hc        1 B1V      0.051700
     30 H201        2.6930   -9.0380   -7.7320 hc        1 B1V      0.045200
     31 H202        2.6280  -10.1080   -6.2760 hc        1 B1V      0.045200
     32 H211        0.3330   -9.6860   -7.0210 hc        1 B1V      0.051700
     33 H212        0.6170   -7.9000   -7.0820 hc        1 B1V      0.051700
     34 H221       -0.6320   -8.4590   -5.0330 h1        1 B1V      0.060950
     35 H222        0.5750   -9.7600   -4.5950 h1        1 B1V      0.060950
@<TRIPOS>BOND
     1    1    2 1   
     2    2    3 1   
     3    2    4 1   
     4    2    5 1   
     5    5    6 ar  
     6    5    7 ar  
     7    6   11 ar  
     8    7    8 ar  
     9    7   22 1   
    10    8    9 1   
    11    8   10 ar  
    12    9   23 1   
    13   10   11 ar  
    14   11   12 1   
    15   12   13 1   
    16   13   14 1   
    17   13   24 1   
    18   13   25 1   
    19   14   15 2   
    20   14   16 1   
    21   16   17 1   
    22   16   21 1   
    23   17   18 1   
    24   17   26 1   
    25   17   27 1   
    26   18   19 1   
    27   18   28 1   
    28   18   29 1   
    29   19   20 1   
    30   19   30 1   
    31   19   31 1   
    32   20   21 1   
    33   20   32 1   
    34   20   33 1   
    35   21   34 1   
    36   21   35 1   
@<TRIPOS>SUBSTRUCTURE
     1 B1V         1 TEMP              0 ****  ****    0 ROOT
