@<TRIPOS>MOLECULE
B1V
   35    34     1     0     0
SMALL
bcc


@<TRIPOS>ATOM
      1 F27        -4.8660    2.4150    0.7050 f         1 B1V     -0.151333
      2 C24        -4.3710    3.4890    1.3540 c3        1 B1V      0.480000
      3 F25        -5.1810    3.8130    2.3700 f         1 B1V     -0.151333
      4 F26        -4.2870    4.5280    0.5060 f         1 B1V     -0.151333
      5 C9         -2.9910    3.1680    1.8930 c2        1 B1V     -0.022000
      6 N11        -2.4170    1.9830    1.6210 n2        1 B1V     -0.146000
      7 C7         -2.3780    4.0360    2.7090 c1        1 B1V     -0.222000
      8 C5         -1.1520    3.7130    3.2720 c1        1 B1V      0.182000
      9 O13        -0.5390    4.6040    4.1950 oh        1 B1V     -0.225000
     10 N3         -0.5810    2.5350    3.0020 n1        1 B1V     -0.263000
     11 C1         -1.1920    1.6640    2.1860 c1        1 B1V     -0.103000
     12 S14        -0.4840    0.0410    1.9240 ss        1 B1V      0.391000
     13 C15         0.5550    0.0830    0.4660 c3        1 B1V     -0.349000
     14 C16         1.4660   -1.1450    0.4390 c2        1 B1V      0.308000
     15 O23         2.2670   -1.3660    1.3980 o         1 B1V     -0.346000
     16 N17         1.3800   -2.0910   -0.6790 n         1 B1V     -0.303000
     17 C18         2.1930   -3.3300   -0.7590 c3        1 B1V     -0.042500
     18 C19         2.9340   -3.4520   -2.0850 c3        1 B1V     -0.183000
     19 C20         2.0170   -3.2710   -3.2730 c3        1 B1V     -0.158000
     20 C21         1.2000   -2.0080   -3.1730 c3        1 B1V     -0.183000
     21 C22         0.4680   -1.8930   -1.8300 c3        1 B1V     -0.042500
     22 H7         -2.7870    4.8960    2.8990 ha        1 B1V      0.190000
     23 H13        -0.0260    5.1370    3.7760 ho        1 B1V      0.249000
     24 H151       -0.0020    0.0850   -0.3230 h1        1 B1V      0.146000
     25 H152        1.1100    0.9070    0.4790 h1        1 B1V      0.146000
     26 H181        2.8670   -3.3280   -0.0080 h1        1 B1V      0.104500
     27 H182        1.5830   -4.1290   -0.6500 h1        1 B1V      0.104500
     28 H191        3.3620   -4.3710   -2.1400 hc        1 B1V      0.090500
     29 H192        3.6680   -2.7400   -2.1230 hc        1 B1V      0.090500
     30 H201        2.5720   -3.2320   -4.1050 hc        1 B1V      0.084500
     31 H202        1.4200   -4.0330   -3.3290 hc        1 B1V      0.084500
     32 H211        0.5550   -2.0030   -3.8780 hc        1 B1V      0.090500
     33 H212        1.8070   -1.2170   -3.2810 hc        1 B1V      0.090500
     34 H221       -0.2180   -2.5410   -1.7950 h1        1 B1V      0.104500
     35 H222        0.0440   -0.9480   -1.7600 h1        1 B1V      0.104500
@<TRIPOS>BOND
     1    1    2 1   
     2    2    3 1   
     3    2    4 1   
     4    2    5 1   
     5    5    6 1   
     6    5    7 1   
     7    6   11 1   
     8    7   22 1   
     9    8    9 1   
    10    8   10 1   
    11    9   23 1   
    12   11   12 1   
    13   12   13 1   
    14   13   14 1   
    15   13   24 1   
    16   13   25 1   
    17   14   15 1   
    18   14   16 1   
    19   16   17 1   
    20   16   21 1   
    21   17   18 1   
    22   17   26 1   
    23   17   27 1   
    24   18   19 1   
    25   18   28 1   
    26   18   29 1   
    27   19   20 1   
    28   19   30 1   
    29   19   31 1   
    30   20   21 1   
    31   20   32 1   
    32   20   33 1   
    33   21   34 1   
    34   21   35 1   
@<TRIPOS>SUBSTRUCTURE
     1 B1V         1 TEMP              0 ****  ****    0 ROOT
