@<TRIPOS>MOLECULE
B1V
   35    36     1     0     0
SMALL
bcc


@<TRIPOS>ATOM
      1 F27         0.3090   -0.1550    0.8200 f         1 B1V     -0.222967
      2 C24         1.2550    0.0900   -0.1400 c3        1 B1V      0.598600
      3 F25         2.1670    0.9100    0.4750 f         1 B1V     -0.222967
      4 F26         0.6370    0.8910   -1.0620 f         1 B1V     -0.222967
      5 C9          1.8810   -1.1900   -0.7420 ca        1 B1V      0.403600
      6 N11         1.0430   -2.0460   -1.3630 nb        1 B1V     -0.673000
      7 C7          3.2610   -1.4010   -0.6180 ca        1 B1V     -0.357600
      8 C5          3.7460   -2.6030   -1.2020 ca        1 B1V      0.679600
      9 O13         5.0920   -2.8280   -1.0930 oh        1 B1V     -0.597300
     10 N3          2.9460   -3.4960   -1.8390 nb        1 B1V     -0.799000
     11 C1          1.6130   -3.1790   -1.8940 ca        1 B1V      0.737300
     12 S14         0.5070   -4.2330   -2.6750 ss        1 B1V     -0.057400
     13 C15         1.5290   -5.5670   -3.2270 c3        1 B1V     -0.146300
     14 C16         0.6580   -6.5860   -3.9300 c         1 B1V      0.668100
     15 O23        -0.5590   -6.3740   -4.1070 o         1 B1V     -0.588100
     16 N17         1.2240   -7.8010   -4.3050 n         1 B1V     -0.447800
     17 C18         2.6540   -8.0000   -4.4020 c3        1 B1V      0.079000
     18 C19         3.1740   -8.0680   -5.8410 c3        1 B1V     -0.104400
     19 C20         2.3960   -9.0840   -6.6490 c3        1 B1V     -0.079400
     20 C21         0.9060   -8.8280   -6.5620 c3        1 B1V     -0.104400
     21 C22         0.4440   -8.7280   -5.1070 c3        1 B1V      0.079000
     22 H7          3.9340   -0.7000   -0.1110 ha        1 B1V      0.189000
     23 H13         5.3230   -3.6710   -1.5190 ho        1 B1V      0.446000
     24 H151        2.3100   -5.1940   -3.9370 h1        1 B1V      0.100700
     25 H152        2.0520   -6.0450   -2.3590 h1        1 B1V      0.100700
     26 H181        2.8820   -8.9830   -3.8940 h1        1 B1V      0.060950
     27 H182        3.2100   -7.1950   -3.8490 h1        1 B1V      0.060950
     28 H191        4.2580   -8.3480   -5.8110 hc        1 B1V      0.051700
     29 H192        3.0960   -7.0590   -6.3240 hc        1 B1V      0.051700
     30 H201        2.7240   -9.0450   -7.7200 hc        1 B1V      0.045200
     31 H202        2.6210  -10.1150   -6.2660 hc        1 B1V      0.045200
     32 H211        0.6510   -7.8830   -7.1070 hc        1 B1V      0.051700
     33 H212        0.3450   -9.6650   -7.0520 hc        1 B1V      0.051700
     34 H221        0.5420   -9.7420   -4.6220 h1        1 B1V      0.060950
     35 H222       -0.6410   -8.4260   -5.0800 h1        1 B1V      0.060950
@<TRIPOS>BOND
     1    1    2 1   
     2    2    3 1   
     3    2    4 1   
     4    2    5 1   
     5    5    6 ar  
     6    5    7 ar  
     7    6   11 ar  
     8    7    8 ar  
     9    7   22 1   
    10    8    9 1   
    11    8   10 ar  
    12    9   23 1   
    13   10   11 ar  
    14   11   12 1   
    15   12   13 1   
    16   13   14 1   
    17   13   24 1   
    18   13   25 1   
    19   14   15 2   
    20   14   16 1   
    21   16   17 1   
    22   16   21 1   
    23   17   18 1   
    24   17   26 1   
    25   17   27 1   
    26   18   19 1   
    27   18   28 1   
    28   18   29 1   
    29   19   20 1   
    30   19   30 1   
    31   19   31 1   
    32   20   21 1   
    33   20   32 1   
    34   20   33 1   
    35   21   34 1   
    36   21   35 1   
@<TRIPOS>SUBSTRUCTURE
     1 B1V         1 TEMP              0 ****  ****    0 ROOT
