@<TRIPOS>MOLECULE
B1V
   35    36     1     0     0
SMALL
bcc


@<TRIPOS>ATOM
      1 F27        -1.5860   -0.5550    5.0860 f         1 B1V     -0.222967
      2 C24        -0.5810    0.3290    4.7980 c3        1 B1V      0.598600
      3 F25         0.2880    0.2230    5.8550 f         1 B1V     -0.222967
      4 F26        -1.1390    1.5720    4.9340 f         1 B1V     -0.222967
      5 C9          0.0860    0.0910    3.4230 ca        1 B1V      0.403600
      6 N11        -0.7080    0.1800    2.3340 nb        1 B1V     -0.673000
      7 C7          1.4560   -0.2000    3.3670 ca        1 B1V     -0.357600
      8 C5          1.9810   -0.4030    2.0610 ca        1 B1V      0.679600
      9 O13         3.3170   -0.6880    1.9840 oh        1 B1V     -0.597300
     10 N3          1.2250   -0.3240    0.9350 nb        1 B1V     -0.799000
     11 C1         -0.1020   -0.0340    1.1200 ca        1 B1V      0.737300
     12 S14        -1.1530    0.0920   -0.2310 ss        1 B1V     -0.057400
     13 C15        -0.0940   -0.2380   -1.6090 c3        1 B1V     -0.146300
     14 C16        -0.9160   -0.1700   -2.8800 c         1 B1V      0.668100
     15 O23        -2.1200    0.1580   -2.8450 o         1 B1V     -0.588100
     16 N17        -0.3240   -0.5580   -4.0770 n         1 B1V     -0.447800
     17 C18         1.1100   -0.6610   -4.2430 c3        1 B1V      0.079000
     18 C19         1.7220    0.4720   -5.0720 c3        1 B1V     -0.104400
     19 C20         1.0000    0.6240   -6.3950 c3        1 B1V     -0.079400
     20 C21        -0.4930    0.7700   -6.1890 c3        1 B1V     -0.104400
     21 C22        -1.0480   -0.3610   -5.3210 c3        1 B1V      0.079000
     22 H7          2.0940   -0.2700    4.2550 ha        1 B1V      0.189000
     23 H13         3.5770   -0.8110    1.0550 ho        1 B1V      0.446000
     24 H151        0.3720   -1.2510   -1.5110 h1        1 B1V      0.100700
     25 H152        0.7300    0.5180   -1.6610 h1        1 B1V      0.100700
     26 H181        1.6270   -0.7070   -3.2470 h1        1 B1V      0.060950
     27 H182        1.3070   -1.6390   -4.7740 h1        1 B1V      0.060950
     28 H191        2.8020    0.2350   -5.2490 hc        1 B1V      0.051700
     29 H192        1.6720    1.4340   -4.5000 hc        1 B1V      0.051700
     30 H201        1.2020   -0.2760   -7.0340 hc        1 B1V      0.045200
     31 H202        1.3960    1.5200   -6.9390 hc        1 B1V      0.045200
     32 H211       -1.0200    0.7460   -7.1770 hc        1 B1V      0.051700
     33 H212       -0.7150    1.7590   -5.7100 hc        1 B1V      0.051700
     34 H221       -0.9790   -1.3300   -5.8960 h1        1 B1V      0.060950
     35 H222       -2.1340   -0.1600   -5.0960 h1        1 B1V      0.060950
@<TRIPOS>BOND
     1    1    2 1   
     2    2    3 1   
     3    2    4 1   
     4    2    5 1   
     5    5    6 ar  
     6    5    7 ar  
     7    6   11 ar  
     8    7    8 ar  
     9    7   22 1   
    10    8    9 1   
    11    8   10 ar  
    12    9   23 1   
    13   10   11 ar  
    14   11   12 1   
    15   12   13 1   
    16   13   14 1   
    17   13   24 1   
    18   13   25 1   
    19   14   15 2   
    20   14   16 1   
    21   16   17 1   
    22   16   21 1   
    23   17   18 1   
    24   17   26 1   
    25   17   27 1   
    26   18   19 1   
    27   18   28 1   
    28   18   29 1   
    29   19   20 1   
    30   19   30 1   
    31   19   31 1   
    32   20   21 1   
    33   20   32 1   
    34   20   33 1   
    35   21   34 1   
    36   21   35 1   
@<TRIPOS>SUBSTRUCTURE
     1 B1V         1 TEMP              0 ****  ****    0 ROOT
