@<TRIPOS>MOLECULE
B2
   27    29     1     0     0
SMALL
bcc


@<TRIPOS>ATOM
      1 C1         -1.1650   -2.0650    1.0630 ca        1 B2      -0.215000
      2 C2         -2.3360   -2.6370    0.5950 ca        1 B2      -0.049000
      3 C3         -3.2400   -1.8920   -0.1550 ca        1 B2      -0.220000
      4 C4         -2.9690   -0.5400   -0.4300 ca        1 B2       0.189900
      5 C4A        -1.8020    0.0870    0.0550 ca        1 B2      -0.279900
      6 C5         -1.4160    1.5110   -0.1730 ce        1 B2       0.704800
      7 N6         -0.2070    1.9680    0.0840 n2        1 B2      -0.713900
      8 C7          0.7610    1.1370    0.7690 c3        1 B2       0.490000
      9 N8          0.2600   -0.1190    1.3580 nh        1 B2      -0.738600
     10 C8A        -0.8800   -0.7010    0.8080 ca        1 B2       0.208600
     11 C9          1.9860    0.9050   -0.0820 cc        1 B2      -0.170400
     12 C10         3.1130    0.2260    0.3520 cd        1 B2      -0.168000
     13 C11         4.1240    0.1930   -0.6540 cd        1 B2      -0.155000
     14 C12         3.7170    0.8520   -1.7970 cc        1 B2      -0.196100
     15 S13         2.1850    1.4770   -1.6400 ss        1 B2       0.110200
     16 N14        -2.3900    2.4130   -0.6010 nh        1 B2      -0.902800
     17 F15        -3.8700    0.1250   -1.1950 f         1 B2      -0.144900
     18 H1         -0.4550   -2.6740    1.6430 ha        1 B2       0.142000
     19 H2         -2.5520   -3.6960    0.8100 ha        1 B2       0.140000
     20 H3         -4.1640   -2.3450   -0.5400 ha        1 B2       0.152000
     21 H7          1.1020    1.7520    1.6710 h2        1 B2       0.091700
     22 HN8         0.9860   -0.7630    1.5930 hn        1 B2       0.416800
     23 H10         3.2400   -0.2210    1.3400 ha        1 B2       0.147000
     24 H11         5.0900   -0.2950   -0.5160 ha        1 B2       0.152000
     25 H12         4.3140    0.9660   -2.7000 h4        1 B2       0.170000
     26 H141       -2.0750    3.3190   -0.8690 hn        1 B2       0.418800
     27 H142       -3.1220    2.0420   -1.1610 hn        1 B2       0.418800
@<TRIPOS>BOND
     1    1    2 ar  
     2    1   10 ar  
     3    1   18 1   
     4    2    3 ar  
     5    2   19 1   
     6    3    4 ar  
     7    3   20 1   
     8    4    5 ar  
     9    4   17 1   
    10    5    6 1   
    11    5   10 ar  
    12    6    7 2   
    13    6   16 1   
    14    7    8 1   
    15    8    9 1   
    16    8   11 1   
    17    8   21 1   
    18    9   10 1   
    19    9   22 1   
    20   11   12 2   
    21   11   15 1   
    22   12   13 1   
    23   12   23 1   
    24   13   14 2   
    25   13   24 1   
    26   14   15 1   
    27   14   25 1   
    28   16   26 1   
    29   16   27 1   
@<TRIPOS>SUBSTRUCTURE
     1 B2          1 TEMP              0 ****  ****    0 ROOT
