@<TRIPOS>MOLECULE
B2
   28    30     1     0     0
SMALL
bcc


@<TRIPOS>ATOM
      1 C1         -0.0870    0.3050   -0.0180 ca        1 B2      -0.198000
      2 C2          1.1860    0.8000   -0.2160 ca        1 B2      -0.013000
      3 C3          2.0780    0.9540    0.8540 ca        1 B2      -0.184000
      4 C4          1.6730    0.6000    2.1400 ca        1 B2       0.173900
      5 C4A         0.3720    0.0910    2.3890 ca        1 B2      -0.346900
      6 C5         -0.1700   -0.3390    3.6820 ce        1 B2       0.578800
      7 N6         -1.3330   -0.8740    3.8850 n2        1 B2      -0.565900
      8 C7         -2.2540   -1.0610    2.7640 c3        1 B2       0.514000
      9 N8         -1.8330   -0.4560    1.4910 nu        1 B2      -0.765600
     10 C8A        -0.5300   -0.0500    1.2870 ca        1 B2       0.256600
     11 C9         -2.6270   -2.5060    2.6170 cc        1 B2      -0.225400
     12 C10        -3.9300   -2.9580    2.7540 cd        1 B2      -0.095000
     13 C11        -4.0190   -4.3700    2.5680 cd        1 B2      -0.154000
     14 C12        -2.7830   -4.9230    2.3040 cc        1 B2      -0.126100
     15 S13        -1.5770   -3.7750    2.2850 ss        1 B2       0.045200
     16 N14         0.6840   -0.1420    4.8880 nz        1 B2      -0.802600
     17 F15         2.5550    0.7480    3.1630 f         1 B2      -0.158900
     18 H1         -0.7710    0.1930   -0.8760 ha        1 B2       0.167000
     19 H2          1.5160    1.0790   -1.2330 ha        1 B2       0.171000
     20 H3          3.0920    1.3490    0.6870 ha        1 B2       0.179000
     21 H7         -3.1940   -0.4850    3.0780 h2        1 B2       0.121700
     22 HN8        -2.3560   -0.7540    0.6940 hn        1 B2       0.463800
     23 H10        -4.7970   -2.3290    2.9780 ha        1 B2       0.166000
     24 H11        -4.9590   -4.9250    2.6310 ha        1 B2       0.177000
     25 H12        -2.5920   -5.9830    2.1240 h4        1 B2       0.192000
     26 H141        0.9110    0.8580    4.9600 hn        1 B2       0.476467
     27 H142        0.2140   -0.4570    5.7460 hn        1 B2       0.476467
     28 H143        1.5580   -0.6670    4.7550 hn        1 B2       0.476467
@<TRIPOS>BOND
     1    1    2 ar  
     2    1   10 ar  
     3    1   18 1   
     4    2    3 ar  
     5    2   19 1   
     6    3    4 ar  
     7    3   20 1   
     8    4    5 ar  
     9    4   17 1   
    10    5    6 1   
    11    5   10 ar  
    12    6    7 2   
    13    6   16 1   
    14    7    8 1   
    15    8    9 1   
    16    8   11 1   
    17    8   21 1   
    18    9   10 1   
    19    9   22 1   
    20   11   12 2   
    21   11   15 1   
    22   12   13 1   
    23   12   23 1   
    24   13   14 2   
    25   13   24 1   
    26   14   15 1   
    27   14   25 1   
    28   16   26 1   
    29   16   27 1   
    30   16   28 1   
@<TRIPOS>SUBSTRUCTURE
     1 B2          1 TEMP              0 ****  ****    0 ROOT
