@<TRIPOS>MOLECULE
B2
   28    30     1     0     0
SMALL
bcc


@<TRIPOS>ATOM
      1 C1         -0.0460    0.2820   -0.0150 ca        1 B2      -0.198000
      2 C2          1.2250    0.7910   -0.1870 ca        1 B2      -0.013000
      3 C3          2.0870    0.9690    0.9030 ca        1 B2      -0.184000
      4 C4          1.6540    0.6260    2.1830 ca        1 B2       0.173900
      5 C4A         0.3540    0.1030    2.4050 ca        1 B2      -0.346900
      6 C5         -0.2150   -0.3190    3.6900 ce        1 B2       0.578800
      7 N6         -1.3760   -0.8660    3.8700 n2        1 B2      -0.565900
      8 C7         -2.2670   -1.0780    2.7280 c3        1 B2       0.514000
      9 N8         -1.8210   -0.4840    1.4590 nh        1 B2      -0.765600
     10 C8A        -0.5180   -0.0630    1.2820 ca        1 B2       0.256600
     11 C9         -2.6180   -2.5290    2.5890 cc        1 B2      -0.225400
     12 C10        -3.9190   -2.9950    2.6960 cd        1 B2      -0.095000
     13 C11        -3.9860   -4.4100    2.5260 cd        1 B2      -0.154000
     14 C12        -2.7360   -4.9520    2.3050 cc        1 B2      -0.126100
     15 S13        -1.5440   -3.7900    2.3050 ss        1 B2       0.045200
     16 N14         0.6050   -0.0960    4.9140 n4        1 B2      -0.802600
     17 F15         2.5080    0.7980    3.2260 f         1 B2      -0.158900
     18 H1         -0.7070    0.1500   -0.8880 ha        1 B2       0.167000
     19 H2          1.5770    1.0630   -1.1980 ha        1 B2       0.171000
     20 H3          3.1000    1.3760    0.7570 ha        1 B2       0.179000
     21 H7         -3.2210   -0.5100    3.0110 h2        1 B2       0.121700
     22 HN8        -2.3190   -0.7980    0.6520 hn        1 B2       0.463800
     23 H10        -4.7990   -2.3740    2.8870 ha        1 B2       0.166000
     24 H11        -4.9210   -4.9760    2.5700 ha        1 B2       0.177000
     25 H12        -2.5270   -6.0110    2.1440 h4        1 B2       0.192000
     26 H141        1.4890   -0.6110    4.8100 hn        1 B2       0.476467
     27 H142        0.1170   -0.4070    5.7640 hn        1 B2       0.476467
     28 H143        0.8170    0.9080    4.9800 hn        1 B2       0.476467
@<TRIPOS>BOND
     1    1    2 ar  
     2    1   10 ar  
     3    1   18 1   
     4    2    3 ar  
     5    2   19 1   
     6    3    4 ar  
     7    3   20 1   
     8    4    5 ar  
     9    4   17 1   
    10    5    6 1   
    11    5   10 ar  
    12    6    7 2   
    13    6   16 1   
    14    7    8 1   
    15    8    9 1   
    16    8   11 1   
    17    8   21 1   
    18    9   10 1   
    19    9   22 1   
    20   11   12 2   
    21   11   15 1   
    22   12   13 1   
    23   12   23 1   
    24   13   14 2   
    25   13   24 1   
    26   14   15 1   
    27   14   25 1   
    28   16   26 1   
    29   16   27 1   
    30   16   28 1   
@<TRIPOS>SUBSTRUCTURE
     1 B2          1 TEMP              0 ****  ****    0 ROOT
