@<TRIPOS>MOLECULE
B2
   28    30     1     0     0
SMALL
bcc


@<TRIPOS>ATOM
      1 C1         -0.0860    0.3230   -0.0170 ca        1 B2      -0.198000
      2 C2          1.1780    0.8390   -0.2170 ca        1 B2      -0.013000
      3 C3          2.0690    1.0050    0.8520 ca        1 B2      -0.184000
      4 C4          1.6730    0.6420    2.1380 ca        1 B2       0.173900
      5 C4A         0.3810    0.1110    2.3880 ca        1 B2      -0.346900
      6 C5         -0.1500   -0.3300    3.6820 ce        1 B2       0.578800
      7 N6         -1.3040   -0.8840    3.8870 n2        1 B2      -0.565900
      8 C7         -2.2250   -1.0840    2.7670 c3        1 B2       0.514000
      9 N8         -1.8170   -0.4700    1.4940 nh        1 B2      -0.765600
     10 C8A        -0.5200   -0.0420    1.2880 ca        1 B2       0.256600
     11 C9         -2.5750   -2.5340    2.6180 cc        1 B2      -0.225400
     12 C10        -3.8720   -3.0060    2.7530 cd        1 B2      -0.095000
     13 C11        -3.9380   -4.4190    2.5650 cd        1 B2      -0.154000
     14 C12        -2.6940   -4.9530    2.3030 cc        1 B2      -0.126100
     15 S13        -1.5060   -3.7870    2.2870 ss        1 B2       0.045200
     16 N14         0.7030   -0.1210    4.8870 n4        1 B2      -0.802600
     17 F15         2.5550    0.8030    3.1600 f         1 B2      -0.158900
     18 H1         -0.7700    0.2000   -0.8730 ha        1 B2       0.167000
     19 H2          1.5010    1.1260   -1.2340 ha        1 B2       0.171000
     20 H3          3.0770    1.4170    0.6830 ha        1 B2       0.179000
     21 H7         -3.1730   -0.5230    3.0850 h2        1 B2       0.121700
     22 HN8        -2.3360   -0.7750    0.6980 hn        1 B2       0.463800
     23 H10        -4.7480   -2.3910    2.9750 ha        1 B2       0.166000
     24 H11        -4.8700   -4.9890    2.6260 ha        1 B2       0.177000
     25 H12        -2.4860   -6.0100    2.1220 h4        1 B2       0.192000
     26 H141        1.5850   -0.6320    4.7510 hn        1 B2       0.476467
     27 H142        0.9130    0.8820    4.9610 hn        1 B2       0.476467
     28 H143        0.2390   -0.4470    5.7450 hn        1 B2       0.476467
@<TRIPOS>BOND
     1    1    2 ar  
     2    1   10 ar  
     3    1   18 1   
     4    2    3 ar  
     5    2   19 1   
     6    3    4 ar  
     7    3   20 1   
     8    4    5 ar  
     9    4   17 1   
    10    5    6 1   
    11    5   10 ar  
    12    6    7 2   
    13    6   16 1   
    14    7    8 1   
    15    8    9 1   
    16    8   11 1   
    17    8   21 1   
    18    9   10 1   
    19    9   22 1   
    20   11   12 2   
    21   11   15 1   
    22   12   13 1   
    23   12   23 1   
    24   13   14 2   
    25   13   24 1   
    26   14   15 1   
    27   14   25 1   
    28   16   26 1   
    29   16   27 1   
    30   16   28 1   
@<TRIPOS>SUBSTRUCTURE
     1 B2          1 TEMP              0 ****  ****    0 ROOT
