@<TRIPOS>MOLECULE
B2
   27    22     1     0     0
SMALL
bcc


@<TRIPOS>ATOM
      1 C1          1.3450    1.0740   -2.1520 c1        1 B2      -0.132000
      2 C2          2.7300    1.0860   -2.1600 c1        1 B2      -0.132000
      3 C3          3.4300    1.0340   -0.9660 c1        1 B2      -0.224000
      4 C4          2.7440    0.9700    0.2370 c1        1 B2       0.160000
      5 C4A         1.3360    0.9580    0.2450 c1        1 B2      -0.201000
      6 C5          0.5910    0.9090    1.5450 c2        1 B2       0.179000
      7 N6         -0.8170    0.8820    1.5450 n1        1 B2      -0.303000
      8 C7         -1.5450    0.6610    0.2950 c2        1 B2       0.163000
      9 N8         -0.8040    1.0590   -0.9160 n3        1 B2      -0.298000
     10 C8A         0.6480    1.0090   -0.9290 c1        1 B2       0.131000
     11 C9         -2.0380   -0.8090    0.1880 c2        1 B2      -0.437000
     12 C10        -3.3120   -1.3170    0.6600 c1        1 B2      -0.169000
     13 C11        -3.4080   -2.8600    0.2750 c1        1 B2      -0.156000
     14 C12        -2.1900   -3.2340   -0.4160 c1        1 B2      -0.470000
     15 S13        -1.2840   -1.9770   -0.5010 ss        1 B2       0.667000
     16 N14         1.2990    0.9850    2.7720 n3        1 B2      -0.341000
     17 F15         3.4210    0.8940    1.3900 f         1 B2      -0.107000
     18 H1          0.8520    1.1100   -2.9940 ha        1 B2       0.140500
     19 H2          3.2130    1.1300   -3.0070 ha        1 B2       0.140500
     20 H3          4.4060    1.0420   -0.9720 ha        1 B2       0.152000
     21 H7         -2.3990    1.1350    0.3250 h4        1 B2       0.128000
     22 HN8        -1.1310    0.6020   -1.6380 hn        1 B2       0.214000
     23 H10        -3.9940   -0.8020    1.1320 DU        1 B2       0.156000
     24 H11        -4.1600   -3.4530    0.4720 DU        1 B2       0.156000
     25 H12        -1.9770   -4.1210   -0.7660 DU        1 B2       0.156000
     26 H141        1.0570    0.4520    3.4730 hn        1 B2       0.212500
     27 H142        1.9880    1.5790    2.8660 hn        1 B2       0.212500
@<TRIPOS>BOND
     1    1    2 1   
     2    1   18 1   
     3    2   19 1   
     4    3    4 1   
     5    3   20 1   
     6    4   17 1   
     7    5    6 1   
     8    5   10 1   
     9    6    7 1   
    10    6   16 1   
    11    8    9 1   
    12    8   11 1   
    13    8   21 1   
    14    9   10 1   
    15    9   22 1   
    16   11   12 1   
    17   11   15 1   
    18   12   13 1   
    19   13   14 1   
    20   14   15 1   
    21   16   26 1   
    22   16   27 1   
@<TRIPOS>SUBSTRUCTURE
     1 B2          1 TEMP              0 ****  ****    0 ROOT
