@<TRIPOS>MOLECULE
B21
   25    26     1     0     0
SMALL
bcc


@<TRIPOS>ATOM
      1 CAL        -0.8940    2.4560   -0.0060 c3        1 B21      0.116700
      2 OAP        -1.6190    1.6610    0.9420 os        1 B21     -0.347900
      3 CAH        -2.2430    0.5420    0.4180 ca        1 B21      0.120100
      4 CAK        -3.6410    0.5950    0.3040 ca        1 B21     -0.151000
      5 CAI        -4.3550   -0.5360   -0.0790 ca        1 B21     -0.143000
      6 CAJ        -3.6780   -1.7230   -0.3570 ca        1 B21     -0.150000
      7 CAG        -2.2930   -1.7790   -0.2520 ca        1 B21     -0.128000
      8 CAF        -1.5430   -0.6530    0.1350 ca        1 B21     -0.096500
      9 CAB        -0.1140   -0.7790    0.2260 cc        1 B21      0.220200
     10 OAM         0.6450    0.3970    0.3020 os        1 B21     -0.322800
     11 CAD         0.7420   -1.8770    0.2490 cd        1 B21     -0.237300
     12 CAC         2.0800   -1.3630    0.3390 cd        1 B21     -0.308300
     13 CAA         1.9800    0.0250    0.3640 cc        1 B21      0.263200
     14 CAE         2.9900    1.1600    0.4190 c         1 B21      0.829100
     15 OAO         4.1990    0.8290    0.5350 o         1 B21     -0.804300
     16 OAN         2.5490    2.3360    0.3380 o         1 B21     -0.804300
     17 HAL1       -0.7160    1.9140   -0.9630 h1        1 B21      0.053367
     18 HAL2       -1.4990    3.3790   -0.1850 h1        1 B21      0.053367
     19 HAL3        0.0900    2.6860    0.4850 h1        1 B21      0.053367
     20 HAK        -4.1580    1.5360    0.5370 ha        1 B21      0.134000
     21 HAI        -5.4500   -0.4920   -0.1620 ha        1 B21      0.116000
     22 HAJ        -4.2400   -2.6180   -0.6600 ha        1 B21      0.116000
     23 HAG        -1.7630   -2.7180   -0.4740 ha        1 B21      0.130000
     24 HAD         0.4610   -2.9250    0.2120 ha        1 B21      0.132000
     25 HAC         2.9970   -1.9400    0.3810 ha        1 B21      0.157000
@<TRIPOS>BOND
     1    1    2 1   
     2    1   17 1   
     3    1   18 1   
     4    1   19 1   
     5    2    3 1   
     6    3    4 ar  
     7    3    8 ar  
     8    4    5 ar  
     9    4   20 1   
    10    5    6 ar  
    11    5   21 1   
    12    6    7 ar  
    13    6   22 1   
    14    7    8 ar  
    15    7   23 1   
    16    8    9 1   
    17    9   10 1   
    18    9   11 2   
    19   10   13 1   
    20   11   12 1   
    21   11   24 1   
    22   12   13 2   
    23   12   25 1   
    24   13   14 1   
    25   14   15 1   
    26   14   16 1   
@<TRIPOS>SUBSTRUCTURE
     1 B21         1 TEMP              0 ****  ****    0 ROOT
