@<TRIPOS>MOLECULE
B21
   25    26     1     0     0
SMALL
bcc


@<TRIPOS>ATOM
      1 CAL         1.0370   -0.7490   -0.5450 c3        1 B21      0.116700
      2 OAP         1.2280    0.4630    0.1950 os        1 B21     -0.347900
      3 CAH         1.9270    0.3240    1.3820 ca        1 B21      0.120100
      4 CAK         1.1830    0.4290    2.5680 ca        1 B21     -0.151000
      5 CAI         1.8280    0.4430    3.8000 ca        1 B21     -0.143000
      6 CAJ         3.2180    0.3460    3.8570 ca        1 B21     -0.150000
      7 CAG         3.9590    0.2350    2.6860 ca        1 B21     -0.128000
      8 CAF         3.3360    0.2200    1.4250 ca        1 B21     -0.096500
      9 CAB         4.1610    0.1060    0.2530 cc        1 B21      0.220200
     10 OAM         3.5370   -0.2200   -0.9590 os        1 B21     -0.322800
     11 CAD         5.5290    0.2470    0.0400 cd        1 B21     -0.237300
     12 CAC         5.7620   -0.0040   -1.3550 cd        1 B21     -0.308300
     13 CAA         4.5270   -0.2900   -1.9290 cc        1 B21      0.263200
     14 CAE         4.0690   -0.6670   -3.3280 c         1 B21      0.829100
     15 OAO         4.9540   -0.6730   -4.2240 o         1 B21     -0.804300
     16 OAN         2.8530   -0.9500   -3.4860 o         1 B21     -0.804300
     17 HAL1        1.7060   -1.5690   -0.1950 h1        1 B21      0.053367
     18 HAL2        1.2830   -0.4930   -1.6110 h1        1 B21      0.053367
     19 HAL3       -0.0360   -1.0400   -0.4210 h1        1 B21      0.053367
     20 HAK         0.0890    0.5150    2.5030 ha        1 B21      0.134000
     21 HAI         1.2420    0.5300    4.7260 ha        1 B21      0.116000
     22 HAJ         3.7300    0.3560    4.8290 ha        1 B21      0.116000
     23 HAG         5.0560    0.1570    2.7370 ha        1 B21      0.130000
     24 HAD         6.2820    0.5020    0.7780 ha        1 B21      0.132000
     25 HAC         6.7170    0.0230   -1.8700 ha        1 B21      0.157000
@<TRIPOS>BOND
     1    1    2 1   
     2    1   17 1   
     3    1   18 1   
     4    1   19 1   
     5    2    3 1   
     6    3    4 ar  
     7    3    8 ar  
     8    4    5 ar  
     9    4   20 1   
    10    5    6 ar  
    11    5   21 1   
    12    6    7 ar  
    13    6   22 1   
    14    7    8 ar  
    15    7   23 1   
    16    8    9 1   
    17    9   10 1   
    18    9   11 2   
    19   10   13 1   
    20   11   12 1   
    21   11   24 1   
    22   12   13 2   
    23   12   25 1   
    24   13   14 1   
    25   14   15 1   
    26   14   16 1   
@<TRIPOS>SUBSTRUCTURE
     1 B21         1 TEMP              0 ****  ****    0 ROOT
