@<TRIPOS>MOLECULE
B21
   25    20     1     0     0
SMALL
bcc


@<TRIPOS>ATOM
      1 CAL        -2.9320    0.6280   -0.8290 c3        1 B21     -0.073000
      2 OAP        -1.8700   -0.3090   -0.6460 os        1 B21     -0.231000
      3 CAH        -1.2670   -0.2510    0.6670 c2        1 B21      0.075000
      4 CAK        -2.0760   -0.2860    1.8050 c2        1 B21     -0.151000
      5 CAI        -1.5000   -0.2790    3.0780 c1        1 B21     -0.143000
      6 CAJ        -0.1240   -0.2380    3.2170 c1        1 B21     -0.139000
      7 CAG         0.6910   -0.2020    2.0820 c1        1 B21     -0.139000
      8 CAF         0.1100   -0.2090    0.8000 c1        1 B21      0.011000
      9 CAB         0.9240   -0.2270   -0.3400 c1        1 B21     -0.051500
     10 OAM         1.3300    0.8660   -1.0530 os        1 B21     -0.064000
     11 CAD         1.5520   -1.3450   -0.8710 c1        1 B21     -0.207500
     12 CAC         2.3400   -0.9360   -1.9070 c1        1 B21     -0.207500
     13 CAA         2.2080    0.4370   -2.0270 c1        1 B21     -0.051500
     14 CAE         2.8340    1.3120   -3.1270 c1        1 B21      0.388000
     15 OAO         2.2290    1.4990   -4.1860 o         1 B21     -0.539000
     16 OAN         3.9150    1.8750   -2.9280 o         1 B21     -0.539000
     17 HAL1       -2.5920    1.5650   -0.6350 h1        1 B21      0.092667
     18 HAL2       -3.2480    0.5840   -1.7370 h1        1 B21      0.092667
     19 HAL3       -3.6840    0.4080   -0.2030 h1        1 B21      0.092667
     20 HAK        -3.0490   -0.3130    1.7090 ha        1 B21      0.134000
     21 HAI        -2.0780   -0.3050    3.8830 ha        1 B21      0.116000
     22 HAJ         0.2760   -0.3090    4.0990 ha        1 B21      0.123000
     23 HAG         1.6540   -0.1730    2.1790 ha        1 B21      0.123000
     24 HAD         1.4470   -2.2680   -0.5550 DU        1 B21      0.144500
     25 HAC         2.9100   -1.5250   -2.4760 DU        1 B21      0.144500
@<TRIPOS>BOND
     1    1    2 1   
     2    1   17 1   
     3    1   18 1   
     4    1   19 1   
     5    2    3 1   
     6    3    4 1   
     7    3    8 1   
     8    4    5 1   
     9    4   20 1   
    10    5   21 1   
    11    6    7 1   
    12    6   22 1   
    13    7   23 1   
    14    9   10 1   
    15    9   11 1   
    16   10   13 1   
    17   11   12 1   
    18   12   13 1   
    19   14   15 1   
    20   14   16 1   
@<TRIPOS>SUBSTRUCTURE
     1 B21         1 TEMP              0 ****  ****    0 ROOT
