@<TRIPOS>MOLECULE
B21
   25    26     1     0     0
SMALL
bcc


@<TRIPOS>ATOM
      1 CAL         1.0850   -0.9450   -0.4940 c3        1 B21      0.116700
      2 OAP         1.1900    0.3020    0.2040 os        1 B21     -0.347900
      3 CAH         1.9100    0.2570    1.3860 ca        1 B21      0.120100
      4 CAK         1.1730    0.3430    2.5770 ca        1 B21     -0.151000
      5 CAI         1.8280    0.4470    3.8000 ca        1 B21     -0.143000
      6 CAJ         3.2220    0.4590    3.8410 ca        1 B21     -0.150000
      7 CAG         3.9570    0.3670    2.6640 ca        1 B21     -0.128000
      8 CAF         3.3230    0.2640    1.4130 ca        1 B21     -0.096500
      9 CAB         4.1420    0.1750    0.2340 cc        1 B21      0.220200
     10 OAM         3.5320   -0.2390   -0.9580 os        1 B21     -0.322800
     11 CAD         5.4930    0.4140   -0.0020 cd        1 B21     -0.237300
     12 CAC         5.7290    0.1360   -1.3910 cd        1 B21     -0.308300
     13 CAA         4.5140   -0.2640   -1.9380 cc        1 B21      0.263200
     14 CAE         4.0720   -0.7210   -3.3180 c         1 B21      0.829100
     15 OAO         4.9440   -0.6890   -4.2250 o         1 B21     -0.804300
     16 OAN         2.8790   -1.1010   -3.4510 o         1 B21     -0.804300
     17 HAL1        1.8190   -1.6980   -0.1280 h1        1 B21      0.053367
     18 HAL2        1.2990   -0.7050   -1.5720 h1        1 B21      0.053367
     19 HAL3        0.0390   -1.3120   -0.3470 h1        1 B21      0.053367
     20 HAK         0.0750    0.3420    2.5250 ha        1 B21      0.134000
     21 HAI         1.2470    0.5180    4.7300 ha        1 B21      0.116000
     22 HAJ         3.7430    0.5400    4.8060 ha        1 B21      0.116000
     23 HAG         5.0570    0.3760    2.7030 ha        1 B21      0.130000
     24 HAD         6.2310    0.7520    0.7180 ha        1 B21      0.132000
     25 HAC         6.6730    0.2210   -1.9190 ha        1 B21      0.157000
@<TRIPOS>BOND
     1    1    2 1   
     2    1   17 1   
     3    1   18 1   
     4    1   19 1   
     5    2    3 1   
     6    3    4 ar  
     7    3    8 ar  
     8    4    5 ar  
     9    4   20 1   
    10    5    6 ar  
    11    5   21 1   
    12    6    7 ar  
    13    6   22 1   
    14    7    8 ar  
    15    7   23 1   
    16    8    9 1   
    17    9   10 1   
    18    9   11 2   
    19   10   13 1   
    20   11   12 1   
    21   11   24 1   
    22   12   13 2   
    23   12   25 1   
    24   13   14 1   
    25   14   15 1   
    26   14   16 1   
@<TRIPOS>SUBSTRUCTURE
     1 B21         1 TEMP              0 ****  ****    0 ROOT
