@<TRIPOS>MOLECULE
B23
   23    24     1     0     0
SMALL
bcc


@<TRIPOS>ATOM
      1 OAN         3.4110    0.9140   -1.4360 o         1 B23     -0.787300
      2 CAE         3.4820    0.3040   -0.3430 c         1 B23      0.830100
      3 OAO         4.4780    0.2370    0.4210 o         1 B23     -0.787300
      4 CAA         2.2570   -0.4940    0.1020 cc        1 B23      0.308200
      5 OAM         0.9990    0.0160   -0.1590 os        1 B23     -0.310800
      6 CAC         2.1450   -1.7480    0.7100 cd        1 B23     -0.329300
      7 CAD         0.7500   -2.0410    0.8070 cd        1 B23     -0.195300
      8 CAB         0.0680   -0.9480    0.2710 cc        1 B23      0.163200
      9 CAF        -1.3300   -0.7150    0.0670 ca        1 B23      0.009500
     10 CAG        -2.1530   -1.8430   -0.1600 ca        1 B23     -0.150000
     11 CAJ        -3.5050   -1.7100   -0.4260 ca        1 B23     -0.100000
     12 CAI        -4.0890   -0.4410   -0.4920 ca        1 B23     -0.168000
     13 CAK        -3.3150    0.6870   -0.2580 ca        1 B23     -0.077000
     14 CAH        -1.9490    0.5510    0.0540 ca        1 B23     -0.168200
     15 NAL        -1.2130    1.8010    0.4000 no        1 B23      0.323200
     16 OAQ        -1.4440    2.7900   -0.2480 o         1 B23     -0.203000
     17 OAP        -0.4870    1.8180    1.3520 o         1 B23     -0.203000
     18 HAC         2.9690   -2.3680    1.0480 ha        1 B23      0.160000
     19 HAD         0.3070   -2.9370    1.2300 ha        1 B23      0.134000
     20 HAG        -1.6860   -2.8400   -0.1360 ha        1 B23      0.144000
     21 HAJ        -4.1220   -2.6040   -0.6010 ha        1 B23      0.126000
     22 HAI        -5.1570   -0.3340   -0.7290 ha        1 B23      0.130000
     23 HAK        -3.7670    1.6910   -0.3140 ha        1 B23      0.152000
@<TRIPOS>BOND
     1    1    2 1   
     2    2    3 1   
     3    2    4 1   
     4    4    5 1   
     5    4    6 2   
     6    5    8 1   
     7    6    7 1   
     8    6   18 1   
     9    7    8 2   
    10    7   19 1   
    11    8    9 1   
    12    9   10 ar  
    13    9   14 ar  
    14   10   11 ar  
    15   10   20 1   
    16   11   12 ar  
    17   11   21 1   
    18   12   13 ar  
    19   12   22 1   
    20   13   14 ar  
    21   13   23 1   
    22   14   15 1   
    23   15   16 1   
    24   15   17 1   
@<TRIPOS>SUBSTRUCTURE
     1 B23         1 TEMP              0 ****  ****    0 ROOT
