@<TRIPOS>MOLECULE
B23
   23    24     1     0     0
SMALL
bcc


@<TRIPOS>ATOM
      1 OAN         0.0320    0.2880   -0.1690 o         1 B23     -0.787300
      2 CAE         1.2020   -0.1450   -0.0400 c         1 B23      0.830100
      3 OAO         1.7190   -0.6210    1.0020 o         1 B23     -0.787300
      4 CAA         2.1300   -0.0450   -1.2500 cc        1 B23      0.308200
      5 OAM         1.6060   -0.2540   -2.5110 os        1 B23     -0.310800
      6 CAC         3.4830    0.2950   -1.3470 cd        1 B23     -0.329300
      7 CAD         3.8060    0.3230   -2.7380 cd        1 B23     -0.195300
      8 CAB         2.6440   -0.0170   -3.4310 cc        1 B23      0.163200
      9 CAF         2.3710   -0.0990   -4.8340 ca        1 B23      0.009500
     10 CAG         3.1070    0.7500   -5.6930 ca        1 B23     -0.150000
     11 CAJ         2.8700    0.7830   -7.0570 ca        1 B23     -0.100000
     12 CAI         1.8740   -0.0230   -7.6180 ca        1 B23     -0.168000
     13 CAK         1.1430   -0.8810   -6.8080 ca        1 B23     -0.077000
     14 CAH         1.4120   -0.9460   -5.4280 ca        1 B23     -0.168200
     15 NAL         0.6620   -1.9690   -4.6460 no        1 B23      0.323200
     16 OAQ        -0.5050   -2.1300   -4.8990 o         1 B23     -0.203000
     17 OAP         1.2440   -2.6600   -3.8600 o         1 B23     -0.203000
     18 HAC         4.1520    0.4880   -0.5160 ha        1 B23      0.160000
     19 HAD         4.7750    0.5520   -3.1710 ha        1 B23      0.134000
     20 HAG         3.8720    1.4050   -5.2460 ha        1 B23      0.144000
     21 HAJ         3.4560    1.4540   -7.7010 ha        1 B23      0.126000
     22 HAI         1.6670    0.0220   -8.6960 ha        1 B23      0.130000
     23 HAK         0.3520   -1.5140   -7.2420 ha        1 B23      0.152000
@<TRIPOS>BOND
     1    1    2 1   
     2    2    3 1   
     3    2    4 1   
     4    4    5 1   
     5    4    6 2   
     6    5    8 1   
     7    6    7 1   
     8    6   18 1   
     9    7    8 2   
    10    7   19 1   
    11    8    9 1   
    12    9   10 ar  
    13    9   14 ar  
    14   10   11 ar  
    15   10   20 1   
    16   11   12 ar  
    17   11   21 1   
    18   12   13 ar  
    19   12   22 1   
    20   13   14 ar  
    21   13   23 1   
    22   14   15 1   
    23   15   16 1   
    24   15   17 1   
@<TRIPOS>SUBSTRUCTURE
     1 B23         1 TEMP              0 ****  ****    0 ROOT
