@<TRIPOS>MOLECULE
B23
   23    19     1     0     0
SMALL
bcc


@<TRIPOS>ATOM
      1 OAN        -3.4350    1.2600    3.4680 o         1 B23     -0.791300
      2 CAE        -3.0960    0.1950    2.8880 c         1 B23      0.934800
      3 OAO        -3.4200   -0.9190    3.3780 o         1 B23     -0.791300
      4 CAA        -2.3050    0.2540    1.6000 ce        1 B23     -0.028200
      5 OAM        -0.9410    0.1770    1.4880 os        1 B23     -0.159200
      6 CAC        -2.8310    0.3820    0.3310 c1        1 B23     -0.192900
      7 CAD        -1.7920    0.3840   -0.5580 c1        1 B23     -0.047900
      8 CAB        -0.6190    0.2570    0.1590 ce        1 B23     -0.133700
      9 CAF         0.6620    0.2640   -0.3700 cg        1 B23      0.080700
     10 CAG         1.2790    1.4670   -0.6750 c1        1 B23     -0.070500
     11 CAJ         2.5560    1.4740   -1.2120 c1        1 B23     -0.075500
     12 CAI         3.2170    0.2780   -1.4440 c1        1 B23     -0.075500
     13 CAK         2.6000   -0.9250   -1.1380 c1        1 B23     -0.030500
     14 CAH         1.3220   -0.9320   -0.6010 c1        1 B23     -0.187300
     15 NAL         0.6760   -2.1640   -0.3230 no        1 B23      0.323300
     16 OAQ         0.3060   -2.9880   -1.3480 o         1 B23     -0.217500
     17 OAP         0.4760   -2.5020    0.8340 o         1 B23     -0.217500
     18 HAC        -3.7780    0.4580    0.1060 DU        1 B23      0.163000
     19 HAD        -1.8680    0.4350   -1.5290 DU        1 B23      0.163000
     20 HAG         0.8170    2.3100   -0.5040 ha        1 B23      0.122500
     21 HAJ         2.9840    2.3200   -1.4450 ha        1 B23      0.074000
     22 HAI         4.1160    0.2820   -1.8230 ha        1 B23      0.074000
     23 HAK         3.0730   -1.7670   -1.2820 ha        1 B23      0.084500
@<TRIPOS>BOND
     1    1    2 1   
     2    2    3 1   
     3    2    4 1   
     4    4    5 1   
     5    4    6 2   
     6    5    8 1   
     7    6    7 2   
     8    7    8 2   
     9    8    9 1   
    10    9   10 3   
    11   10   20 1   
    12   11   12 3   
    13   11   21 1   
    14   12   22 1   
    15   13   14 3   
    16   13   23 1   
    17   14   15 1   
    18   15   16 1   
    19   15   17 1   
@<TRIPOS>SUBSTRUCTURE
     1 B23         1 TEMP              0 ****  ****    0 ROOT
