@<TRIPOS>MOLECULE
B25
   24    25     1     0     0
SMALL
bcc


@<TRIPOS>ATOM
      1 C1         -0.0300    0.2640   -0.0080 ca        1 B25     -0.001200
      2 N1          2.1740   -0.2910    3.6010 no        1 B25      0.317200
      3 O1          1.5840   -0.5300    4.6180 o         1 B25     -0.183000
      4 C2          1.3670    0.3500   -0.0450 ca        1 B25     -0.144000
      5 N2         -3.4060   -0.7160   -2.3980 n4        1 B25     -0.887600
      6 O2          3.3680   -0.2040    3.5400 o         1 B25     -0.183000
      7 C3          2.0640    0.1680    1.1420 ca        1 B25     -0.018000
      8 N3         -4.5050    0.9670   -0.9210 n2        1 B25     -0.667100
      9 C4          1.3800   -0.0970    2.3520 ca        1 B25     -0.192200
     10 N4         -0.9670    0.3330   -1.0690 na        1 B25     -0.173400
     11 C5         -0.0150   -0.1830    2.4140 ca        1 B25      0.011000
     12 C6         -0.7240    0.0020    1.2300 ca        1 B25     -0.148800
     13 C7         -2.1390   -0.0080    0.9210 cc        1 B25      0.016800
     14 C8         -2.2520    0.2280   -0.4440 cd        1 B25     -0.279700
     15 C9         -3.4980    0.2600   -1.2170 cf        1 B25      0.654500
     16 H2          1.9060    0.5550   -0.9820 ha        1 B25      0.168000
     17 H1N2       -2.9750   -1.5870   -2.0670 hn        1 B25      0.461467
     18 H2N2       -4.3190   -0.9280   -2.8060 hn        1 B25      0.461467
     19 H3          3.1700    0.2320    1.1460 ha        1 B25      0.193000
     20 H1N3       -5.3740    0.9410   -1.4090 hn        1 B25      0.469400
     21 HN4        -0.8340    1.0480   -1.7510 hn        1 B25      0.282700
     22 H5         -0.5340   -0.3910    3.3680 ha        1 B25      0.192000
     23 H7         -2.9470   -0.1820    1.6350 ha        1 B25      0.190000
     24 H23        -2.8030   -0.3140   -3.1220 hn        1 B25      0.461467
@<TRIPOS>BOND
     1    1    4 ar  
     2    1   10 1   
     3    1   12 ar  
     4    2    3 1   
     5    2    6 1   
     6    2    9 1   
     7    4    7 ar  
     8    4   16 1   
     9    5   15 1   
    10    5   17 1   
    11    5   18 1   
    12    5   24 1   
    13    7    9 ar  
    14    7   19 1   
    15    8   15 2   
    16    8   20 1   
    17    9   11 ar  
    18   10   14 1   
    19   10   21 1   
    20   11   12 ar  
    21   11   22 1   
    22   12   13 1   
    23   13   14 2   
    24   13   23 1   
    25   14   15 1   
@<TRIPOS>SUBSTRUCTURE
     1 B25         1 TEMP              0 ****  ****    0 ROOT
