@<TRIPOS>MOLECULE
B25
   24    25     1     0     0
SMALL
bcc


@<TRIPOS>ATOM
      1 C1         -0.0310    0.2670   -0.0090 ca        1 B25     -0.001200
      2 N1          2.1800   -0.2920    3.5950 no        1 B25      0.317200
      3 O1          1.5930   -0.5360    4.6130 o         1 B25     -0.183000
      4 C2          1.3660    0.3570   -0.0480 ca        1 B25     -0.144000
      5 N2         -3.4090   -0.7170   -2.3960 nz        1 B25     -0.887600
      6 O2          3.3730   -0.2010    3.5330 o         1 B25     -0.183000
      7 C3          2.0650    0.1740    1.1380 ca        1 B25     -0.018000
      8 N3         -4.5090    0.9620   -0.9140 n2        1 B25     -0.667100
      9 C4          1.3840   -0.0970    2.3480 ca        1 B25     -0.192200
     10 N4         -0.9700    0.3370   -1.0670 na        1 B25     -0.173400
     11 C5         -0.0110   -0.1860    2.4120 ca        1 B25      0.011000
     12 C6         -0.7230    0.0000    1.2300 ca        1 B25     -0.148800
     13 C7         -2.1380   -0.0130    0.9230 cc        1 B25      0.016800
     14 C8         -2.2540    0.2260   -0.4410 cd        1 B25     -0.279700
     15 C9         -3.5010    0.2580   -1.2130 cf        1 B25      0.654500
     16 H2          1.9030    0.5670   -0.9850 ha        1 B25      0.168000
     17 H1N2       -2.8070   -0.3120   -3.1190 hn        1 B25      0.461467
     18 H2N2       -2.9760   -1.5870   -2.0660 hn        1 B25      0.461467
     19 H3          3.1700    0.2410    1.1400 ha        1 B25      0.193000
     20 H1N3       -5.3780    0.9360   -1.4000 hn        1 B25      0.469400
     21 HN4        -0.8400    1.0540   -1.7480 hn        1 B25      0.282700
     22 H5         -0.5280   -0.3980    3.3660 ha        1 B25      0.192000
     23 H7         -2.9440   -0.1910    1.6370 ha        1 B25      0.190000
     24 H23        -4.3220   -0.9290   -2.8020 hn        1 B25      0.461467
@<TRIPOS>BOND
     1    1    4 ar  
     2    1   10 1   
     3    1   12 ar  
     4    2    3 1   
     5    2    6 1   
     6    2    9 1   
     7    4    7 ar  
     8    4   16 1   
     9    5   15 1   
    10    5   17 1   
    11    5   18 1   
    12    5   24 1   
    13    7    9 ar  
    14    7   19 1   
    15    8   15 2   
    16    8   20 1   
    17    9   11 ar  
    18   10   14 1   
    19   10   21 1   
    20   11   12 ar  
    21   11   22 1   
    22   12   13 1   
    23   13   14 2   
    24   13   23 1   
    25   14   15 1   
@<TRIPOS>SUBSTRUCTURE
     1 B25         1 TEMP              0 ****  ****    0 ROOT
