@<TRIPOS>MOLECULE
B25
   23    24     1     0     0
SMALL
bcc


@<TRIPOS>ATOM
      1 C1         -0.0110   -0.1620    0.0010 ca        1 B25     -0.002200
      2 N1          2.1540    0.2330    3.6430 no        1 B25      0.318200
      3 O1          1.5660    0.4030    4.6800 o         1 B25     -0.216000
      4 C2          1.3950   -0.2240   -0.0250 ca        1 B25     -0.156000
      5 N2         -3.3780    0.4230   -2.5410 nh        1 B25     -0.950800
      6 O2          3.3540    0.1740    3.5980 o         1 B25     -0.216000
      7 C3          2.0760   -0.0950    1.1690 ca        1 B25     -0.053000
      8 N3         -4.4670   -0.8780   -0.7840 n2        1 B25     -0.802100
      9 C4          1.3750    0.0960    2.3880 ca        1 B25     -0.214200
     10 N4         -0.9410   -0.2290   -1.0290 na        1 B25     -0.174400
     11 C5         -0.0210    0.1580    2.4410 ca        1 B25      0.001000
     12 C6         -0.7250    0.0280    1.2480 ca        1 B25     -0.128800
     13 C7         -2.1330    0.0340    0.9200 cc        1 B25     -0.105200
     14 C8         -2.2280   -0.1340   -0.4600 cd        1 B25     -0.132700
     15 C9         -3.4710   -0.2070   -1.2760 cf        1 B25      0.659500
     16 H2          1.9380   -0.3720   -0.9690 ha        1 B25      0.149000
     17 H1N2       -2.7780    1.2160   -2.5720 hn        1 B25      0.397800
     18 H2N2       -4.2420    0.5690   -3.0140 hn        1 B25      0.397800
     19 H3          3.1790   -0.1400    1.1830 ha        1 B25      0.170000
     20 H1N3       -5.3030   -0.9020   -1.3290 hn        1 B25      0.392400
     21 HN4        -0.7540   -0.4960   -1.9610 hn        1 B25      0.312700
     22 H5         -0.5510    0.3040    3.3970 ha        1 B25      0.175000
     23 H7         -2.9580    0.1390    1.6200 ha        1 B25      0.178000
@<TRIPOS>BOND
     1    1    4 ar  
     2    1   10 1   
     3    1   12 ar  
     4    2    3 1   
     5    2    6 1   
     6    2    9 1   
     7    4    7 ar  
     8    4   16 1   
     9    5   15 1   
    10    5   17 1   
    11    5   18 1   
    12    7    9 ar  
    13    7   19 1   
    14    8   15 2   
    15    8   20 1   
    16    9   11 ar  
    17   10   14 1   
    18   10   21 1   
    19   11   12 ar  
    20   11   22 1   
    21   12   13 1   
    22   13   14 2   
    23   13   23 1   
    24   14   15 1   
@<TRIPOS>SUBSTRUCTURE
     1 B25         1 TEMP              0 ****  ****    0 ROOT
