@<TRIPOS>MOLECULE
B25
   23    24     1     0     0
SMALL
bcc


@<TRIPOS>ATOM
      1 C1         -0.3810    0.9640   -0.1820 ca        1 B25     -0.002200
      2 N1          3.6370   -0.3890    0.1870 no        1 B25      0.318200
      3 O1          3.8670   -1.5540    0.3810 o         1 B25     -0.216000
      4 C2          0.6690    1.8950   -0.2820 ca        1 B25     -0.156000
      5 N2         -4.5830    0.7210    0.4700 nh        1 B25     -0.950800
      6 O2          4.5190    0.4250    0.0950 o         1 B25     -0.216000
      7 C3          1.9650    1.4330   -0.1600 ca        1 B25     -0.053000
      8 N3         -4.2870   -1.3520   -0.7860 n2        1 B25     -0.802100
      9 C4          2.2280    0.0560    0.0590 ca        1 B25     -0.214200
     10 N4         -1.7580    1.1400   -0.2340 na        1 B25     -0.174400
     11 C5          1.2030   -0.8900    0.1590 ca        1 B25      0.001000
     12 C6         -0.1100   -0.4440    0.0370 ca        1 B25     -0.128800
     13 C7         -1.3930   -1.1090    0.0780 cc        1 B25     -0.105200
     14 C8         -2.3640   -0.1260   -0.1000 cd        1 B25     -0.132700
     15 C9         -3.8400   -0.3160   -0.1460 cf        1 B25      0.659500
     16 H2          0.4670    2.9620   -0.4530 ha        1 B25      0.149000
     17 H1N2       -5.5450    0.5220    0.6350 hn        1 B25      0.397800
     18 H2N2       -4.1350    1.1530    1.2460 hn        1 B25      0.397800
     19 H3          2.8120    2.1380   -0.2350 ha        1 B25      0.170000
     20 H1N3       -5.2760   -1.4820   -0.7920 hn        1 B25      0.392400
     21 HN4        -2.2250    1.9630   -0.5130 hn        1 B25      0.312700
     22 H5          1.4230   -1.9570    0.3280 ha        1 B25      0.175000
     23 H7         -1.5630   -2.1750    0.2110 ha        1 B25      0.178000
@<TRIPOS>BOND
     1    1    4 ar  
     2    1   10 1   
     3    1   12 ar  
     4    2    3 1   
     5    2    6 1   
     6    2    9 1   
     7    4    7 ar  
     8    4   16 1   
     9    5   15 1   
    10    5   17 1   
    11    5   18 1   
    12    7    9 ar  
    13    7   19 1   
    14    8   15 2   
    15    8   20 1   
    16    9   11 ar  
    17   10   14 1   
    18   10   21 1   
    19   11   12 ar  
    20   11   22 1   
    21   12   13 1   
    22   13   14 2   
    23   13   23 1   
    24   14   15 1   
@<TRIPOS>SUBSTRUCTURE
     1 B25         1 TEMP              0 ****  ****    0 ROOT
