@<TRIPOS>MOLECULE
B25
   23    14     1     0     0
SMALL
bcc


@<TRIPOS>ATOM
      1 C1          0.7740   -0.0940   -0.5430 c1        1 B25     -0.079667
      2 N1          2.9990   -0.1240    3.0730 n2        1 B25      0.463400
      3 O1          3.5650   -1.1150    3.3730 o         1 B25     -0.311700
      4 C2          2.1740   -0.1920   -0.5510 c1        1 B25     -0.069667
      5 N2         -3.3080    1.1180   -2.1840 n3        1 B25     -0.397000
      6 O2          3.0490    0.9930    3.9190 o         1 B25     -0.311700
      7 C3          2.8670   -0.1970    0.6370 c1        1 B25     -0.069667
      8 N3         -3.3030   -1.2790   -1.9010 n1        1 B25     -0.318000
      9 C4          2.1500   -0.1010    1.8830 c1        1 B25     -0.079667
     10 N4         -0.1440   -0.0870   -1.5440 n1        1 B25     -0.168000
     11 C5          0.7810   -0.0060    1.8820 c1        1 B25     -0.069667
     12 C6          0.0810   -0.0010    0.6770 c1        1 B25     -0.079667
     13 C7         -1.2620    0.0610    0.3980 c1        1 B25     -0.165000
     14 C8         -1.4160    0.0100   -0.9660 c1        1 B25     -0.002000
     15 C9         -2.7040   -0.0650   -1.6950 c1        1 B25      0.160000
     16 H2          2.6400   -0.2560   -1.3740 ha        1 B25      0.164333
     17 H1N2       -3.9890    1.0660   -2.8340 hn        1 B25      0.206000
     18 H2N2       -3.0480    1.9000   -1.8810 hn        1 B25      0.206000
     19 H3          3.8900   -0.3310    0.6380 ha        1 B25      0.164333
     20 H1N3       -4.1050   -1.3270   -2.3590 DU        1 B25      0.196667
     21 HN4         0.0480   -0.1410   -2.4990 DU        1 B25      0.196667
     22 H5          0.2680    0.0370    2.7750 ha        1 B25      0.164333
     23 H7         -2.0070    0.1310    1.0760 DU        1 B25      0.196667
@<TRIPOS>BOND
     1    1    4 1   
     2    2    3 2   
     3    2    6 2   
     4    4   16 1   
     5    5   15 1   
     6    5   17 1   
     7    5   18 1   
     8    7    9 1   
     9    7   19 1   
    10    8   15 1   
    11   10   14 1   
    12   11   12 1   
    13   11   22 1   
    14   13   14 1   
@<TRIPOS>SUBSTRUCTURE
     1 B25         1 TEMP              0 ****  ****    0 ROOT
