@<TRIPOS>MOLECULE
B27
   18    17     1     0     0
SMALL
bcc


@<TRIPOS>ATOM
      1 N          -1.6390    0.1860   -0.3740 n3        1 B27     -0.924800
      2 CA         -0.2180    0.1120   -0.3950 c3        1 B27      0.135500
      3 CB          0.3060    0.0920    1.0220 c3        1 B27      0.146100
      4 CG2         0.9370    1.4280    1.3450 c3        1 B27     -0.131100
      5 OG1        -0.7570   -0.1530    1.9120 oh        1 B27     -0.596800
      6 SG         -0.0810   -0.9710   -2.8490 sh        1 B27     -0.383900
      7 CX          0.2100   -1.1490   -1.1090 c3        1 B27      0.004700
      8 HN         -1.9040    1.0400   -0.5720 hn        1 B27      0.359300
      9 HA          0.1410    0.8910   -0.8640 h1        1 B27      0.028700
     10 HB          0.9760   -0.6150    1.1110 h1        1 B27      0.072700
     11 HOG1       -0.4390   -0.5120    2.6610 ho        1 B27      0.413000
     12 HG2         1.6250    1.6340    0.6790 hc        1 B27      0.044700
     13 HG2A        0.2490    2.1260    1.3310 hc        1 B27      0.044700
     14 HG2B        1.3450    1.3900    2.2350 hc        1 B27      0.044700
     15 HX          1.1630   -1.3050   -0.9520 h1        1 B27      0.087700
     16 HXA        -0.3050   -1.9080   -0.7680 h1        1 B27      0.087700
     17 HNA        -1.9840   -0.3920   -0.9940 hn        1 B27      0.359300
     18 HSG         0.3760   -1.8940   -3.4200 hs        1 B27      0.208800
@<TRIPOS>BOND
     1    1    2 1   
     2    1    8 1   
     3    1   17 1   
     4    2    3 1   
     5    2    7 1   
     6    2    9 1   
     7    3    4 1   
     8    3    5 1   
     9    3   10 1   
    10    4   12 1   
    11    4   13 1   
    12    4   14 1   
    13    5   11 1   
    14    6    7 1   
    15    6   18 1   
    16    7   15 1   
    17    7   16 1   
@<TRIPOS>SUBSTRUCTURE
     1 B27         1 TEMP              0 ****  ****    0 ROOT
