@<TRIPOS>MOLECULE
B27
   18    17     1     0     0
SMALL
bcc


@<TRIPOS>ATOM
      1 N           0.0960    1.2470    0.9980 n3        1 B27     -0.899800
      2 CA          0.1620    0.3770   -0.1560 c3        1 B27      0.153500
      3 CB          1.5250   -0.3470   -0.3600 c3        1 B27      0.092100
      4 CG2         2.6330    0.6330   -0.6880 c3        1 B27     -0.131100
      5 OG1         1.8500   -1.1510    0.7620 oh        1 B27     -0.593800
      6 CX         -0.9290   -0.6950   -0.1450 c3        1 B27      0.003700
      7 HN          0.0570    0.7190    1.8480 hn        1 B27      0.352300
      8 HA          0.0030    1.0360   -1.0640 h1        1 B27      0.078700
      9 HB          1.4150   -1.0930   -1.1990 h1        1 B27      0.080700
     10 HOG1        2.1380   -0.5630    1.4710 ho        1 B27      0.394000
     11 HG2         3.5720    0.0770   -0.9210 hc        1 B27      0.046033
     12 HG2A        2.3500    1.2510   -1.5730 hc        1 B27      0.046033
     13 HG2B        2.8400    1.3140    0.1730 hc        1 B27      0.046033
     14 HX         -0.8230   -1.3220   -1.0630 h1        1 B27      0.066200
     15 HXA        -0.7970   -1.3640    0.7410 h1        1 B27      0.066200
     16 HNA         0.8870    1.8600    1.0200 hn        1 B27      0.352300
     17 HSG        -3.2470   -0.9960   -0.3870 hs        1 B27      0.182800
     18 SG         -2.5220    0.0750   -0.1190 sh        1 B27     -0.336900
@<TRIPOS>BOND
     1    1    2 1   
     2    1    7 1   
     3    1   16 1   
     4    2    3 1   
     5    2    6 1   
     6    2    8 1   
     7    3    4 1   
     8    3    5 1   
     9    3    9 1   
    10    4   11 1   
    11    4   12 1   
    12    4   13 1   
    13    5   10 1   
    14    6   14 1   
    15    6   15 1   
    16    6   18 1   
    17   17   18 1   
@<TRIPOS>SUBSTRUCTURE
     1 B27         1 TEMP              0 ****  ****    0 ROOT
