@<TRIPOS>MOLECULE
B29
   44    47     1     0     0
SMALL
bcc


@<TRIPOS>ATOM
      1 CAY         0.0000    0.0000    0.0000 cp        1 B29     -0.143000
      2 CAP         1.4070    0.0000    0.0000 ca        1 B29     -0.282000
      3 CAI         2.0830    0.0000    1.2280 ca        1 B29     -0.092000
      4 CAH         1.3800   -0.0000    2.4350 ca        1 B29     -0.352000
      5 CAO        -0.0180   -0.0020    2.4610 ca        1 B29     -0.146000
      6 CAX        -0.6610   -0.0020    1.2240 ca        1 B29      0.094100
      7 OAT        -2.0100   -0.0010    1.0350 os        1 B29     -0.136200
      8 CBA        -2.2280   -0.0000   -0.3090 ca        1 B29      0.122100
      9 CAZ        -1.0190    0.0000   -0.9980 cp        1 B29     -0.136000
     10 CAQ        -1.0500    0.0010   -2.4040 ca        1 B29     -0.286000
     11 CAK        -2.2930    0.0030   -3.0520 ca        1 B29     -0.090000
     12 CAN        -3.4840    0.0020   -2.3230 ca        1 B29     -0.316000
     13 CAW        -3.4780    0.0010   -0.9250 cp        1 B29     -0.104000
     14 CAV        -4.6930    0.0010   -0.1500 cp        1 B29      0.049000
     15 CAR        -5.2880   -1.2060    0.2270 ca        1 B29     -0.025000
     16 CAM        -5.2840    1.2100    0.2300 ca        1 B29     -0.142000
     17 CAJ        -6.4590    1.2110    0.9800 ca        1 B29     -0.172000
     18 CAL        -7.0500    0.0030    1.3540 ca        1 B29     -0.134000
     19 CAU        -6.4640   -1.2050    0.9780 ca        1 B29     -0.056300
     20 CAS        -7.0950   -2.4950    1.3780 c3        1 B29     -0.017100
     21 CBB        -6.6550   -3.1160    2.7370 c3        1 B29      0.632400
     22 PBC        -4.8490   -3.3520    2.8670 p5        1 B29      0.393200
     23 OAD        -4.0270   -2.1030    2.7480 o         1 B29     -0.607000
     24 OAE        -4.5420   -4.4880    1.7600 o         1 B29     -0.607000
     25 OAA        -4.6640   -4.1440    4.2640 o         1 B29     -0.607000
     26 PBD        -7.8230   -4.4960    3.1300 p5        1 B29      0.393200
     27 OAF        -9.2600   -4.0830    3.2590 o         1 B29     -0.607000
     28 OAG        -7.5180   -5.5720    1.9630 o         1 B29     -0.607000
     29 OAB        -7.1890   -5.1840    4.4480 o         1 B29     -0.607000
     30 OAC        -6.9530   -2.2020    3.7920 oh        1 B29     -0.622800
     31 HAP         1.9490   -0.2010   -0.9160 ha        1 B29      0.059000
     32 HAI         3.1660    0.0010    1.2410 ha        1 B29      0.022000
     33 HAH         1.9280   -0.0000    3.3690 ha        1 B29      0.049000
     34 HAO        -0.5440    0.3370    3.3450 ha        1 B29      0.082000
     35 HAQ        -0.1460    0.2050   -2.9650 ha        1 B29      0.056000
     36 HAK        -2.3300    0.0040   -4.1350 ha        1 B29      0.026000
     37 HAN        -4.4300    0.0030   -2.8510 ha        1 B29      0.062000
     38 HAR        -4.8340   -2.1460   -0.0640 ha        1 B29      0.146000
     39 HAM        -4.8280    2.1490   -0.0610 ha        1 B29      0.075000
     40 HAJ        -6.9140    2.1500    1.2720 ha        1 B29      0.050000
     41 HAL        -7.9630    0.0040    1.9360 ha        1 B29      0.084000
     42 HAS1       -6.8890   -3.2200    0.6000 hc        1 B29      0.034200
     43 HAS2       -8.1670   -2.3420    1.4160 hc        1 B29      0.034200
     44 HOAC       -6.7350   -2.5960    4.6200 ho        1 B29      0.432000
@<TRIPOS>BOND
     1    1    2 ar  
     2    1    6 ar  
     3    1    9 1   
     4    2    3 ar  
     5    2   31 1   
     6    3    4 ar  
     7    3   32 1   
     8    4    5 ar  
     9    4   33 1   
    10    5    6 ar  
    11    5   34 1   
    12    6    7 1   
    13    7    8 1   
    14    8    9 ar  
    15    8   13 ar  
    16    9   10 ar  
    17   10   11 ar  
    18   10   35 1   
    19   11   12 ar  
    20   11   36 1   
    21   12   13 ar  
    22   12   37 1   
    23   13   14 1   
    24   14   15 ar  
    25   14   16 ar  
    26   15   19 ar  
    27   15   38 1   
    28   16   17 ar  
    29   16   39 1   
    30   17   18 ar  
    31   17   40 1   
    32   18   19 ar  
    33   18   41 1   
    34   19   20 1   
    35   20   21 1   
    36   20   42 1   
    37   20   43 1   
    38   21   22 1   
    39   21   26 1   
    40   21   30 1   
    41   22   23 1   
    42   22   24 1   
    43   22   25 1   
    44   26   27 1   
    45   26   28 1   
    46   26   29 1   
    47   30   44 1   
@<TRIPOS>SUBSTRUCTURE
     1 B29         1 TEMP              0 ****  ****    0 ROOT
