@<TRIPOS>MOLECULE
B2D
   46    46     1     0     0
SMALL
bcc


@<TRIPOS>ATOM
      1 N1         -0.5530    1.1100    0.8830 na        1 B2D     -0.129000
      2 N3          0.5450    2.3880   -0.6200 n2        1 B2D     -0.068000
      3 C4          0.7150    1.6240    0.4820 c2        1 B2D     -0.145000
      4 C5         -0.7240   -1.1530    3.7690 c2        1 B2D     -0.040000
      5 C6         -1.9510   -1.8920    3.5130 c2        1 B2D     -0.141000
      6 C7         -2.1980   -3.1570    3.8880 c2        1 B2D     -0.056000
      7 C8         -1.2740   -4.0200    4.5860 c2        1 B2D     -0.469000
      8 C10        -0.1210   -1.1060    4.9650 c2        1 B2D     -0.188000
      9 C13        -3.8720    3.4380   -1.0810 c2        1 B2D      0.022000
     10 C15        -7.0110    1.9610   -2.1930 c1        1 B2D      0.154000
     11 C17        -4.2270    4.0710   -2.3840 c2        1 B2D     -0.036000
     12 C20        -3.6060    5.6880   -4.0510 c1        1 B2D     -0.158000
     13 C21        -3.0540    7.7560   -6.5680 c2        1 B2D      0.122000
     14 C19        -4.7950    5.3600   -4.7830 c2        1 B2D     -0.192000
     15 C18        -5.6710    4.4110   -4.3270 c2        1 B2D     -0.086000
     16 N7         -3.3750    5.0380   -2.9050 n3        1 B2D     -0.082000
     17 C16        -5.3930    3.7320   -3.0870 c2        1 B2D      0.053000
     18 N6         -6.2630    2.7790   -2.6100 n2        1 B2D     -0.292000
     19 C14        -3.8330    4.2120    0.0220 c2        1 B2D     -0.262000
     20 N5         -3.6880    2.0390   -1.1280 n3        1 B2D     -0.252000
     21 C11        -1.4590    1.6590   -0.0830 c2        1 B2D     -0.073000
     22 N2         -0.9460    0.3680    1.9200 n2        1 B2D     -0.033000
     23 N4         -0.7360    2.4060   -0.9590 n2        1 B2D     -0.100000
     24 C3          2.2350   -0.6240    3.3130 c1        1 B2D      0.261000
     25 C2          1.2870   -0.6220    2.3980 c2        1 B2D     -0.514000
     26 C1         -0.1470   -0.4050    2.6160 c2        1 B2D      0.078000
     27 C9         -1.5280   -5.1880    5.1410 c1        1 B2D      0.229000
     28 H6         -2.7270   -1.3340    2.9590 ha        1 B2D      0.151000
     29 H7         -3.1770   -3.6070    3.6430 ha        1 B2D      0.136000
     30 H8         -0.2230   -3.6540    4.6530 ha        1 B2D      0.197000
     31 H10        -0.5300   -1.6300    5.8410 ha        1 B2D      0.135000
     32 H15        -3.5730    3.8370    1.0180 ha        1 B2D      0.130500
     33 H20        -2.5440    5.2450   -2.3860 hn        1 B2D      0.269000
     34 H21        -4.9650    5.9060   -5.7260 ha        1 B2D      0.181000
     35 H21A       -2.8750    7.2270   -5.6040 h4        1 B2D      0.091000
     36 H21B       -2.2750    8.4840   -6.8850 h4        1 B2D      0.091000
     37 H18        -6.5850    4.1530   -4.8850 ha        1 B2D      0.152000
     38 H14        -4.0840    5.2780   -0.0270 ha        1 B2D      0.130500
     39 HN5        -3.4040    1.7280   -2.0380 hn        1 B2D      0.201000
     40 H12        -3.1020    0.2890   -0.1850 h1        1 B2D      0.126500
     41 H12A       -3.3530    1.7220    0.9240 h1        1 B2D      0.126500
     42 H3          1.6480    1.4380    1.0210 h5        1 B2D      0.216000
     43 H2          1.5780   -0.8440    1.3450 ha        1 B2D      0.216000
     44 H9          0.8000   -0.5320    5.1530 ha        1 B2D      0.135000
     45 C12        -2.9420    1.4030   -0.0770 c3        1 B2D      0.022000
     46 O1         -4.0550    7.5540   -7.2540 o         1 B2D     -0.309000
@<TRIPOS>BOND
     1    1    3 1   
     2    1   21 1   
     3    1   22 1   
     4    2    3 1   
     5    2   23 1   
     6    3   42 1   
     7    4    5 1   
     8    4    8 1   
     9    4   26 1   
    10    5    6 1   
    11    5   28 1   
    12    6    7 1   
    13    6   29 1   
    14    7   27 1   
    15    7   30 1   
    16    8   31 1   
    17    8   44 1   
    18    9   11 1   
    19    9   19 1   
    20    9   20 1   
    21   10   18 1   
    22   11   16 1   
    23   11   17 1   
    24   12   14 1   
    25   12   16 1   
    26   13   35 1   
    27   13   36 1   
    28   13   46 1   
    29   14   15 1   
    30   14   34 1   
    31   15   17 1   
    32   15   37 1   
    33   16   33 1   
    34   17   18 1   
    35   19   32 1   
    36   19   38 1   
    37   20   39 1   
    38   20   45 1   
    39   21   23 1   
    40   21   45 1   
    41   22   26 1   
    42   24   25 1   
    43   25   26 1   
    44   25   43 1   
    45   40   45 1   
    46   41   45 1   
@<TRIPOS>SUBSTRUCTURE
     1 B2D         1 TEMP              0 ****  ****    0 ROOT
