@<TRIPOS>MOLECULE
B2D
   46    37     1     0     0
SMALL
bcc


@<TRIPOS>ATOM
      1 N1          1.0920   -0.7990    1.5020 n1        1 B2D     -0.065000
      2 N3          2.1440    0.9830    0.8180 n2        1 B2D     -0.052000
      3 C4          2.2000   -0.0720    1.6730 c1        1 B2D     -0.101000
      4 C5          1.5650   -3.5480    3.8260 c1        1 B2D     -0.054000
      5 C6          0.9440   -3.5440    5.0660 c1        1 B2D     -0.090000
      6 C7          0.6970   -4.7450    5.7250 c1        1 B2D     -0.121625
      7 C8          1.0760   -5.9540    5.1370 c1        1 B2D     -0.121625
      8 C10         1.9420   -4.7490    3.2400 c1        1 B2D     -0.121625
      9 C13        -2.2230    0.9270   -2.0480 c1        1 B2D      0.155000
     10 C15        -4.1790    0.8650   -3.4340 c1        1 B2D     -0.121625
     11 C17        -1.8160    2.0910   -2.6790 c1        1 B2D     -0.106000
     12 C20        -0.2230    3.8630   -2.9250 c1        1 B2D     -0.112000
     13 C21         0.3490    5.9420   -5.1580 c3        1 B2D     -0.079000
     14 O1         -0.8260    5.7470   -4.3630 os        1 B2D     -0.200000
     15 C19        -1.0130    4.4170   -3.9470 c1        1 B2D      0.034000
     16 C18        -2.1710    3.8140   -4.3150 c1        1 B2D     -0.119000
     17 N7         -0.6230    2.7130   -2.3000 n1        1 B2D     -0.106000
     18 C16        -2.5840    2.6320   -3.6750 c1        1 B2D      0.021000
     19 N6         -3.7810    2.0080   -4.0550 n1        1 B2D     -0.166000
     20 C14        -3.3990    0.3140   -2.4230 c1        1 B2D     -0.121625
     21 N5         -1.4850    0.7910   -0.7740 n3        1 B2D     -0.277000
     22 C12        -0.8310   -0.4660   -0.4430 c3        1 B2D      0.043000
     23 C11         0.3360   -0.1980    0.5330 c1        1 B2D     -0.113000
     24 N2          0.8880   -1.9600    2.2630 n1        1 B2D     -0.030000
     25 N4          0.9890    0.8940    0.1190 n2        1 B2D     -0.059000
     26 C3          3.1560   -0.4700    2.6130 c1        1 B2D     -0.121625
     27 C2          2.9560   -1.5930    3.3480 c1        1 B2D     -0.121625
     28 C1          1.8040   -2.3440    3.1650 c1        1 B2D      0.014000
     29 C9          1.6960   -5.9570    3.9000 c1        1 B2D     -0.121625
     30 H6          0.6860   -2.7180    5.4670 ha        1 B2D      0.146000
     31 H7          0.2590   -4.7410    6.6000 ha        1 B2D      0.150125
     32 H8          0.9040   -6.7930    5.5970 ha        1 B2D      0.150125
     33 H10         2.3650   -4.7510    2.3970 ha        1 B2D      0.150125
     34 H15        -4.9960    0.4380   -3.6930 ha        1 B2D      0.150125
     35 H20         0.5450    4.3740   -2.5690 ha        1 B2D      0.165000
     36 H21         0.1630    6.5710   -5.8520 h1        1 B2D      0.087000
     37 H21A        0.6240    5.0710   -5.5630 h1        1 B2D      0.087000
     38 H21B        1.0760    6.2850   -4.5890 h1        1 B2D      0.087000
     39 H18        -2.7170    4.2010   -5.0250 ha        1 B2D      0.171000
     40 H14        -3.6860   -0.5080   -1.9770 ha        1 B2D      0.150125
     41 HN5        -1.4600    1.5010   -0.1730 hn        1 B2D      0.242000
     42 H12        -1.4780   -1.0700   -0.0210 h1        1 B2D      0.125000
     43 H12A       -0.4920   -0.8690   -1.2390 h1        1 B2D      0.125000
     44 H3          3.9740    0.0650    2.7430 ha        1 B2D      0.150125
     45 H2          3.5860   -1.8400    4.0280 ha        1 B2D      0.150125
     46 H9          1.9670   -6.8210    3.4780 ha        1 B2D      0.150125
@<TRIPOS>BOND
     1    1    3 1   
     2    2    3 1   
     3    2   25 1   
     4    4    5 1   
     5    5   30 1   
     6    6    7 1   
     7    6   31 1   
     8    7   32 1   
     9    8   29 1   
    10    8   33 1   
    11    9   11 1   
    12    9   21 1   
    13   10   20 1   
    14   10   34 1   
    15   11   18 1   
    16   12   17 1   
    17   12   35 1   
    18   13   14 1   
    19   13   36 1   
    20   13   37 1   
    21   13   38 1   
    22   14   15 1   
    23   15   16 1   
    24   16   39 1   
    25   18   19 1   
    26   20   40 1   
    27   21   22 1   
    28   21   41 1   
    29   22   23 1   
    30   22   42 1   
    31   22   43 1   
    32   23   25 1   
    33   24   28 1   
    34   26   27 1   
    35   26   44 1   
    36   27   45 1   
    37   29   46 1   
@<TRIPOS>SUBSTRUCTURE
     1 B2D         1 TEMP              0 ****  ****    0 ROOT
