@<TRIPOS>MOLECULE
B2D
   46    50     1     0     0
SMALL
bcc


@<TRIPOS>ATOM
      1 N1         -2.2380   -1.7210    0.2120 na        1 B2D      0.095300
      2 N3         -2.3030   -3.7690    1.2150 nc        1 B2D     -0.057000
      3 C4         -2.9810   -2.5780    1.1080 cd        1 B2D     -0.122300
      4 C5         -4.1840    1.3290    0.0370 ca        1 B2D     -0.162500
      5 C6         -3.2700    2.3890   -0.0260 ca        1 B2D     -0.097000
      6 C7         -3.7150    3.6700   -0.3510 ca        1 B2D     -0.133500
      7 C8         -5.0640    3.8990   -0.6180 ca        1 B2D     -0.110000
      8 C10        -5.5390    1.5600   -0.2360 ca        1 B2D     -0.097000
      9 C13         2.0290   -0.7560   -1.1160 ca        1 B2D      0.190300
     10 C15         3.2930   -0.3040   -3.1460 ca        1 B2D      0.464200
     11 C17         3.1150   -0.0960   -0.3910 ca        1 B2D      0.212300
     12 C20         4.0630    0.6130    1.6060 ca        1 B2D      0.349200
     13 C21         6.1610    1.8800    2.9790 c3        1 B2D      0.111700
     14 C19         5.1920    1.1760    0.9240 ca        1 B2D      0.014800
     15 C18         5.2700    1.0840   -0.4540 ca        1 B2D     -0.186300
     16 N7          3.0720    0.0070    0.9790 nb        1 B2D     -0.634000
     17 C16         4.2130    0.4280   -1.1620 ca        1 B2D      0.356300
     18 N6          4.2870    0.3190   -2.5340 nb        1 B2D     -0.699000
     19 C14         2.1580   -0.8600   -2.5040 ca        1 B2D     -0.368300
     20 N5          0.9080   -1.1960   -0.4400 nh        1 B2D     -0.747600
     21 C11        -1.1230   -2.5060   -0.1680 cd        1 B2D      0.302800
     22 N2         -2.6030   -0.4980   -0.1420 nd        1 B2D     -0.447800
     23 N4         -1.2280   -3.7150    0.4760 nc        1 B2D     -0.333700
     24 C3         -4.1920   -2.0580    1.6710 cd        1 B2D     -0.036000
     25 C2         -4.5640   -0.7930    1.3160 cc        1 B2D     -0.228300
     26 C1         -3.7400   -0.0290    0.3940 cc        1 B2D      0.446800
     27 C9         -5.9740    2.8430   -0.5630 ca        1 B2D     -0.133500
     28 H6         -2.2020    2.2150    0.1780 ha        1 B2D      0.144000
     29 H7         -2.9940    4.5010   -0.3980 ha        1 B2D      0.139500
     30 H8         -5.4110    4.9110   -0.8750 ha        1 B2D      0.138000
     31 H10        -6.2580    0.7280   -0.2040 ha        1 B2D      0.144000
     32 H15         3.3810   -0.3830   -4.2460 h4        1 B2D      0.021100
     33 H20         3.9810    0.6670    2.7060 h4        1 B2D      0.027100
     34 H21         5.2610    2.4560    3.3050 h1        1 B2D      0.047367
     35 H21A        6.1530    0.8530    3.4180 h1        1 B2D      0.047367
     36 H21B        7.0990    2.4220    3.2600 h1        1 B2D      0.047367
     37 H18         6.1270    1.5040   -1.0010 ha        1 B2D      0.172000
     38 H14         1.3980   -1.3560   -3.1210 ha        1 B2D      0.144000
     39 HN5         0.9610   -1.2690    0.5520 hn        1 B2D      0.451800
     40 H12        -0.5110   -1.4840   -1.9580 h1        1 B2D      0.073700
     41 H12A        0.4640   -2.9730   -1.5270 h1        1 B2D      0.073700
     42 H3         -4.7670   -2.6910    2.3620 ha        1 B2D      0.174000
     43 H2         -5.4730   -0.3210    1.7140 ha        1 B2D      0.164000
     44 H9         -7.0380    3.0210   -0.7800 ha        1 B2D      0.139500
     45 C12        -0.0430   -2.0550   -1.1010 c3        1 B2D      0.217500
     46 O1          6.2320    1.8210    1.5580 os        1 B2D     -0.315900
@<TRIPOS>BOND
     1    1    3 1   
     2    1   21 1   
     3    1   22 1   
     4    2    3 2   
     5    2   23 1   
     6    3   24 1   
     7    4    5 ar  
     8    4    8 ar  
     9    4   26 1   
    10    5    6 ar  
    11    5   28 1   
    12    6    7 ar  
    13    6   29 1   
    14    7   27 ar  
    15    7   30 1   
    16    8   27 ar  
    17    8   31 1   
    18    9   11 ar  
    19    9   19 ar  
    20    9   20 1   
    21   10   18 ar  
    22   10   19 ar  
    23   10   32 1   
    24   11   16 ar  
    25   11   17 ar  
    26   12   14 ar  
    27   12   16 ar  
    28   12   33 1   
    29   13   34 1   
    30   13   35 1   
    31   13   36 1   
    32   13   46 1   
    33   14   15 ar  
    34   14   46 1   
    35   15   17 ar  
    36   15   37 1   
    37   17   18 ar  
    38   19   38 1   
    39   20   39 1   
    40   20   45 1   
    41   21   23 2   
    42   21   45 1   
    43   22   26 2   
    44   24   25 2   
    45   24   42 1   
    46   25   26 1   
    47   25   43 1   
    48   27   44 1   
    49   40   45 1   
    50   41   45 1   
@<TRIPOS>SUBSTRUCTURE
     1 B2D         1 TEMP              0 ****  ****    0 ROOT
