@<TRIPOS>MOLECULE
B2D
   46    46     1     0     0
SMALL
bcc


@<TRIPOS>ATOM
      1 N1         -0.3450   -1.3460   -0.0720 na        1 B2D     -0.181000
      2 N3          0.4360   -3.2100   -1.1090 n2        1 B2D     -0.034000
      3 C4          0.2720   -2.6460    0.0940 c2        1 B2D     -0.229000
      4 C5         -0.2530    0.9670    2.7640 c2        1 B2D     -0.034000
      5 C6          0.1840    2.2110    2.1460 c2        1 B2D     -0.120000
      6 C7         -0.5300    3.3410    2.0330 c2        1 B2D     -0.078000
      7 C8         -1.8960    3.5090    2.4720 c2        1 B2D     -0.437000
      8 C10        -0.7990    0.8920    3.9850 c2        1 B2D     -0.196000
      9 C13        -3.1690    0.9570   -1.9960 c2        1 B2D     -0.119000
     10 C15        -4.8970    1.5600   -5.1860 c1        1 B2D      0.178000
     11 C17        -3.8160    2.2870   -1.8910 c2        1 B2D     -0.025000
     12 C20        -4.2220    4.1700   -0.6000 c2        1 B2D     -0.071000
     13 C21        -6.9690    8.7990   -0.7310 c2        1 B2D      0.151000
     14 C19        -5.0460    4.7450   -1.5880 c2        1 B2D     -0.147000
     15 C18        -5.2360    4.0590   -2.7790 c2        1 B2D     -0.100000
     16 N7         -3.6230    2.9800   -0.7410 n2        1 B2D     -0.143000
     17 C16        -4.6090    2.7990   -2.9640 c2        1 B2D      0.066000
     18 N6         -4.7590    2.1180   -4.1490 n2        1 B2D     -0.311000
     19 C14        -3.8320   -0.1640   -2.3150 c2        1 B2D     -0.109000
     20 N5         -1.7240    0.9400   -1.6700 ny        1 B2D      0.162000
     21 C11        -0.4850   -1.2390   -1.5220 c2        1 B2D      0.147000
     22 N2         -0.4440   -0.3160    0.7440 n2        1 B2D     -0.039000
     23 N4          0.0050   -2.4110   -2.0710 n2        1 B2D     -0.197000
     24 C3          0.4460   -1.8460    3.8490 c1        1 B2D      0.220000
     25 C2          0.7590   -1.3040    2.6930 c2        1 B2D     -0.480000
     26 C1          0.0060   -0.2700    1.9750 c2        1 B2D      0.004000
     27 C9         -2.6670    4.5660    2.3350 c1        1 B2D      0.180000
     28 H6          1.2100    2.1750    1.7350 ha        1 B2D      0.143000
     29 H7         -0.0720    4.2230    1.5530 ha        1 B2D      0.130000
     30 H8         -2.3600    2.6170    2.9580 ha        1 B2D      0.205000
     31 H10        -0.9720    1.7830    4.6030 ha        1 B2D      0.129500
     32 H15        -3.3310   -1.1440   -2.3940 ha        1 B2D      0.158500
     33 H20        -4.0290    4.6910    0.3620 h4        1 B2D      0.190000
     34 H21        -5.5230    5.7240   -1.4150 ha        1 B2D      0.186000
     35 H21A       -7.6120    9.4920   -1.3120 h4        1 B2D      0.076000
     36 H21B       -6.7190    9.1210    0.3010 h4        1 B2D      0.076000
     37 H18        -5.8650    4.4910   -3.5740 ha        1 B2D      0.161000
     38 H14        -4.9130   -0.1550   -2.5150 ha        1 B2D      0.158500
     39 HN5        -1.3180    1.8030   -2.0470 hn        1 B2D      0.236500
     40 H12        -1.0110   -0.1900   -3.3320 hx        1 B2D      0.183000
     41 H12A       -1.6470    0.9710   -0.6450 hn        1 B2D      0.236500
     42 H3          0.4650   -3.0920    1.0690 h5        1 B2D      0.199000
     43 H2          1.7000   -1.6260    2.1890 ha        1 B2D      0.214000
     44 H9         -1.0820   -0.0650    4.4480 ha        1 B2D      0.129500
     45 C12        -1.0260   -0.1650   -2.2360 c2        1 B2D     -0.565000
     46 O1         -6.5600    7.7400   -1.2010 o         1 B2D     -0.301000
@<TRIPOS>BOND
     1    1    3 1   
     2    1   21 1   
     3    1   22 1   
     4    2    3 1   
     5    2   23 1   
     6    3   42 1   
     7    4    5 1   
     8    4    8 1   
     9    4   26 1   
    10    5    6 1   
    11    5   28 1   
    12    6    7 1   
    13    6   29 1   
    14    7   27 1   
    15    7   30 1   
    16    8   31 1   
    17    8   44 1   
    18    9   11 1   
    19    9   19 1   
    20    9   20 1   
    21   10   18 1   
    22   11   16 1   
    23   11   17 1   
    24   12   14 1   
    25   12   16 1   
    26   12   33 1   
    27   13   35 1   
    28   13   36 1   
    29   13   46 1   
    30   14   15 1   
    31   14   34 1   
    32   15   17 1   
    33   15   37 1   
    34   17   18 1   
    35   19   32 1   
    36   19   38 1   
    37   20   39 1   
    38   20   41 1   
    39   20   45 1   
    40   21   23 1   
    41   21   45 1   
    42   22   26 1   
    43   24   25 1   
    44   25   26 1   
    45   25   43 1   
    46   40   45 1   
@<TRIPOS>SUBSTRUCTURE
     1 B2D         1 TEMP              0 ****  ****    0 ROOT
