@<TRIPOS>MOLECULE
B2D
   47    48     1     0     0
SMALL
bcc


@<TRIPOS>ATOM
      1 N1          0.4100    0.9520    0.8380 na        1 B2D     -0.080000
      2 N3          1.7600    2.2890   -0.3920 n2        1 B2D     -0.036000
      3 C4          1.7260    1.4640    0.6950 c2        1 B2D     -0.126000
      4 C5         -0.3060   -1.6720    3.3030 c2        1 B2D     -0.055000
      5 C6         -0.6980   -0.9000    4.4710 c2        1 B2D     -0.157000
      6 C7         -1.8660   -0.9840    5.1270 c2        1 B2D     -0.033000
      7 C8         -2.9760   -1.8320    4.7670 c2        1 B2D     -0.482000
      8 C10        -0.5220   -2.9860    3.1520 c2        1 B2D     -0.170000
      9 C13        -3.7800    2.3570   -1.5080 c3        1 B2D     -0.096000
     10 C15        -5.8720    2.3760   -0.1830 c2        1 B2D     -0.161000
     11 C17        -4.3700    3.5350   -2.2640 c2        1 B2D     -0.078000
     12 C20        -4.2350    5.1080   -3.9440 c2        1 B2D      0.001000
     13 C21        -4.4220    8.1630   -6.9230 c2        1 B2D      0.165000
     14 C19        -5.5600    5.5390   -3.7160 c2        1 B2D     -0.148000
     15 C18        -6.3080    4.9360   -2.7130 c2        1 B2D     -0.013000
     16 N7         -3.6490    4.1230   -3.2400 n2        1 B2D     -0.168000
     17 C16        -5.7190    3.8990   -1.9440 c2        1 B2D     -0.108000
     18 N6         -6.4550    3.2850   -0.9230 n2        1 B2D      0.015000
     19 C14        -4.4820    2.0220   -0.2500 c1        1 B2D     -0.036000
     20 N5         -2.3030    2.5060   -1.2720 n4        1 B2D     -0.002000
     21 C11        -0.2970    1.5450   -0.2440 c2        1 B2D     -0.157000
     22 N2         -0.1620    0.1670    1.7680 n2        1 B2D     -0.083000
     23 N4          0.5760    2.3330   -0.9490 n2        1 B2D     -0.086000
     24 C3          2.6900   -0.9000    1.1660 c1        1 B2D      0.282000
     25 C2          1.7200   -1.4550    1.8700 c2        1 B2D     -0.519000
     26 C1          0.4230   -0.9110    2.2480 c2        1 B2D      0.139000
     27 C9         -4.0530   -2.0910    5.4850 c1        1 B2D      0.258000
     28 H6          0.0650   -0.1820    4.8250 ha        1 B2D      0.142000
     29 H7         -2.0230   -0.3470    6.0180 ha        1 B2D      0.142000
     30 H8         -2.9190   -2.3160    3.7650 ha        1 B2D      0.193000
     31 H10        -1.0260   -3.5800    3.9280 ha        1 B2D      0.138000
     32 H15        -6.4870    1.9140    0.6200 h4        1 B2D      0.214000
     33 H20        -3.6180    5.5870   -4.7340 h4        1 B2D      0.212000
     34 H21        -5.9730    6.3500   -4.3420 ha        1 B2D      0.196000
     35 H21A       -3.4840    8.2810   -7.5060 h4        1 B2D      0.086500
     36 H21B       -5.2580    8.8410   -7.1970 h4        1 B2D      0.086500
     37 H18        -7.3480    5.2500   -2.5140 ha        1 B2D      0.184000
     38 H14        -3.9260    1.4350   -2.1770 hx        1 B2D      0.203000
     39 HN5        -2.1390    3.3560   -0.7180 hn        1 B2D      0.268000
     40 H12        -1.8630    0.4170   -1.1980 hx        1 B2D      0.174500
     41 H12A       -2.3420    1.1780    0.4120 hx        1 B2D      0.174500
     42 H3          2.5580    1.3010    1.3960 h5        1 B2D      0.247000
     43 H2          1.9230   -2.4890    2.2430 ha        1 B2D      0.230000
     44 H9         -0.2040   -3.5450    2.2610 ha        1 B2D      0.138000
     45 C12        -1.7400    1.3260   -0.5400 c3        1 B2D     -0.030000
     46 O1         -4.5300    7.3270   -6.0260 o         1 B2D     -0.336000
     47 H52        -1.8230    2.6220   -2.1770 hn        1 B2D      0.268000
@<TRIPOS>BOND
     1    1    3 1   
     2    1   21 1   
     3    1   22 1   
     4    2    3 1   
     5    2   23 1   
     6    3   42 1   
     7    4    5 1   
     8    4    8 1   
     9    4   26 1   
    10    5    6 1   
    11    5   28 1   
    12    6    7 1   
    13    6   29 1   
    14    7   27 1   
    15    7   30 1   
    16    8   31 1   
    17    8   44 1   
    18    9   11 1   
    19    9   19 1   
    20    9   20 1   
    21    9   38 1   
    22   10   18 1   
    23   10   19 1   
    24   10   32 1   
    25   11   16 1   
    26   11   17 1   
    27   12   14 1   
    28   12   16 1   
    29   12   33 1   
    30   13   35 1   
    31   13   36 1   
    32   13   46 1   
    33   14   15 1   
    34   14   34 1   
    35   15   17 1   
    36   15   37 1   
    37   17   18 1   
    38   20   39 1   
    39   20   45 1   
    40   20   47 1   
    41   21   23 1   
    42   21   45 1   
    43   22   26 1   
    44   24   25 1   
    45   25   26 1   
    46   25   43 1   
    47   40   45 1   
    48   41   45 1   
@<TRIPOS>SUBSTRUCTURE
     1 B2D         1 TEMP              0 ****  ****    0 ROOT
