@<TRIPOS>MOLECULE
B2G
   45    46     1     0     0
SMALL
bcc


@<TRIPOS>ATOM
      1 C1A        -0.0550   -0.2380   -3.7870 c3        1 B2G      0.313900
      2 C2A        -1.1190    0.5320   -2.9770 c3        1 B2G      0.053100
      3 C3A        -0.4240    1.5320   -2.0420 c3        1 B2G      0.124100
      4 C4A         0.5770    0.7830   -1.1440 c3        1 B2G      0.123100
      5 C5A         1.5510   -0.0070   -2.0320 c3        1 B2G      0.110100
      6 C6A         2.4680   -0.9050   -1.1950 c3        1 B2G      0.142400
      7 O2A        -1.9540    1.2840   -3.8380 oh        1 B2G     -0.602800
      8 O3A        -1.3570    2.1880   -1.2060 oh        1 B2G     -0.601800
      9 O4A        -0.0970   -0.1570   -0.3050 os        1 B2G     -0.408600
     10 O5A         0.8760   -0.8860   -2.9340 os        1 B2G     -0.450600
     11 O6A         3.5310   -1.4010   -1.9770 oh        1 B2G     -0.596800
     12 C1B        -0.4870    0.3560    0.9550 c3        1 B2G      0.304900
     13 C2B        -1.3420   -0.7370    1.6230 c3        1 B2G      0.087100
     14 C3B        -1.5770   -0.3510    3.0910 c3        1 B2G      0.111100
     15 C4B        -0.2260   -0.1280    3.7930 c3        1 B2G      0.123100
     16 C5B         0.6190    0.8770    2.9970 c3        1 B2G      0.113100
     17 C6B         2.0480    0.9510    3.5460 c3        1 B2G      0.141400
     18 O2B        -2.6160   -0.8300    1.0130 oh        1 B2G     -0.604800
     19 O3B        -2.2270   -1.3990    3.7900 oh        1 B2G     -0.607800
     20 O4B         0.5050   -1.3340    3.9110 oh        1 B2G     -0.591800
     21 O5B         0.7590    0.5180    1.6210 os        1 B2G     -0.448600
     22 O6B         2.7890    1.9560    2.8890 oh        1 B2G     -0.597800
     23 O1A        -0.6270   -1.3040   -4.4950 oh        1 B2G     -0.596800
     24 H1A         0.4530    0.4240   -4.5410 h2        1 B2G      0.085700
     25 H2A        -1.7380   -0.1880   -2.3730 h1        1 B2G      0.064700
     26 H3A         0.1280    2.2970   -2.6570 h1        1 B2G      0.056700
     27 H4A         1.1490    1.5240   -0.5210 h1        1 B2G      0.086700
     28 H5A         2.1600    0.7260   -2.6330 h1        1 B2G      0.062700
     29 H6A1        2.9490   -0.2980   -0.3830 h1        1 B2G      0.069700
     30 H6A2        1.8700   -1.7410   -0.7470 h1        1 B2G      0.069700
     31 HB         -2.2840    0.6710   -4.5090 ho        1 B2G      0.425000
     32 HC         -2.0410    2.5510   -1.7860 ho        1 B2G      0.428000
     33 H6A         3.1420   -1.9530   -2.6680 ho        1 B2G      0.412000
     34 H1B        -1.0310    1.3370    0.8660 h2        1 B2G      0.084700
     35 HD         -0.8080   -1.7260    1.5660 h1        1 B2G      0.083700
     36 HE         -2.2030    0.5820    3.1440 h1        1 B2G      0.060700
     37 HF         -0.4180    0.2870    4.8240 h1        1 B2G      0.057700
     38 H5B         0.1220    1.8870    3.0540 h1        1 B2G      0.056700
     39 H6B1        2.5450   -0.0500    3.4390 h1        1 B2G      0.068200
     40 H6B2        2.0210    1.2580    4.6250 h1        1 B2G      0.068200
     41 H2B        -2.4600   -0.9660    0.0690 ho        1 B2G      0.424000
     42 H3B        -3.0040   -1.6410    3.2680 ho        1 B2G      0.431000
     43 H4B        -0.1030   -1.9950    4.2720 ho        1 B2G      0.426000
     44 H6B         2.8430    1.7020    1.9580 ho        1 B2G      0.409000
     45 HA         -0.7260   -2.0530   -3.8880 ho        1 B2G      0.429000
@<TRIPOS>BOND
     1    1    2 1   
     2    1   10 1   
     3    1   23 1   
     4    1   24 1   
     5    2    3 1   
     6    2    7 1   
     7    2   25 1   
     8    3    4 1   
     9    3    8 1   
    10    3   26 1   
    11    4    5 1   
    12    4    9 1   
    13    4   27 1   
    14    5    6 1   
    15    5   10 1   
    16    5   28 1   
    17    6   11 1   
    18    6   29 1   
    19    6   30 1   
    20    7   31 1   
    21    8   32 1   
    22    9   12 1   
    23   11   33 1   
    24   12   13 1   
    25   12   21 1   
    26   12   34 1   
    27   13   14 1   
    28   13   18 1   
    29   13   35 1   
    30   14   15 1   
    31   14   19 1   
    32   14   36 1   
    33   15   16 1   
    34   15   20 1   
    35   15   37 1   
    36   16   17 1   
    37   16   21 1   
    38   16   38 1   
    39   17   22 1   
    40   17   39 1   
    41   17   40 1   
    42   18   41 1   
    43   19   42 1   
    44   20   43 1   
    45   22   44 1   
    46   23   45 1   
@<TRIPOS>SUBSTRUCTURE
     1 B2G         1 TEMP              0 ****  ****    0 ROOT
