@<TRIPOS>MOLECULE
B2G
   45    46     1     0     0
SMALL
bcc


@<TRIPOS>ATOM
      1 C1A        -2.3640   -2.4390   -2.3680 c3        1 B2G      0.315900
      2 C2A        -0.8510   -2.4390   -2.3680 c3        1 B2G      0.048100
      3 C3A        -0.2860   -2.4390   -0.9940 c3        1 B2G      0.126100
      4 C4A        -0.8640   -1.3520   -0.1460 c3        1 B2G      0.120100
      5 C5A        -2.3830   -1.3550   -0.1570 c3        1 B2G      0.112100
      6 C6A        -2.8790   -0.1320    0.5660 c3        1 B2G      0.143400
      7 O2A        -0.3850   -3.6150   -3.0650 oh        1 B2G     -0.603800
      8 O3A         1.1510   -2.2570   -1.0770 oh        1 B2G     -0.602800
      9 O4A        -0.3950   -0.0740   -0.6370 os        1 B2G     -0.392600
     10 O5A        -2.9340   -1.3590   -1.5140 os        1 B2G     -0.450600
     11 O6A        -4.2990   -0.1480    0.6050 oh        1 B2G     -0.597800
     12 C1B         0.7520    0.3040    0.0680 c3        1 B2G      0.334900
     13 C2B         1.4830    1.3680   -0.7200 c3        1 B2G      0.091100
     14 C3B         2.6190    1.9540    0.0400 c3        1 B2G      0.072100
     15 C4B         2.2080    2.4220    1.3980 c3        1 B2G      0.085100
     16 C5B         1.4700    1.3500    2.1790 c3        1 B2G      0.073100
     17 C6B         0.9360    1.9550    3.4510 c3        1 B2G      0.140400
     18 O2B         1.9910    0.7810   -1.9370 oh        1 B2G     -0.585800
     19 O3B         3.1500    3.0820   -0.7050 oh        1 B2G     -0.593800
     20 O4B         1.3520    3.5660    1.2550 oh        1 B2G     -0.595800
     21 O5B         0.3530    0.7730    1.4230 os        1 B2G     -0.467600
     22 O6B         1.0920    1.0300    4.5160 oh        1 B2G     -0.591800
     23 O1A        -2.8110   -2.2680   -3.6650 oh        1 B2G     -0.595800
     24 H1A        -2.6780   -3.3020   -2.0370 h2        1 B2G      0.085700
     25 H2A        -0.5350   -1.6450   -2.8400 h1        1 B2G      0.084700
     26 H3A        -0.4730   -3.3010   -0.5750 h1        1 B2G      0.053700
     27 H4A        -0.5550   -1.4700    0.7730 h1        1 B2G      0.080700
     28 H5A        -2.7000   -2.1490    0.3140 h1        1 B2G      0.061700
     29 H6A1       -2.5290   -0.1280    1.4770 h1        1 B2G      0.064700
     30 H6A2       -2.5760    0.6690    0.0980 h1        1 B2G      0.064700
     31 HB         -0.0940   -3.3850   -3.8710 ho        1 B2G      0.424000
     32 HC          1.5560   -3.0350   -0.9400 ho        1 B2G      0.431000
     33 H6A        -4.5860    0.4650    1.1800 ho        1 B2G      0.415000
     34 H1B         1.3350   -0.4730    0.1630 h2        1 B2G      0.100700
     35 HD          0.8560    2.0800   -0.9490 h1        1 B2G      0.060700
     36 HE          3.3180    1.2790    0.1350 h1        1 B2G      0.094700
     37 HF          3.0060    2.6830    1.8970 h1        1 B2G      0.099700
     38 H5B         2.0970    0.6380    2.4080 h1        1 B2G      0.070700
     39 H6B1       -0.0110    2.1650    3.3400 h1        1 B2G      0.062200
     40 H6B2        1.4290    2.7720    3.6550 h1        1 B2G      0.062200
     41 H2B         1.8640    1.3440   -2.6120 ho        1 B2G      0.422000
     42 H3B         4.0310    3.0010   -0.7770 ho        1 B2G      0.421000
     43 H4B         1.7980    4.2990    1.4830 ho        1 B2G      0.418000
     44 H6B         0.9410    1.4410    5.2880 ho        1 B2G      0.411000
     45 HA         -3.6030   -2.6580   -3.7580 ho        1 B2G      0.429000
@<TRIPOS>BOND
     1    1    2 1   
     2    1   10 1   
     3    1   23 1   
     4    1   24 1   
     5    2    3 1   
     6    2    7 1   
     7    2   25 1   
     8    3    4 1   
     9    3    8 1   
    10    3   26 1   
    11    4    5 1   
    12    4    9 1   
    13    4   27 1   
    14    5    6 1   
    15    5   10 1   
    16    5   28 1   
    17    6   11 1   
    18    6   29 1   
    19    6   30 1   
    20    7   31 1   
    21    8   32 1   
    22    9   12 1   
    23   11   33 1   
    24   12   13 1   
    25   12   21 1   
    26   12   34 1   
    27   13   14 1   
    28   13   18 1   
    29   13   35 1   
    30   14   15 1   
    31   14   19 1   
    32   14   36 1   
    33   15   16 1   
    34   15   20 1   
    35   15   37 1   
    36   16   17 1   
    37   16   21 1   
    38   16   38 1   
    39   17   22 1   
    40   17   39 1   
    41   17   40 1   
    42   18   41 1   
    43   19   42 1   
    44   20   43 1   
    45   22   44 1   
    46   23   45 1   
@<TRIPOS>SUBSTRUCTURE
     1 B2G         1 TEMP              0 ****  ****    0 ROOT
