@<TRIPOS>MOLECULE
B2J
   21    21     1     0     0
SMALL
bcc


@<TRIPOS>ATOM
      1 C1         -0.0200    0.0300    0.1590 c3        1 B2J     -0.093100
      2 C2          1.4630   -0.0070   -0.0710 c3        1 B2J     -0.038300
      3 S3          2.1940    0.0530    1.5400 ss        1 B2J     -0.194400
      4 C4          3.8930    0.0250    1.2760 ca        1 B2J      0.778300
      5 N5          4.3690   -0.0490   -0.0010 nb        1 B2J     -0.821000
      6 N6          4.6600    0.0770    2.4130 nb        1 B2J     -0.763000
      7 C7          6.0140    0.0450    2.2020 ca        1 B2J      0.714300
      8 C8          6.8990    0.0950    3.4250 c3        1 B2J     -0.140400
      9 N9          6.6240   -0.0260    0.9840 nb        1 B2J     -0.800000
     10 C10         5.7580   -0.0570   -0.1090 ca        1 B2J      0.913900
     11 N11         6.3130   -0.0570   -1.3780 nh        1 B2J     -0.945500
     12 H1         -0.5550   -0.0080   -0.8220 hc        1 B2J      0.049367
     13 H1A        -0.3210    0.9690    0.6860 hc        1 B2J      0.049367
     14 H1B        -0.3530   -0.8430    0.7730 hc        1 B2J      0.049367
     15 H2          1.7600   -0.9390   -0.6110 h1        1 B2J      0.078700
     16 H2A         1.7920    0.8600   -0.6930 h1        1 B2J      0.078700
     17 H8          6.6190   -0.7310    4.1230 hc        1 B2J      0.066033
     18 H8A         7.9770   -0.0090    3.1510 hc        1 B2J      0.066033
     19 H8B         6.7490    1.0740    3.9450 hc        1 B2J      0.066033
     20 HN11        5.7260   -0.2380   -2.1540 hn        1 B2J      0.442800
     21 HN1A        7.2860   -0.2150   -1.4700 hn        1 B2J      0.442800
@<TRIPOS>BOND
     1    1    2 1   
     2    1   12 1   
     3    1   13 1   
     4    1   14 1   
     5    2    3 1   
     6    2   15 1   
     7    2   16 1   
     8    3    4 1   
     9    4    5 ar  
    10    4    6 ar  
    11    5   10 ar  
    12    6    7 ar  
    13    7    8 1   
    14    7    9 ar  
    15    8   17 1   
    16    8   18 1   
    17    8   19 1   
    18    9   10 ar  
    19   10   11 1   
    20   11   20 1   
    21   11   21 1   
@<TRIPOS>SUBSTRUCTURE
     1 B2J         1 TEMP              0 ****  ****    0 ROOT
