@<TRIPOS>MOLECULE
B2J
   21    19     1     0     0
SMALL
bcc


@<TRIPOS>ATOM
      1 C1         -4.0630    1.0120   -0.3990 c3        1 B2J     -0.211000
      2 C2         -2.5630    1.0650   -0.2110 c3        1 B2J     -0.299000
      3 S3         -1.9240   -0.5830   -0.0780 ss        1 B2J      0.315000
      4 C4         -0.1520   -0.5310   -0.0550 c2        1 B2J     -0.075000
      5 N5          0.5330   -0.5140   -1.2080 n1        1 B2J     -0.295000
      6 N6          0.5050   -0.5690    1.1140 n2        1 B2J     -0.237000
      7 C7          1.8460   -0.5890    1.1300 c1        1 B2J      0.094000
      8 C8          2.5860   -0.6670    2.4470 c2        1 B2J     -0.164000
      9 N9          2.5300   -0.5720   -0.0240 n2        1 B2J     -0.274000
     10 C10         1.8740   -0.5340   -1.1930 c1        1 B2J      0.195000
     11 N11         2.5980   -0.5200   -2.4130 n3        1 B2J     -0.343000
     12 H1         -4.3980    1.9090   -0.6060 hc        1 B2J      0.088667
     13 H1A        -4.2780    0.4050   -1.1380 hc        1 B2J      0.088667
     14 H1B        -4.4840    0.6870    0.4240 hc        1 B2J      0.088667
     15 H2         -2.1530    1.5120   -0.9790 h1        1 B2J      0.118000
     16 H2A        -2.3540    1.5630    0.6050 h1        1 B2J      0.118000
     17 H8          1.9540   -0.5370    3.1850 ha        1 B2J      0.105333
     18 H8A         3.0100   -1.5470    2.5320 ha        1 B2J      0.105333
     19 H8B         3.2720    0.0310    2.4780 ha        1 B2J      0.105333
     20 HN11        3.4860   -0.7370   -2.4200 hn        1 B2J      0.238000
     21 HN1A        2.1790   -0.2830   -3.1900 hn        1 B2J      0.238000
@<TRIPOS>BOND
     1    1    2 1   
     2    1   12 1   
     3    1   13 1   
     4    1   14 1   
     5    2    3 1   
     6    2   15 1   
     7    2   16 1   
     8    3    4 1   
     9    4    5 1   
    10    4    6 1   
    11    6    7 1   
    12    7    9 1   
    13    8   17 1   
    14    8   18 1   
    15    8   19 1   
    16    9   10 1   
    17   10   11 1   
    18   11   20 1   
    19   11   21 1   
@<TRIPOS>SUBSTRUCTURE
     1 B2J         1 TEMP              0 ****  ****    0 ROOT
