@<TRIPOS>MOLECULE
B2J
   22    22     1     0     0
SMALL
bcc


@<TRIPOS>ATOM
      1 C1         -0.0280    0.0100    0.1900 c3        1 B2J     -0.106100
      2 C2          1.4500    0.0010   -0.0900 c3        1 B2J     -0.071300
      3 S3          2.1950    0.0230    1.5080 ss        1 B2J     -0.001400
      4 C4          3.8600    0.0150    1.2670 ca        1 B2J      0.744300
      5 N5          4.3850   -0.0060   -0.0140 nb        1 B2J     -0.774000
      6 N6          4.6360    0.0290    2.4140 nb        1 B2J     -0.681000
      7 C7          5.9810    0.0230    2.2480 ca        1 B2J      0.747300
      8 C8          6.8750    0.0380    3.4600 c3        1 B2J     -0.154400
      9 N9          6.6140    0.0020    1.0050 nb        1 B2J     -0.746000
     10 C10         5.7530   -0.0110   -0.0470 ca        1 B2J      0.763900
     11 N11         6.3790   -0.0340   -1.4090 n4        1 B2J     -0.826300
     12 H1         -0.3270    0.9280    0.7530 hc        1 B2J      0.069033
     13 H1A        -0.3330   -0.8890    0.7800 hc        1 B2J      0.069033
     14 H1B        -0.5900   -0.0030   -0.7780 hc        1 B2J      0.069033
     15 H2          1.7440    0.8940   -0.6950 h1        1 B2J      0.087700
     16 H2A         1.7390   -0.9110   -0.6670 h1        1 B2J      0.087700
     17 H8          7.5230   -0.8740    3.4570 hc        1 B2J      0.093367
     18 H8A         7.5290    0.9470    3.4290 hc        1 B2J      0.093367
     19 H8B         6.2720    0.0550    4.4020 hc        1 B2J      0.093367
     20 HN11        6.0710   -0.8790   -1.9040 hn        1 B2J      0.481467
     21 HN1A        6.0760    0.7980   -1.9300 hn        1 B2J      0.481467
     22 H113        7.4040   -0.0350   -1.3240 hn        1 B2J      0.481467
@<TRIPOS>BOND
     1    1    2 1   
     2    1   12 1   
     3    1   13 1   
     4    1   14 1   
     5    2    3 1   
     6    2   15 1   
     7    2   16 1   
     8    3    4 1   
     9    4    5 ar  
    10    4    6 ar  
    11    5   10 ar  
    12    6    7 ar  
    13    7    8 1   
    14    7    9 ar  
    15    8   17 1   
    16    8   18 1   
    17    8   19 1   
    18    9   10 ar  
    19   10   11 1   
    20   11   20 1   
    21   11   21 1   
    22   11   22 1   
@<TRIPOS>SUBSTRUCTURE
     1 B2J         1 TEMP              0 ****  ****    0 ROOT
