@<TRIPOS>MOLECULE
B2J
   21    21     1     0     0
SMALL
bcc


@<TRIPOS>ATOM
      1 C1         -0.0190   -0.1640    0.1670 c3        1 B2J     -0.093100
      2 C2          1.4620   -0.0810   -0.0660 c3        1 B2J     -0.038300
      3 S3          2.1970   -0.1000    1.5430 ss        1 B2J     -0.194400
      4 C4          3.8930   -0.0200    1.2760 ca        1 B2J      0.778300
      5 N5          4.3650    0.0560   -0.0020 nb        1 B2J     -0.821000
      6 N6          4.6630   -0.0350    2.4120 nb        1 B2J     -0.763000
      7 C7          6.0160    0.0380    2.1990 ca        1 B2J      0.714300
      8 C8          6.9040    0.0310    3.4200 c3        1 B2J     -0.140400
      9 N9          6.6220    0.1160    0.9790 nb        1 B2J     -0.800000
     10 C10         5.7530    0.1080   -0.1130 ca        1 B2J      0.913900
     11 N11         6.3060    0.1110   -1.3830 nv        1 B2J     -0.945500
     12 H1         -0.3790    0.7050    0.7710 hc        1 B2J      0.049367
     13 H1A        -0.5560   -0.1540   -0.8140 hc        1 B2J      0.049367
     14 H1B        -0.2880   -1.1060    0.7040 hc        1 B2J      0.049367
     15 H2          1.8190   -0.9440   -0.6800 h1        1 B2J      0.078700
     16 H2A         1.7280    0.8540   -0.6170 h1        1 B2J      0.078700
     17 H8          6.6080    0.8660    4.1020 hc        1 B2J      0.066033
     18 H8A         7.9790    0.1520    3.1430 hc        1 B2J      0.066033
     19 H8B         6.7750   -0.9390    3.9610 hc        1 B2J      0.066033
     20 HN11        7.2740    0.3000   -1.4780 hn        1 B2J      0.442800
     21 HN1A        5.7120    0.2650   -2.1600 hn        1 B2J      0.442800
@<TRIPOS>BOND
     1    1    2 1   
     2    1   12 1   
     3    1   13 1   
     4    1   14 1   
     5    2    3 1   
     6    2   15 1   
     7    2   16 1   
     8    3    4 1   
     9    4    5 ar  
    10    4    6 ar  
    11    5   10 ar  
    12    6    7 ar  
    13    7    8 1   
    14    7    9 ar  
    15    8   17 1   
    16    8   18 1   
    17    8   19 1   
    18    9   10 ar  
    19   10   11 1   
    20   11   20 1   
    21   11   21 1   
@<TRIPOS>SUBSTRUCTURE
     1 B2J         1 TEMP              0 ****  ****    0 ROOT
