@<TRIPOS>MOLECULE
B2J
   21    21     1     0     0
SMALL
bcc


@<TRIPOS>ATOM
      1 C1          4.2150    0.1160    0.0340 c3        1 B2J     -0.093100
      2 C2          2.7980    0.6120    0.0100 c3        1 B2J     -0.038300
      3 S3          1.7870   -0.8410    0.0190 ss        1 B2J     -0.194400
      4 C4          0.1650   -0.2720    0.0060 ca        1 B2J      0.778300
      5 N5         -0.0720    1.0710   -0.0230 nb        1 B2J     -0.821000
      6 N6         -0.7960   -1.2520    0.0230 nb        1 B2J     -0.763000
      7 C7         -2.0900   -0.7980    0.0040 ca        1 B2J      0.714300
      8 C8         -3.1830   -1.8410    0.0140 c3        1 B2J     -0.140400
      9 N9         -2.4690    0.5120   -0.0250 nb        1 B2J     -0.800000
     10 C10        -1.4190    1.4300   -0.0230 ca        1 B2J      0.913900
     11 N11        -1.7340    2.7780    0.0220 nh        1 B2J     -0.945500
     12 H1          4.9190    0.9840    0.0280 hc        1 B2J      0.049367
     13 H1A         4.4130   -0.4880    0.9540 hc        1 B2J      0.049367
     14 H1B         4.4330   -0.5190   -0.8600 hc        1 B2J      0.049367
     15 H2          2.5850    1.2540    0.8990 h1        1 B2J      0.078700
     16 H2A         2.6070    1.2280   -0.9020 h1        1 B2J      0.078700
     17 H8         -3.1150   -2.4330    0.9600 hc        1 B2J      0.066033
     18 H8A        -4.1940   -1.3720   -0.0490 hc        1 B2J      0.066033
     19 H8B        -3.0460   -2.5320   -0.8540 hc        1 B2J      0.066033
     20 HN11       -1.0150    3.4410   -0.1350 hn        1 B2J      0.442800
     21 HN1A       -2.6740    3.0500   -0.1290 hn        1 B2J      0.442800
@<TRIPOS>BOND
     1    1    2 1   
     2    1   12 1   
     3    1   13 1   
     4    1   14 1   
     5    2    3 1   
     6    2   15 1   
     7    2   16 1   
     8    3    4 1   
     9    4    5 ar  
    10    4    6 ar  
    11    5   10 ar  
    12    6    7 ar  
    13    7    8 1   
    14    7    9 ar  
    15    8   17 1   
    16    8   18 1   
    17    8   19 1   
    18    9   10 ar  
    19   10   11 1   
    20   11   20 1   
    21   11   21 1   
@<TRIPOS>SUBSTRUCTURE
     1 B2J         1 TEMP              0 ****  ****    0 ROOT
