@<TRIPOS>MOLECULE
B2K
   31    32     1     0     0
SMALL
bcc


@<TRIPOS>ATOM
      1 C1          0.0780    0.0030   -0.0540 ca        1 B2K      0.002000
      2 C2          1.4540   -0.0280    0.1310 ca        1 B2K     -0.164000
      3 C3          1.9920   -0.0680    1.4250 ca        1 B2K     -0.001300
      4 C4          3.4580   -0.0880    1.6260 c3        1 B2K     -0.069800
      5 C5          1.1250   -0.0750    2.5240 ca        1 B2K     -0.164000
      6 C6         -0.2520   -0.0440    2.3310 ca        1 B2K      0.002000
      7 C7         -0.8000   -0.0060    1.0410 ca        1 B2K     -0.401500
      8 S8         -2.4450    0.0590    0.8160 sy        1 B2K      1.361200
      9 O9         -3.0730    0.7720    1.8370 o         1 B2K     -0.646300
     10 O10        -2.7430    0.4380   -0.5020 o         1 B2K     -0.646300
     11 C11        -2.8490   -1.6300    0.9560 ca        1 B2K      0.243200
     12 N12        -2.6280   -2.2340    2.1430 nb        1 B2K     -0.693000
     13 C13        -3.4090   -2.3010   -0.1370 ca        1 B2K     -0.337600
     14 C14        -3.7620   -3.6650    0.0390 ca        1 B2K      0.477600
     15 C15        -4.3740   -4.3870   -1.1190 c3        1 B2K     -0.159400
     16 N16        -3.5670   -4.3090    1.2020 nb        1 B2K     -0.721000
     17 C17        -2.9810   -3.5720    2.2320 ca        1 B2K      0.859900
     18 N18        -2.6680   -4.2540    3.4150 nh        1 B2K     -0.920500
     19 H1         -0.3390    0.0470   -1.0760 ha        1 B2K      0.157500
     20 H2          2.1260   -0.0200   -0.7400 ha        1 B2K      0.142000
     21 H4          3.7270   -0.6280    2.5670 hc        1 B2K      0.054033
     22 H4A         3.8420    0.9620    1.7030 hc        1 B2K      0.054033
     23 H4B         3.9750   -0.5870    0.7700 hc        1 B2K      0.054033
     24 H5          1.5340   -0.1060    3.5450 ha        1 B2K      0.142000
     25 H6         -0.9310   -0.0460    3.2030 ha        1 B2K      0.157500
     26 H13        -3.5810   -1.7900   -1.0950 ha        1 B2K      0.180000
     27 H15        -5.2620   -3.8130   -1.4820 hc        1 B2K      0.062700
     28 H15A       -3.6230   -4.4470   -1.9460 hc        1 B2K      0.062700
     29 H15B       -4.6990   -5.4230   -0.8550 hc        1 B2K      0.062700
     30 HN18       -3.1460   -5.1130    3.5660 hn        1 B2K      0.425800
     31 HN1A       -2.5230   -3.6910    4.2210 hn        1 B2K      0.425800
@<TRIPOS>BOND
     1    1    2 ar  
     2    1    7 ar  
     3    1   19 1   
     4    2    3 ar  
     5    2   20 1   
     6    3    4 1   
     7    3    5 ar  
     8    4   21 1   
     9    4   22 1   
    10    4   23 1   
    11    5    6 ar  
    12    5   24 1   
    13    6    7 ar  
    14    6   25 1   
    15    7    8 1   
    16    8    9 2   
    17    8   10 2   
    18    8   11 1   
    19   11   12 ar  
    20   11   13 ar  
    21   12   17 ar  
    22   13   14 ar  
    23   13   26 1   
    24   14   15 1   
    25   14   16 ar  
    26   15   27 1   
    27   15   28 1   
    28   15   29 1   
    29   16   17 ar  
    30   17   18 1   
    31   18   30 1   
    32   18   31 1   
@<TRIPOS>SUBSTRUCTURE
     1 B2K         1 TEMP              0 ****  ****    0 ROOT
