@<TRIPOS>MOLECULE
B2K
   31    32     1     0     0
SMALL
bcc


@<TRIPOS>ATOM
      1 C1          0.0720    0.0040   -0.0570 ca        1 B2K      0.002000
      2 C2          1.4490   -0.0230    0.1270 ca        1 B2K     -0.164000
      3 C3          1.9870   -0.0590    1.4210 ca        1 B2K     -0.001300
      4 C4          3.4540   -0.0740    1.6200 c3        1 B2K     -0.069800
      5 C5          1.1210   -0.0650    2.5200 ca        1 B2K     -0.164000
      6 C6         -0.2570   -0.0380    2.3270 ca        1 B2K      0.002000
      7 C7         -0.8050   -0.0040    1.0370 ca        1 B2K     -0.401500
      8 S8         -2.4500    0.0560    0.8130 sy        1 B2K      1.361200
      9 O9         -3.0800    0.7690    1.8330 o         1 B2K     -0.645800
     10 O10        -2.7500    0.4320   -0.5050 o         1 B2K     -0.645800
     11 C11        -2.8500   -1.6340    0.9580 ca        1 B2K      0.243200
     12 N12        -2.6270   -2.2350    2.1450 nb        1 B2K     -0.693000
     13 C13        -3.4090   -2.3080   -0.1340 ca        1 B2K     -0.337600
     14 C14        -3.7590   -3.6730    0.0440 ca        1 B2K      0.477600
     15 C15        -4.3640   -4.4020   -1.1120 c3        1 B2K     -0.159400
     16 N16        -3.5610   -4.3140    1.2090 nb        1 B2K     -0.721000
     17 C17        -2.9760   -3.5740    2.2380 ca        1 B2K      0.859900
     18 N18        -2.6620   -4.2520    3.4220 nv        1 B2K     -0.920500
     19 H1         -0.3450    0.0440   -1.0800 ha        1 B2K      0.157500
     20 H2          2.1200   -0.0150   -0.7450 ha        1 B2K      0.142000
     21 H4          3.8390    0.9760    1.6670 hc        1 B2K      0.054033
     22 H4A         3.7240   -0.5890    2.5750 hc        1 B2K      0.054033
     23 H4B         3.9680   -0.5970    0.7760 hc        1 B2K      0.054033
     24 H5          1.5310   -0.0920    3.5410 ha        1 B2K      0.142000
     25 H6         -0.9350   -0.0400    3.1990 ha        1 B2K      0.157500
     26 H13        -3.5830   -1.7990   -1.0930 ha        1 B2K      0.180000
     27 H15        -3.5680   -4.5920   -1.8760 hc        1 B2K      0.062700
     28 H15A       -5.1610   -3.7680   -1.5730 hc        1 B2K      0.062700
     29 H15B       -4.8110   -5.3810   -0.8130 hc        1 B2K      0.062700
     30 HN18       -2.5180   -3.6870    4.2270 hn        1 B2K      0.425800
     31 HN1A       -3.1380   -5.1120    3.5750 hn        1 B2K      0.425800
@<TRIPOS>BOND
     1    1    2 ar  
     2    1    7 ar  
     3    1   19 1   
     4    2    3 ar  
     5    2   20 1   
     6    3    4 1   
     7    3    5 ar  
     8    4   21 1   
     9    4   22 1   
    10    4   23 1   
    11    5    6 ar  
    12    5   24 1   
    13    6    7 ar  
    14    6   25 1   
    15    7    8 1   
    16    8    9 2   
    17    8   10 2   
    18    8   11 1   
    19   11   12 ar  
    20   11   13 ar  
    21   12   17 ar  
    22   13   14 ar  
    23   13   26 1   
    24   14   15 1   
    25   14   16 ar  
    26   15   27 1   
    27   15   28 1   
    28   15   29 1   
    29   16   17 ar  
    30   17   18 1   
    31   18   30 1   
    32   18   31 1   
@<TRIPOS>SUBSTRUCTURE
     1 B2K         1 TEMP              0 ****  ****    0 ROOT
