@<TRIPOS>MOLECULE
B2K
   32    33     1     0     0
SMALL
bcc


@<TRIPOS>ATOM
      1 C1          0.0540   -0.1410   -0.0170 ca        1 B2K      0.003500
      2 C2          1.4320   -0.1750    0.1400 ca        1 B2K     -0.162500
      3 C3          2.0020   -0.0730    1.4180 ca        1 B2K      0.030700
      4 C4          3.4720   -0.0800    1.5840 c3        1 B2K     -0.082800
      5 C5          1.1590    0.0590    2.5310 ca        1 B2K     -0.162500
      6 C6         -0.2190    0.0910    2.3660 ca        1 B2K      0.003500
      7 C7         -0.8030   -0.0120    1.0910 ca        1 B2K     -0.464500
      8 S8         -2.4220    0.1040    0.8970 sy        1 B2K      1.373200
      9 O9         -3.0580    0.7130    1.9680 o         1 B2K     -0.620300
     10 O10        -2.7780    0.4500   -0.4040 o         1 B2K     -0.620300
     11 C11        -2.8700   -1.6430    0.9870 ca        1 B2K      0.272200
     12 N12        -2.7470   -2.2700    2.1790 nb        1 B2K     -0.602000
     13 C13        -3.3810   -2.2950   -0.1450 ca        1 B2K     -0.231600
     14 C14        -3.7790   -3.6560   -0.0240 ca        1 B2K      0.484600
     15 C15        -4.3280   -4.3600   -1.2190 c3        1 B2K     -0.174400
     16 N16        -3.6790   -4.3090    1.1580 nb        1 B2K     -0.662000
     17 C17        -3.1700   -3.5680    2.1980 ca        1 B2K      0.676900
     18 N18        -3.0800   -4.2760    3.5110 n4        1 B2K     -0.813300
     19 H1         -0.3820   -0.1920   -1.0320 ha        1 B2K      0.157500
     20 H2          2.0850   -0.2690   -0.7430 ha        1 B2K      0.157000
     21 H4          3.9620   -0.7210    0.8090 hc        1 B2K      0.067700
     22 H4A         3.7640   -0.4560    2.5960 hc        1 B2K      0.067700
     23 H4B         3.8650    0.9640    1.4730 hc        1 B2K      0.067700
     24 H5          1.5950    0.1530    3.5380 ha        1 B2K      0.157000
     25 H6         -0.8740    0.2210    3.2470 ha        1 B2K      0.157500
     26 H13        -3.4850   -1.7600   -1.1070 ha        1 B2K      0.216000
     27 H15        -5.3530   -3.9600   -1.4360 hc        1 B2K      0.088367
     28 H15A       -3.6710   -4.1590   -2.1020 hc        1 B2K      0.088367
     29 H15B       -4.4040   -5.4660   -1.0710 hc        1 B2K      0.088367
     30 HN18       -2.4610   -5.0900    3.4130 hn        1 B2K      0.479467
     31 HN1A       -2.7070   -3.6410    4.2280 hn        1 B2K      0.479467
     32 H183       -4.0190   -4.5920    3.7840 hn        1 B2K      0.479467
@<TRIPOS>BOND
     1    1    2 ar  
     2    1    7 ar  
     3    1   19 1   
     4    2    3 ar  
     5    2   20 1   
     6    3    4 1   
     7    3    5 ar  
     8    4   21 1   
     9    4   22 1   
    10    4   23 1   
    11    5    6 ar  
    12    5   24 1   
    13    6    7 ar  
    14    6   25 1   
    15    7    8 1   
    16    8    9 2   
    17    8   10 2   
    18    8   11 1   
    19   11   12 ar  
    20   11   13 ar  
    21   12   17 ar  
    22   13   14 ar  
    23   13   26 1   
    24   14   15 1   
    25   14   16 ar  
    26   15   27 1   
    27   15   28 1   
    28   15   29 1   
    29   16   17 ar  
    30   17   18 1   
    31   18   30 1   
    32   18   31 1   
    33   18   32 1   
@<TRIPOS>SUBSTRUCTURE
     1 B2K         1 TEMP              0 ****  ****    0 ROOT
