@<TRIPOS>MOLECULE
B2K
   31    32     1     0     0
SMALL
bcc


@<TRIPOS>ATOM
      1 C1         -2.1990    0.2810   -1.2390 ca        1 B2K      0.002000
      2 C2         -3.2980    1.0380   -0.8520 ca        1 B2K     -0.164000
      3 C3         -3.7170    1.0420    0.4860 ca        1 B2K     -0.001300
      4 C4         -4.8950    1.8370    0.8990 c3        1 B2K     -0.069800
      5 C5         -3.0150    0.2730    1.4220 ca        1 B2K     -0.164000
      6 C6         -1.9150   -0.4810    1.0270 ca        1 B2K      0.002000
      7 C7         -1.4870   -0.4900   -0.3080 ca        1 B2K     -0.401500
      8 S8         -0.1900   -1.4150   -0.7800 sy        1 B2K      1.361200
      9 O9         -0.1030   -2.5920   -0.0360 o         1 B2K     -0.645800
     10 O10        -0.1650   -1.5420   -2.1780 o         1 B2K     -0.645800
     11 C11         1.1250   -0.3580   -0.3480 ca        1 B2K      0.243200
     12 N12         1.2940   -0.0640    0.9580 nb        1 B2K     -0.693000
     13 C13         1.9770    0.1310   -1.3450 ca        1 B2K     -0.337600
     14 C14         3.0610    0.9540   -0.9400 ca        1 B2K      0.477600
     15 C15         3.9810    1.4780   -1.9950 c3        1 B2K     -0.159400
     16 N16         3.2730    1.2690    0.3490 nb        1 B2K     -0.721000
     17 C17         2.3630    0.7600    1.2750 ca        1 B2K      0.859900
     18 N18         2.5030    1.1670    2.6080 nh        1 B2K     -0.920500
     19 H1         -1.8820    0.2740   -2.2970 ha        1 B2K      0.157500
     20 H2         -3.8440    1.6370   -1.5970 ha        1 B2K      0.142000
     21 H4         -5.8240    1.2220    0.7830 hc        1 B2K      0.054033
     22 H4A        -4.8140    2.1500    1.9690 hc        1 B2K      0.054033
     23 H4B        -5.0020    2.7530    0.2670 hc        1 B2K      0.054033
     24 H5         -3.3340    0.2670    2.4750 ha        1 B2K      0.142000
     25 H6         -1.3680   -1.0890    1.7700 ha        1 B2K      0.157500
     26 H13         1.8210   -0.1210   -2.4040 ha        1 B2K      0.180000
     27 H15         3.4680    2.3070   -2.5430 hc        1 B2K      0.062367
     28 H15A        4.9370    1.8700   -1.5700 hc        1 B2K      0.062367
     29 H15B        4.2180    0.6600   -2.7200 hc        1 B2K      0.062367
     30 HN18        2.0530    0.6010    3.2900 hn        1 B2K      0.425800
     31 HN1A        3.3930    1.5300    2.8650 hn        1 B2K      0.425800
@<TRIPOS>BOND
     1    1    2 ar  
     2    1    7 ar  
     3    1   19 1   
     4    2    3 ar  
     5    2   20 1   
     6    3    4 1   
     7    3    5 ar  
     8    4   21 1   
     9    4   22 1   
    10    4   23 1   
    11    5    6 ar  
    12    5   24 1   
    13    6    7 ar  
    14    6   25 1   
    15    7    8 1   
    16    8    9 2   
    17    8   10 2   
    18    8   11 1   
    19   11   12 ar  
    20   11   13 ar  
    21   12   17 ar  
    22   13   14 ar  
    23   13   26 1   
    24   14   15 1   
    25   14   16 ar  
    26   15   27 1   
    27   15   28 1   
    28   15   29 1   
    29   16   17 ar  
    30   17   18 1   
    31   18   30 1   
    32   18   31 1   
@<TRIPOS>SUBSTRUCTURE
     1 B2K         1 TEMP              0 ****  ****    0 ROOT
