@<TRIPOS>MOLECULE
B2K
   31    26     1     0     0
SMALL
bcc


@<TRIPOS>ATOM
      1 C1          1.5640    1.9940   -0.5740 c1        1 B2K     -0.008000
      2 C2          2.9470    1.9790   -0.4880 c1        1 B2K     -0.164000
      3 C3          3.5690    1.3350    0.5690 c1        1 B2K      0.006000
      4 C4          5.0810    1.2910    0.6460 c2        1 B2K     -0.195000
      5 C5          2.8080    0.7050    1.5410 c2        1 B2K     -0.164000
      6 C6          1.4250    0.7200    1.4560 c1        1 B2K      0.012000
      7 C7          0.8030    1.3650    0.3980 c1        1 B2K     -0.846000
      8 S8         -0.9690    1.4750    0.3460 s4        1 B2K      2.097800
      9 O9         -1.4960    1.9810    1.5830 o         1 B2K     -0.533400
     10 O10        -1.4010    2.4890   -0.5760 o         1 B2K     -0.533400
     11 C11        -1.6720   -0.1040   -0.0570 c1        1 B2K     -0.602000
     12 N12        -1.2180   -1.2130    0.5470 n2        1 B2K     -0.167000
     13 C13        -2.7280   -0.1800   -0.9180 c1        1 B2K     -0.207000
     14 C14        -3.3220   -1.3860   -1.1640 c1        1 B2K      0.055000
     15 C15        -4.5340   -1.4610   -2.0670 c3        1 B2K     -0.183000
     16 N16        -2.8660   -2.4930   -0.5590 n1        1 B2K     -0.195000
     17 C17        -1.8120   -2.4150    0.3010 c1        1 B2K      0.141000
     18 N18        -1.3270   -3.5880    0.9360 n3        1 B2K     -0.318000
     19 H1          1.1260    2.4480   -1.3190 ha        1 B2K      0.156000
     20 H2          3.4830    2.4220   -1.1730 ha        1 B2K      0.142000
     21 H4          5.3660    0.4160    0.9840 ha        1 B2K      0.093333
     22 H4A         5.4570    1.4340   -0.2470 ha        1 B2K      0.093333
     23 H4B         5.3980    1.9950    1.2510 ha        1 B2K      0.093333
     24 H5          3.2460    0.2520    2.2850 ha        1 B2K      0.142000
     25 H6          0.8900    0.2770    2.1390 ha        1 B2K      0.159000
     26 H13        -3.0720    0.6290   -1.3410 ha        1 B2K      0.180000
     27 H15        -4.7410   -2.4000   -2.2580 hc        1 B2K      0.101667
     28 H15A       -4.3470   -0.9900   -2.9050 hc        1 B2K      0.101667
     29 H15B       -5.3000   -1.0420   -1.6210 hc        1 B2K      0.101667
     30 HN18       -1.0270   -3.5500    1.7990 hn        1 B2K      0.221000
     31 HN1A       -1.3300   -4.3860    0.4880 hn        1 B2K      0.221000
@<TRIPOS>BOND
     1    1    7 1   
     2    1   19 1   
     3    2    3 1   
     4    2   20 1   
     5    3    5 1   
     6    4   21 1   
     7    4   22 1   
     8    4   23 1   
     9    5    6 1   
    10    5   24 1   
    11    6   25 1   
    12    7    8 1   
    13    8    9 1   
    14    8   10 1   
    15   11   12 1   
    16   11   13 1   
    17   12   17 1   
    18   13   26 1   
    19   14   15 1   
    20   14   16 1   
    21   15   27 1   
    22   15   28 1   
    23   15   29 1   
    24   17   18 1   
    25   18   30 1   
    26   18   31 1   
@<TRIPOS>SUBSTRUCTURE
     1 B2K         1 TEMP              0 ****  ****    0 ROOT
