@<TRIPOS>MOLECULE
B2L
   36    34     1     0     0
SMALL
bcc


@<TRIPOS>ATOM
      1 C1          1.8380   -0.0570   -3.8800 c3        1 B2L      0.011500
      2 O2          3.2490   -0.0490   -3.8380 os        1 B2L     -0.261000
      3 C3          3.9210   -0.3310   -2.6290 c3        1 B2L      0.011500
      4 C4          3.1500   -0.2160   -1.3090 c2        1 B2L     -0.086500
      5 C5          3.8340   -0.1930   -0.1100 c2        1 B2L     -0.123000
      6 C6          3.1220   -0.1290    1.1080 c1        1 B2L     -0.103000
      7 C7          1.7140   -0.0900    1.0950 c1        1 B2L     -0.121000
      8 C8          1.0170   -0.1150   -0.1410 c1        1 B2L     -0.009000
      9 C9          1.7220   -0.0960   -1.3240 c1        1 B2L     -0.026000
     10 C10         1.0410   -0.0770   -2.5350 c2        1 B2L     -0.086500
     11 C11        -0.3690   -0.0750   -2.5560 c2        1 B2L     -0.123000
     12 C12        -1.0810   -0.0920   -1.3610 c1        1 B2L     -0.103000
     13 C13        -0.4060   -0.1120   -0.1580 c1        1 B2L     -0.035000
     14 C14        -1.4440   -0.1240    0.9390 c2        1 B2L      0.094000
     15 N15        -1.9420   -1.2880    1.3720 n2        1 B2L     -0.219000
     16 C16        -1.9590    1.0470    1.4000 c1        1 B2L     -0.285000
     17 C17        -2.9900    1.0300    2.3100 c1        1 B2L      0.059000
     18 C18        -3.5470    2.3720    2.8870 c3        1 B2L     -0.179000
     19 N19        -3.4820   -0.1340    2.7390 n1        1 B2L     -0.228000
     20 C20        -2.9690   -1.2990    2.2790 c1        1 B2L      0.149000
     21 N21        -3.4800   -2.5210    2.7480 n3        1 B2L     -0.322000
     22 H1          1.5420   -0.9070   -4.4320 h1        1 B2L      0.099500
     23 H1A         1.5520    0.7450   -4.3840 h1        1 B2L      0.099500
     24 H3          4.7300    0.2990   -2.5720 h1        1 B2L      0.099500
     25 H3A         4.2600   -1.2450   -2.6890 h1        1 B2L      0.099500
     26 H5          4.8300   -0.2210   -0.1050 ha        1 B2L      0.136500
     27 H6          3.6240    0.0150    1.9790 ha        1 B2L      0.141000
     28 H7          1.2240   -0.0440    1.9230 ha        1 B2L      0.142000
     29 H11        -0.8310   -0.0620   -3.3840 ha        1 B2L      0.136500
     30 H12        -2.0450   -0.0060   -1.3720 ha        1 B2L      0.141000
     31 H16        -1.5940    1.8630    1.1200 ha        1 B2L      0.160000
     32 H18        -3.9240    2.9210    2.1450 hc        1 B2L      0.097667
     33 H18A       -4.2470    2.1790    3.5360 hc        1 B2L      0.097667
     34 H18B       -2.8060    2.8770    3.3340 hc        1 B2L      0.097667
     35 HN21       -2.9320   -3.3130    2.7250 hn        1 B2L      0.220500
     36 HN2A       -4.3230   -2.5510    3.1390 hn        1 B2L      0.220500
@<TRIPOS>BOND
     1    1    2 1   
     2    1   10 1   
     3    1   22 1   
     4    1   23 1   
     5    2    3 1   
     6    3    4 1   
     7    3   24 1   
     8    3   25 1   
     9    4    5 1   
    10    4    9 1   
    11    5    6 1   
    12    5   26 1   
    13    6   27 1   
    14    7    8 1   
    15    7   28 1   
    16    8   13 1   
    17    9   10 1   
    18   10   11 1   
    19   11   12 1   
    20   11   29 1   
    21   12   30 1   
    22   13   14 1   
    23   14   15 1   
    24   14   16 1   
    25   15   20 1   
    26   16   31 1   
    27   17   18 1   
    28   17   19 1   
    29   18   32 1   
    30   18   33 1   
    31   18   34 1   
    32   20   21 1   
    33   21   35 1   
    34   21   36 1   
@<TRIPOS>SUBSTRUCTURE
     1 B2L         1 TEMP              0 ****  ****    0 ROOT
