@<TRIPOS>MOLECULE
B2L
   37    40     1     0     0
SMALL
bcc


@<TRIPOS>ATOM
      1 C1         -0.1600    0.3500    0.5250 c3        1 B2L      0.156700
      2 O2          1.0990    0.1660   -0.1050 os        1 B2L     -0.390600
      3 C3          2.1110   -0.3300    0.7620 c3        1 B2L      0.159700
      4 C4          1.7070   -1.5870    1.4620 ca        1 B2L     -0.076300
      5 C5          2.6430   -2.4850    1.9230 ca        1 B2L     -0.119000
      6 C6          2.2280   -3.6500    2.6080 ca        1 B2L     -0.086000
      7 C7          0.8930   -3.9090    2.8070 ca        1 B2L     -0.157000
      8 C8         -0.1020   -3.0140    2.3290 ca        1 B2L      0.005000
      9 C9          0.3170   -1.8320    1.6660 ca        1 B2L     -0.035000
     10 C10        -0.6460   -0.8840    1.2130 ca        1 B2L     -0.041300
     11 C11        -1.9880   -1.1040    1.4320 ca        1 B2L     -0.145000
     12 C12        -2.4170   -2.2760    2.0880 ca        1 B2L     -0.051000
     13 C13        -1.5030   -3.2270    2.5060 cp        1 B2L     -0.207500
     14 C14        -1.9930   -4.4740    3.1150 cp        1 B2L      0.560800
     15 N15        -2.8460   -4.3970    4.1760 nb        1 B2L     -0.678000
     16 C16        -1.6060   -5.7270    2.5800 ca        1 B2L     -0.307600
     17 C17        -2.1150   -6.9090    3.1640 ca        1 B2L      0.485600
     18 C18        -1.7330   -8.2390    2.6070 c3        1 B2L     -0.170400
     19 N19        -2.9630   -6.8590    4.2290 nb        1 B2L     -0.685000
     20 C20        -3.2730   -5.6000    4.6640 ca        1 B2L      0.695900
     21 N21        -4.2020   -5.5300    5.8350 n4        1 B2L     -0.816300
     22 H1         -0.8420    0.6460   -0.3190 h1        1 B2L      0.075700
     23 H1A        -0.0910    1.1890    1.2720 h1        1 B2L      0.075700
     24 H3          2.9870   -0.5030    0.0780 h1        1 B2L      0.074200
     25 H3A         2.3730    0.4560    1.5240 h1        1 B2L      0.074200
     26 H5          3.7190   -2.3060    1.7660 ha        1 B2L      0.152000
     27 H6          2.9940   -4.3470    2.9820 ha        1 B2L      0.146000
     28 H7          0.5870   -4.8130    3.3540 ha        1 B2L      0.122000
     29 H11        -2.7400   -0.3740    1.0920 ha        1 B2L      0.154000
     30 H12        -3.4970   -2.4270    2.2430 ha        1 B2L      0.140000
     31 H16        -0.9230   -5.7700    1.7160 ha        1 B2L      0.200000
     32 H18        -0.9040   -8.1210    1.8670 hc        1 B2L      0.084367
     33 H18A       -1.3980   -8.9350    3.4180 hc        1 B2L      0.084367
     34 H18B       -2.6130   -8.7030    2.0910 hc        1 B2L      0.084367
     35 HN21       -3.7890   -6.0460    6.6220 hn        1 B2L      0.478800
     36 HN2A       -5.0980   -5.9600    5.5780 hn        1 B2L      0.478800
     37 H213       -4.3530   -4.5490    6.1050 hn        1 B2L      0.478800
@<TRIPOS>BOND
     1    1    2 1   
     2    1   10 1   
     3    1   22 1   
     4    1   23 1   
     5    2    3 1   
     6    3    4 1   
     7    3   24 1   
     8    3   25 1   
     9    4    5 ar  
    10    4    9 ar  
    11    5    6 ar  
    12    5   26 1   
    13    6    7 ar  
    14    6   27 1   
    15    7    8 ar  
    16    7   28 1   
    17    8    9 ar  
    18    8   13 ar  
    19    9   10 ar  
    20   10   11 ar  
    21   11   12 ar  
    22   11   29 1   
    23   12   13 ar  
    24   12   30 1   
    25   13   14 1   
    26   14   15 ar  
    27   14   16 ar  
    28   15   20 ar  
    29   16   17 ar  
    30   16   31 1   
    31   17   18 1   
    32   17   19 ar  
    33   18   32 1   
    34   18   33 1   
    35   18   34 1   
    36   19   20 ar  
    37   20   21 1   
    38   21   35 1   
    39   21   36 1   
    40   21   37 1   
@<TRIPOS>SUBSTRUCTURE
     1 B2L         1 TEMP              0 ****  ****    0 ROOT
