@<TRIPOS>MOLECULE
B2L
   36    39     1     0     0
SMALL
bcc


@<TRIPOS>ATOM
      1 C1         -0.1510    0.3170    0.4660 c3        1 B2L      0.168700
      2 O2          1.1660    0.1650   -0.0490 os        1 B2L     -0.404600
      3 C3          2.1080   -0.3120    0.9040 c3        1 B2L      0.169700
      4 C4          1.6710   -1.5670    1.5840 ca        1 B2L     -0.098300
      5 C5          2.5820   -2.4440    2.1280 ca        1 B2L     -0.120000
      6 C6          2.1340   -3.6100    2.7920 ca        1 B2L     -0.121000
      7 C7          0.7930   -3.8880    2.8920 ca        1 B2L     -0.121000
      8 C8         -0.1770   -3.0100    2.3320 ca        1 B2L     -0.009000
      9 C9          0.2740   -1.8340    1.6810 ca        1 B2L     -0.026000
     10 C10        -0.6670   -0.9160    1.1310 ca        1 B2L     -0.089300
     11 C11        -2.0150   -1.1640    1.2410 ca        1 B2L     -0.126000
     12 C12        -2.4740   -2.3310    1.8920 ca        1 B2L     -0.085000
     13 C13        -1.5820   -3.2470    2.4130 cp        1 B2L     -0.142500
     14 C14        -2.1000   -4.4810    3.0430 cp        1 B2L      0.529800
     15 N15        -2.9450   -4.3610    4.0900 nb        1 B2L     -0.745000
     16 C16        -1.7210   -5.7350    2.5170 ca        1 B2L     -0.415600
     17 C17        -2.2480   -6.8890    3.1330 ca        1 B2L      0.481600
     18 C18        -1.8650   -8.2330    2.5990 c3        1 B2L     -0.155400
     19 N19        -3.0910   -6.8220    4.1870 nb        1 B2L     -0.754000
     20 C20        -3.4340   -5.5490    4.6230 ca        1 B2L      0.867900
     21 N21        -4.3960   -5.4510    5.6360 nh        1 B2L     -0.924500
     22 H1         -0.7620    0.5810   -0.4400 h1        1 B2L      0.060700
     23 H1A        -0.1680    1.1730    1.1970 h1        1 B2L      0.060700
     24 H3          3.0400   -0.4770    0.2970 h1        1 B2L      0.059700
     25 H3A         2.2930    0.4870    1.6750 h1        1 B2L      0.059700
     26 H5          3.6620   -2.2480    2.0540 ha        1 B2L      0.135000
     27 H6          2.8790   -4.2920    3.2280 ha        1 B2L      0.134000
     28 H7          0.4470   -4.7950    3.4120 ha        1 B2L      0.142000
     29 H11        -2.7520   -0.4610    0.8240 ha        1 B2L      0.138000
     30 H12        -3.5590   -2.5020    1.9760 ha        1 B2L      0.148000
     31 H16        -1.0420   -5.8030    1.6600 ha        1 B2L      0.160000
     32 H18        -1.0080   -8.1340    1.8890 hc        1 B2L      0.058700
     33 H18A       -1.5710   -8.9260    3.4260 hc        1 B2L      0.058700
     34 H18B       -2.7330   -8.6830    2.0560 hc        1 B2L      0.058700
     35 HN21       -4.5430   -6.2660    6.1850 hn        1 B2L      0.425300
     36 HN2A       -4.4400   -4.5840    6.1210 hn        1 B2L      0.425300
@<TRIPOS>BOND
     1    1    2 1   
     2    1   10 1   
     3    1   22 1   
     4    1   23 1   
     5    2    3 1   
     6    3    4 1   
     7    3   24 1   
     8    3   25 1   
     9    4    5 ar  
    10    4    9 ar  
    11    5    6 ar  
    12    5   26 1   
    13    6    7 ar  
    14    6   27 1   
    15    7    8 ar  
    16    7   28 1   
    17    8    9 ar  
    18    8   13 ar  
    19    9   10 ar  
    20   10   11 ar  
    21   11   12 ar  
    22   11   29 1   
    23   12   13 ar  
    24   12   30 1   
    25   13   14 1   
    26   14   15 ar  
    27   14   16 ar  
    28   15   20 ar  
    29   16   17 ar  
    30   16   31 1   
    31   17   18 1   
    32   17   19 ar  
    33   18   32 1   
    34   18   33 1   
    35   18   34 1   
    36   19   20 ar  
    37   20   21 1   
    38   21   35 1   
    39   21   36 1   
@<TRIPOS>SUBSTRUCTURE
     1 B2L         1 TEMP              0 ****  ****    0 ROOT
