@<TRIPOS>MOLECULE
B2L
   36    39     1     0     0
SMALL
bcc


@<TRIPOS>ATOM
      1 C1         -0.0690    0.1080    0.1710 c3        1 B2L      0.169700
      2 O2          1.3390    0.0940   -0.0270 os        1 B2L     -0.405600
      3 C3          2.0880   -0.1350    1.1610 c3        1 B2L      0.170700
      4 C4          1.6580   -1.3580    1.9000 ca        1 B2L     -0.102300
      5 C5          2.5170   -2.0330    2.7360 ca        1 B2L     -0.117000
      6 C6          2.0700   -3.1750    3.4400 ca        1 B2L     -0.124000
      7 C7          0.7810   -3.6280    3.2980 ca        1 B2L     -0.107000
      8 C8         -0.1330   -2.9540    2.4410 ca        1 B2L     -0.006000
      9 C9          0.3150   -1.8080    1.7380 ca        1 B2L     -0.024000
     10 C10        -0.5750   -1.1070    0.8740 ca        1 B2L     -0.091300
     11 C11        -1.8700   -1.5430    0.7190 ca        1 B2L     -0.124000
     12 C12        -2.3260   -2.6840    1.4170 ca        1 B2L     -0.102000
     13 C13        -1.4820   -3.3810    2.2560 cp        1 B2L     -0.134500
     14 C14        -1.9880   -4.5840    2.9540 cp        1 B2L      0.525800
     15 N15        -2.3410   -4.4840    4.2530 nb        1 B2L     -0.741000
     16 C16        -2.1110   -5.7850    2.2230 ca        1 B2L     -0.412600
     17 C17        -2.6340   -6.9090    2.8980 ca        1 B2L      0.481600
     18 C18        -2.7860   -8.1960    2.1520 c3        1 B2L     -0.155400
     19 N19        -3.0010   -6.8620    4.1970 nb        1 B2L     -0.754000
     20 C20        -2.8210   -5.6470    4.8470 ca        1 B2L      0.864900
     21 N21        -3.0830   -5.6050    6.2220 nv        1 B2L     -0.924500
     22 H1         -0.3530    1.0260    0.7580 h1        1 B2L      0.059700
     23 H1A        -0.4840    0.1820   -0.8720 h1        1 B2L      0.059700
     24 H3          1.9990    0.7630    1.8340 h1        1 B2L      0.059200
     25 H3A         3.1470   -0.2280    0.7920 h1        1 B2L      0.059200
     26 H5          3.5560   -1.6960    2.8630 ha        1 B2L      0.134000
     27 H6          2.7740   -3.6980    4.1060 ha        1 B2L      0.135000
     28 H7          0.4370   -4.5160    3.8500 ha        1 B2L      0.144000
     29 H11        -2.5660   -1.0110    0.0530 ha        1 B2L      0.136000
     30 H12        -3.3690   -3.0090    1.2810 ha        1 B2L      0.139000
     31 H16        -1.8140   -5.8380    1.1700 ha        1 B2L      0.158000
     32 H18        -2.0640   -8.9530    2.5480 hc        1 B2L      0.058700
     33 H18A       -2.5820   -8.0370    1.0660 hc        1 B2L      0.058700
     34 H18B       -3.8210   -8.6040    2.2680 hc        1 B2L      0.058700
     35 HN21       -3.6640   -6.3270    6.5830 hn        1 B2L      0.425300
     36 HN2A       -3.2070   -4.7030    6.6200 hn        1 B2L      0.425300
@<TRIPOS>BOND
     1    1    2 1   
     2    1   10 1   
     3    1   22 1   
     4    1   23 1   
     5    2    3 1   
     6    3    4 1   
     7    3   24 1   
     8    3   25 1   
     9    4    5 ar  
    10    4    9 ar  
    11    5    6 ar  
    12    5   26 1   
    13    6    7 ar  
    14    6   27 1   
    15    7    8 ar  
    16    7   28 1   
    17    8    9 ar  
    18    8   13 ar  
    19    9   10 ar  
    20   10   11 ar  
    21   11   12 ar  
    22   11   29 1   
    23   12   13 ar  
    24   12   30 1   
    25   13   14 1   
    26   14   15 ar  
    27   14   16 ar  
    28   15   20 ar  
    29   16   17 ar  
    30   16   31 1   
    31   17   18 1   
    32   17   19 ar  
    33   18   32 1   
    34   18   33 1   
    35   18   34 1   
    36   19   20 ar  
    37   20   21 1   
    38   21   35 1   
    39   21   36 1   
@<TRIPOS>SUBSTRUCTURE
     1 B2L         1 TEMP              0 ****  ****    0 ROOT
