@<TRIPOS>MOLECULE
B2L
   36    39     1     0     0
SMALL
bcc


@<TRIPOS>ATOM
      1 C1         -3.9360    1.4940   -0.7780 c3        1 B2L      0.169700
      2 O2         -4.7220    0.8610    0.2250 os        1 B2L     -0.405600
      3 C3         -4.5060   -0.5420    0.3300 c3        1 B2L      0.170700
      4 C4         -3.0670   -0.9030    0.4960 ca        1 B2L     -0.102300
      5 C5         -2.6850   -2.0760    1.1070 ca        1 B2L     -0.117000
      6 C6         -1.3140   -2.4000    1.2260 ca        1 B2L     -0.124000
      7 C7         -0.3470   -1.5520    0.7430 ca        1 B2L     -0.107000
      8 C8         -0.7070   -0.3310    0.1070 ca        1 B2L     -0.006000
      9 C9         -2.0820   -0.0090   -0.0150 ca        1 B2L     -0.024000
     10 C10        -2.4780    1.2040   -0.6490 ca        1 B2L     -0.091300
     11 C11        -1.5260    2.0660   -1.1410 ca        1 B2L     -0.124000
     12 C12        -0.1530    1.7530   -1.0250 ca        1 B2L     -0.102000
     13 C13         0.2540    0.5860   -0.4120 cp        1 B2L     -0.134500
     14 C14         1.7020    0.3030   -0.2900 cp        1 B2L      0.525800
     15 N15         2.2690   -0.5730   -1.1470 nb        1 B2L     -0.741000
     16 C16         2.4410    0.9830    0.7010 ca        1 B2L     -0.412600
     17 C17         3.8270    0.7260    0.7730 ca        1 B2L      0.481600
     18 C18         4.6420    1.4350    1.8070 c3        1 B2L     -0.155400
     19 N19         4.4430   -0.1410   -0.0600 nb        1 B2L     -0.754000
     20 C20         3.6350   -0.7870   -0.9880 ca        1 B2L      0.864900
     21 N21         4.2280   -1.7750   -1.7830 nh        1 B2L     -0.924500
     22 H1         -4.2950    1.1660   -1.7930 h1        1 B2L      0.059700
     23 H1A        -4.1530    2.5870   -0.6340 h1        1 B2L      0.059700
     24 H3         -5.1100   -0.8360    1.2310 h1        1 B2L      0.059200
     25 H3A        -4.9180   -1.0500   -0.5860 h1        1 B2L      0.059200
     26 H5         -3.4380   -2.7700    1.5080 ha        1 B2L      0.134000
     27 H6         -1.0320   -3.3440    1.7150 ha        1 B2L      0.135000
     28 H7          0.7190   -1.8090    0.8360 ha        1 B2L      0.144000
     29 H11        -1.8190    3.0070   -1.6310 ha        1 B2L      0.136000
     30 H12         0.5900    2.4560   -1.4320 ha        1 B2L      0.139000
     31 H16         1.9540    1.6850    1.3860 ha        1 B2L      0.158000
     32 H18         4.9810    0.7080    2.5870 hc        1 B2L      0.058700
     33 H18A        5.5470    1.9060    1.3490 hc        1 B2L      0.058700
     34 H18B        4.0320    2.2310    2.2980 hc        1 B2L      0.058700
     35 HN21        3.7300   -2.0400   -2.6020 hn        1 B2L      0.425300
     36 HN2A        5.2180   -1.7420   -1.8640 hn        1 B2L      0.425300
@<TRIPOS>BOND
     1    1    2 1   
     2    1   10 1   
     3    1   22 1   
     4    1   23 1   
     5    2    3 1   
     6    3    4 1   
     7    3   24 1   
     8    3   25 1   
     9    4    5 ar  
    10    4    9 ar  
    11    5    6 ar  
    12    5   26 1   
    13    6    7 ar  
    14    6   27 1   
    15    7    8 ar  
    16    7   28 1   
    17    8    9 ar  
    18    8   13 ar  
    19    9   10 ar  
    20   10   11 ar  
    21   11   12 ar  
    22   11   29 1   
    23   12   13 ar  
    24   12   30 1   
    25   13   14 1   
    26   14   15 ar  
    27   14   16 ar  
    28   15   20 ar  
    29   16   17 ar  
    30   16   31 1   
    31   17   18 1   
    32   17   19 ar  
    33   18   32 1   
    34   18   33 1   
    35   18   34 1   
    36   19   20 ar  
    37   20   21 1   
    38   21   35 1   
    39   21   36 1   
@<TRIPOS>SUBSTRUCTURE
     1 B2L         1 TEMP              0 ****  ****    0 ROOT
