@<TRIPOS>MOLECULE
B2M
   39    41     1     0     0
SMALL
bcc


@<TRIPOS>ATOM
      1 CAA         0.0740   -0.4420   -1.9500 c3        1 B2M     -0.164400
      2 CAR         1.3950   -0.2600   -1.2740 ca        1 B2M      0.433600
      3 CAK         1.4950   -0.7190    0.0880 ca        1 B2M     -0.157300
      4 NAO         2.4160    0.3000   -1.9140 nb        1 B2M     -0.599000
      5 CAY         3.6270    0.4130   -1.2680 ca        1 B2M      0.410600
      6 CAI         4.7370    0.9940   -1.9660 ca        1 B2M     -0.137300
      7 CAH         5.9680    1.0830   -1.3680 ca        1 B2M     -0.094000
      8 CAT         6.1730    0.5880   -0.0550 ca        1 B2M      0.014100
      9 BRAF        7.8770    0.6860    0.7050 br        1 B2M     -0.026100
     10 CAM         5.1260    0.0310    0.6480 ca        1 B2M     -0.147000
     11 CAZ         3.8320   -0.0380    0.0770 ca        1 B2M     -0.132300
     12 CAX         2.6950   -0.5800    0.7500 ca        1 B2M     -0.158600
     13 CAQ         2.7710   -1.0180    2.1520 c         1 B2M      0.590700
     14 OAB         2.5400   -2.1020    2.6500 o         1 B2M     -0.391100
     15 NAP         3.1130    0.1410    3.1270 n4        1 B2M     -0.387900
     16 NAN         4.0820   -0.1490    4.0890 n2        1 B2M     -0.535400
     17 CAG         3.8200   -0.3500    5.3450 ce        1 B2M      0.581800
     18 CAW         2.5630   -0.3480    6.0820 ca        1 B2M     -0.281900
     19 CAL         1.4150   -0.9930    5.6010 ca        1 B2M     -0.089000
     20 CAS         0.2440   -0.9920    6.3550 ca        1 B2M     -0.012600
     21 CLAD       -1.1380   -1.7680    5.7640 cl        1 B2M     -0.033400
     22 CAJ         0.2020   -0.3590    7.6080 ca        1 B2M     -0.029000
     23 CAU         1.3390    0.2700    8.1080 ca        1 B2M     -0.065600
     24 CLAE        1.2840    1.0180    9.6250 cl        1 B2M     -0.024400
     25 CAV         2.5330    0.2690    7.3530 ca        1 B2M      0.198100
     26 OAC         3.6970    0.8570    7.7560 oh        1 B2M     -0.487100
     27 HAA        -0.1300   -1.5360   -2.0640 hc        1 B2M      0.074700
     28 HAAA       -0.7320    0.0140   -1.3230 hc        1 B2M      0.074700
     29 HAAB        0.0490    0.0300   -2.9640 hc        1 B2M      0.074700
     30 HAK         0.6080   -1.1680    0.5630 ha        1 B2M      0.167000
     31 HAI         4.5860    1.3590   -2.9980 ha        1 B2M      0.180000
     32 HAH         6.8140    1.5330   -1.9170 ha        1 B2M      0.175000
     33 HAM         5.3080   -0.4100    1.6410 ha        1 B2M      0.151000
     34 HNAP        3.5310    0.9030    2.5570 hn        1 B2M      0.458800
     35 HAG         4.7490   -0.5030    5.9560 h4        1 B2M      0.101800
     36 HAL         1.4520   -1.5530    4.6510 ha        1 B2M      0.156000
     37 HAJ        -0.7320   -0.3680    8.2000 ha        1 B2M      0.189000
     38 HOAC        3.5850    1.2120    8.6570 ho        1 B2M      0.464000
     39 HAP2        2.2180    0.4730    3.5240 hn        1 B2M      0.458800
@<TRIPOS>BOND
     1    1    2 1   
     2    1   27 1   
     3    1   28 1   
     4    1   29 1   
     5    2    3 ar  
     6    2    4 ar  
     7    3   12 ar  
     8    3   30 1   
     9    4    5 ar  
    10    5    6 ar  
    11    5   11 ar  
    12    6    7 ar  
    13    6   31 1   
    14    7    8 ar  
    15    7   32 1   
    16    8    9 1   
    17    8   10 ar  
    18   10   11 ar  
    19   10   33 1   
    20   11   12 ar  
    21   12   13 1   
    22   13   14 2   
    23   13   15 1   
    24   15   16 1   
    25   15   34 1   
    26   15   39 1   
    27   16   17 2   
    28   17   18 1   
    29   17   35 1   
    30   18   19 ar  
    31   18   25 ar  
    32   19   20 ar  
    33   19   36 1   
    34   20   21 1   
    35   20   22 ar  
    36   22   23 ar  
    37   22   37 1   
    38   23   24 1   
    39   23   25 ar  
    40   25   26 1   
    41   26   38 1   
@<TRIPOS>SUBSTRUCTURE
     1 B2M         1 TEMP              0 ****  ****    0 ROOT
