@<TRIPOS>MOLECULE
B2M
   38    40     1     0     0
SMALL
bcc


@<TRIPOS>ATOM
      1 CAA        -0.7150    4.5480    0.8030 c3        1 B2M     -0.156400
      2 CAR        -1.3100    3.2340    0.4080 ca        1 B2M      0.431600
      3 CAK        -0.7400    2.0600    1.0170 ca        1 B2M     -0.218300
      4 NAO        -2.3110    3.1800   -0.4630 nb        1 B2M     -0.646000
      5 CAY        -2.8340    1.9440   -0.7860 ca        1 B2M      0.408600
      6 CAI        -3.9130    1.8640   -1.7240 ca        1 B2M     -0.165300
      7 CAH        -4.4590    0.6520   -2.0590 ca        1 B2M     -0.099000
      8 CAT        -3.9720   -0.5480   -1.4800 ca        1 B2M     -0.021900
      9 BRAF       -4.7580   -2.1760   -1.9620 br        1 B2M     -0.072100
     10 CAM        -2.9360   -0.5090   -0.5740 ca        1 B2M     -0.079000
     11 CAZ        -2.3420    0.7280   -0.2180 ca        1 B2M     -0.128300
     12 CAX        -1.2540    0.8270    0.7030 ca        1 B2M     -0.090600
     13 CAQ        -0.7000   -0.4100    1.3370 c         1 B2M      0.687700
     14 OAB        -1.3720   -1.1460    2.0690 o         1 B2M     -0.517100
     15 NAP         0.6670   -0.6240    1.0480 n         1 B2M     -0.343900
     16 NAN         1.3090   -1.7290    1.4280 n2        1 B2M     -0.411300
     17 CAG         2.5390   -1.9830    1.0940 ce        1 B2M      0.377800
     18 CAW         3.4830   -1.2200    0.2750 ca        1 B2M     -0.177900
     19 CAL         3.6830    0.1470    0.4680 ca        1 B2M     -0.090000
     20 CAS         4.6070    0.8430   -0.3190 ca        1 B2M     -0.014600
     21 CLAD        4.8310    2.5080   -0.0750 cl        1 B2M     -0.078400
     22 CAJ         5.3490    0.1850   -1.3020 ca        1 B2M     -0.071000
     23 CAU         5.1690   -1.1870   -1.4940 ca        1 B2M     -0.066600
     24 CLAE        6.0850   -1.9800   -2.6860 cl        1 B2M     -0.075400
     25 CAV         4.2440   -1.8970   -0.7070 ca        1 B2M      0.159100
     26 OAC         4.0170   -3.2430   -0.8240 oh        1 B2M     -0.479100
     27 HAA         0.3790    4.5420    0.5710 hc        1 B2M      0.060367
     28 HAAA       -1.1890    5.4070    0.2690 hc        1 B2M      0.060367
     29 HAAB       -0.8490    4.6940    1.9030 hc        1 B2M      0.060367
     30 HAK         0.0890    2.1820    1.7290 ha        1 B2M      0.153000
     31 HAI        -4.3000    2.7940   -2.1720 ha        1 B2M      0.158000
     32 HAH        -5.2890    0.6040   -2.7830 ha        1 B2M      0.153000
     33 HAM        -2.5580   -1.4300   -0.0950 ha        1 B2M      0.168000
     34 HNAP        1.0770   -0.0170    0.3590 hn        1 B2M      0.303500
     35 HAG         2.9160   -2.9570    1.4730 h4        1 B2M      0.058800
     36 HAL         3.1320    0.6780    1.2610 ha        1 B2M      0.157000
     37 HAJ         6.0740    0.7390   -1.9200 ha        1 B2M      0.167000
     38 HOAC        4.5930   -3.5960   -1.5220 ho        1 B2M      0.437000
@<TRIPOS>BOND
     1    1    2 1   
     2    1   27 1   
     3    1   28 1   
     4    1   29 1   
     5    2    3 ar  
     6    2    4 ar  
     7    3   12 ar  
     8    3   30 1   
     9    4    5 ar  
    10    5    6 ar  
    11    5   11 ar  
    12    6    7 ar  
    13    6   31 1   
    14    7    8 ar  
    15    7   32 1   
    16    8    9 1   
    17    8   10 ar  
    18   10   11 ar  
    19   10   33 1   
    20   11   12 ar  
    21   12   13 1   
    22   13   14 2   
    23   13   15 1   
    24   15   16 1   
    25   15   34 1   
    26   16   17 2   
    27   17   18 1   
    28   17   35 1   
    29   18   19 ar  
    30   18   25 ar  
    31   19   20 ar  
    32   19   36 1   
    33   20   21 1   
    34   20   22 ar  
    35   22   23 ar  
    36   22   37 1   
    37   23   24 1   
    38   23   25 ar  
    39   25   26 1   
    40   26   38 1   
@<TRIPOS>SUBSTRUCTURE
     1 B2M         1 TEMP              0 ****  ****    0 ROOT
