@<TRIPOS>MOLECULE
B2M
   38    34     1     0     0
SMALL
bcc


@<TRIPOS>ATOM
      1 CAA        -2.5940    0.1670   -1.9250 c3        1 B2M     -0.179000
      2 CAR        -1.1050    0.1470   -1.7980 c2        1 B2M      0.007000
      3 CAK        -0.1740    0.1540   -0.7620 c2        1 B2M     -0.159000
      4 NAO        -0.6770    0.1430   -3.1180 n1        1 B2M     -0.120000
      5 CAY         0.6920    0.1480   -3.4110 c1        1 B2M      0.014000
      6 CAI         1.1230    0.1730   -4.7450 c2        1 B2M     -0.102000
      7 CAH         2.4830    0.2070   -5.0350 c1        1 B2M     -0.098000
      8 CAT         3.4130    0.2150   -4.0030 c1        1 B2M     -0.163000
      9 BRAF        5.2780    0.3960   -4.4840 br        1 B2M      0.067000
     10 CAM         2.9820    0.1890   -2.6790 c1        1 B2M     -0.075000
     11 CAZ         1.6130    0.1550   -2.3890 c1        1 B2M     -0.059000
     12 CAX         1.1780    0.1580   -1.0490 c2        1 B2M     -0.064000
     13 CAQ         2.0760    0.2170    0.2020 c2        1 B2M      0.360000
     14 OAB         3.2870    0.2260    0.0810 o         1 B2M     -0.284000
     15 NAP         1.4800    0.2350    1.5230 n         1 B2M     -0.306000
     16 NAN         1.2220    1.4310    2.1420 n2        1 B2M      0.018000
     17 CAG         0.2180    1.5310    2.9910 c1        1 B2M     -0.135000
     18 CAW        -0.6700    0.2950    3.2900 c1        1 B2M     -0.109500
     19 CAL        -0.3270   -0.5760    4.3280 c2        1 B2M     -0.075500
     20 CAS        -1.1620   -1.6400    4.6460 c1        1 B2M     -0.086000
     21 CLAD       -0.7810   -2.6680    5.9980 cl        1 B2M      0.003500
     22 CAJ        -2.3450   -1.8380    3.9280 c2        1 B2M     -0.075500
     23 CAU        -2.6840   -0.9770    2.9020 c1        1 B2M     -0.109500
     24 CLAE       -4.1290   -1.2480    1.9880 cl        1 B2M      0.003500
     25 CAV        -1.8440    0.0950    2.5790 c2        1 B2M      0.088000
     26 OAC        -2.2360    1.0130    1.6080 oh        1 B2M     -0.258000
     27 HAA        -2.8540    0.7900   -2.6510 hc        1 B2M      0.098000
     28 HAAA       -2.9130   -0.7260   -2.1350 hc        1 B2M      0.098000
     29 HAAB       -2.9840    0.4600   -1.0930 hc        1 B2M      0.098000
     30 HAK        -0.4800    0.2190    0.1730 ha        1 B2M      0.152000
     31 HAI         0.4840    0.1680   -5.4520 ha        1 B2M      0.158000
     32 HAH         2.7930    0.2080   -5.9940 ha        1 B2M      0.152000
     33 HAM         3.6360    0.1960   -1.9510 ha        1 B2M      0.171000
     34 HNAP        1.3310   -0.5320    1.9560 hn        1 B2M      0.225000
     35 HAG         0.0330    2.3870    3.4340 ha        1 B2M      0.176000
     36 HAL         0.4960   -0.4260    4.8440 ha        1 B2M      0.165500
     37 HAJ        -2.9300   -2.5840    4.1500 ha        1 B2M      0.165500
     38 HOAC       -2.9310    1.4910    1.9110 ho        1 B2M      0.238000
@<TRIPOS>BOND
     1    1    2 1   
     2    1   27 1   
     3    1   28 1   
     4    1   29 1   
     5    2    3 1   
     6    2    4 1   
     7    3   12 1   
     8    3   30 1   
     9    5    6 1   
    10    5   11 1   
    11    6    7 1   
    12    6   31 1   
    13    7   32 1   
    14    8    9 1   
    15    8   10 1   
    16   10   33 1   
    17   11   12 1   
    18   12   13 1   
    19   13   14 1   
    20   13   15 1   
    21   15   16 1   
    22   15   34 1   
    23   16   17 1   
    24   17   35 1   
    25   18   19 1   
    26   18   25 1   
    27   19   20 1   
    28   19   36 1   
    29   20   22 1   
    30   22   23 1   
    31   22   37 1   
    32   23   25 1   
    33   25   26 1   
    34   26   38 1   
@<TRIPOS>SUBSTRUCTURE
     1 B2M         1 TEMP              0 ****  ****    0 ROOT
