@<TRIPOS>MOLECULE
B2M
   39    41     1     0     0
SMALL
bcc


@<TRIPOS>ATOM
      1 CAA         0.0440   -0.2850   -1.9410 c3        1 B2M     -0.164400
      2 CAR         1.3720   -0.1390   -1.2690 ca        1 B2M      0.433600
      3 CAK         1.4740   -0.6370    0.0790 ca        1 B2M     -0.157300
      4 NAO         2.3960    0.4250   -1.9010 nb        1 B2M     -0.599000
      5 CAY         3.6130    0.5030   -1.2600 ca        1 B2M      0.410600
      6 CAI         4.7260    1.0880   -1.9490 ca        1 B2M     -0.137300
      7 CAH         5.9620    1.1440   -1.3570 ca        1 B2M     -0.094000
      8 CAT         6.1690    0.6110   -0.0590 ca        1 B2M      0.014100
      9 BRAF        7.8780    0.6640    0.6920 br        1 B2M     -0.026100
     10 CAM         5.1180    0.0490    0.6350 ca        1 B2M     -0.147000
     11 CAZ         3.8200    0.0130    0.0710 ca        1 B2M     -0.132300
     12 CAX         2.6800   -0.5320    0.7370 ca        1 B2M     -0.158600
     13 CAQ         2.7590   -1.0080    2.1260 c         1 B2M      0.590700
     14 OAB         2.5160   -2.1030    2.5960 o         1 B2M     -0.391100
     15 NAP         3.1220    0.1190    3.1300 n4        1 B2M     -0.387900
     16 NAN         4.0930   -0.2110    4.0770 n2        1 B2M     -0.535400
     17 CAG         3.8360   -0.4430    5.3290 ce        1 B2M      0.581800
     18 CAW         2.5840   -0.4440    6.0730 ca        1 B2M     -0.281900
     19 CAL         1.4240   -1.0590    5.5820 ca        1 B2M     -0.089000
     20 CAS         0.2580   -1.0630    6.3440 ca        1 B2M     -0.012600
     21 CLAD       -1.1380   -1.8040    5.7410 cl        1 B2M     -0.033400
     22 CAJ         0.2310   -0.4650    7.6140 ca        1 B2M     -0.029000
     23 CAU         1.3810    0.1340    8.1240 ca        1 B2M     -0.065600
     24 CLAE        1.3450    0.8420    9.6610 cl        1 B2M     -0.024400
     25 CAV         2.5700    0.1390    7.3610 ca        1 B2M      0.198100
     26 OAC         3.7440    0.6990    7.7730 oh        1 B2M     -0.487100
     27 HAA        -0.7510    0.1640   -1.2970 hc        1 B2M      0.074700
     28 HAAA       -0.1750   -1.3730   -2.0850 hc        1 B2M      0.074700
     29 HAAB        0.0190    0.2160   -2.9410 hc        1 B2M      0.074700
     30 HAK         0.5840   -1.0860    0.5470 ha        1 B2M      0.167000
     31 HAI         4.5740    1.4830   -2.9690 ha        1 B2M      0.180000
     32 HAH         6.8110    1.5970   -1.8990 ha        1 B2M      0.175000
     33 HAM         5.3000   -0.4220    1.6150 ha        1 B2M      0.151000
     34 HNAP        3.5470    0.8890    2.5780 hn        1 B2M      0.458800
     35 HAG         4.7660   -0.6250    5.9290 h4        1 B2M      0.101800
     36 HAL         1.4470   -1.5940    4.6170 ha        1 B2M      0.156000
     37 HAJ        -0.6990   -0.4770    8.2110 ha        1 B2M      0.189000
     38 HOAC        3.6420    1.0310    8.6840 ho        1 B2M      0.464000
     39 HAP2        2.2350    0.4520    3.5410 hn        1 B2M      0.458800
@<TRIPOS>BOND
     1    1    2 1   
     2    1   27 1   
     3    1   28 1   
     4    1   29 1   
     5    2    3 ar  
     6    2    4 ar  
     7    3   12 ar  
     8    3   30 1   
     9    4    5 ar  
    10    5    6 ar  
    11    5   11 ar  
    12    6    7 ar  
    13    6   31 1   
    14    7    8 ar  
    15    7   32 1   
    16    8    9 1   
    17    8   10 ar  
    18   10   11 ar  
    19   10   33 1   
    20   11   12 ar  
    21   12   13 1   
    22   13   14 2   
    23   13   15 1   
    24   15   16 1   
    25   15   34 1   
    26   15   39 1   
    27   16   17 2   
    28   17   18 1   
    29   17   35 1   
    30   18   19 ar  
    31   18   25 ar  
    32   19   20 ar  
    33   19   36 1   
    34   20   21 1   
    35   20   22 ar  
    36   22   23 ar  
    37   22   37 1   
    38   23   24 1   
    39   23   25 ar  
    40   25   26 1   
    41   26   38 1   
@<TRIPOS>SUBSTRUCTURE
     1 B2M         1 TEMP              0 ****  ****    0 ROOT
