@<TRIPOS>MOLECULE
B2M
   39    41     1     0     0
SMALL
bcc


@<TRIPOS>ATOM
      1 CAA         0.0330   -0.5180   -1.9180 c3        1 B2M     -0.164400
      2 CAR         1.3570   -0.2960   -1.2580 ca        1 B2M      0.433600
      3 CAK         1.4870   -0.7540    0.1010 ca        1 B2M     -0.157300
      4 NAO         2.3520    0.2940   -1.9110 nb        1 B2M     -0.599000
      5 CAY         3.5670    0.4440   -1.2790 ca        1 B2M      0.410600
      6 CAI         4.6500    1.0580   -1.9900 ca        1 B2M     -0.137300
      7 CAH         5.8850    1.1840   -1.4070 ca        1 B2M     -0.094000
      8 CAT         6.1220    0.6940   -0.0970 ca        1 B2M      0.014100
      9 BrAF        7.8310    0.8430    0.6410 br        1 B2M     -0.026100
     10 CAM         5.1000    0.1060    0.6180 ca        1 B2M     -0.147000
     11 CAZ         3.8020   -0.0020    0.0620 ca        1 B2M     -0.132300
     12 CAX         2.6910   -0.5790    0.7500 ca        1 B2M     -0.158600
     13 CAQ         2.7970   -1.0150    2.1490 c         1 B2M      0.590700
     14 OAB         2.6060   -2.1070    2.6490 o         1 B2M     -0.391100
     15 NAP         3.1160    0.1530    3.1210 ny        1 B2M     -0.387900
     16 NAN         4.1050   -0.1090    4.0720 n2        1 B2M     -0.535400
     17 CAG         3.8640   -0.3190    5.3300 ce        1 B2M      0.581800
     18 CAW         2.6170   -0.3560    6.0820 ca        1 B2M     -0.281900
     19 CAL         1.4830   -1.0340    5.6140 ca        1 B2M     -0.089000
     20 CAS         0.3220   -1.0690    6.3830 ca        1 B2M     -0.012600
     21 ClAD       -1.0430   -1.8860    5.8080 cl        1 B2M     -0.033400
     22 CAJ         0.2750   -0.4390    7.6370 ca        1 B2M     -0.029000
     23 CAU         1.4000    0.2230    8.1240 ca        1 B2M     -0.065600
     24 ClAE        1.3400    0.9680    9.6420 cl        1 B2M     -0.024400
     25 CAV         2.5840    0.2590    7.3540 ca        1 B2M      0.198100
     26 OAC         3.7340    0.8820    7.7440 oh        1 B2M     -0.487100
     27 HAA        -0.7780   -0.0870   -1.2810 hc        1 B2M      0.074700
     28 HAAA       -0.1390   -1.6180   -2.0310 hc        1 B2M      0.074700
     29 HAAB       -0.0180   -0.0450   -2.9310 hc        1 B2M      0.074700
     30 HAK         0.6210   -1.2290    0.5870 ha        1 B2M      0.167000
     31 HAI         4.4750    1.4190   -3.0190 ha        1 B2M      0.180000
     32 HAH         6.7110    1.6590   -1.9660 ha        1 B2M      0.175000
     33 HAM         5.3080   -0.3310    1.6080 ha        1 B2M      0.151000
     34 HNAP        3.5040    0.9270    2.5480 hn        1 B2M      0.458800
     35 HAG         4.8050   -0.4440    5.9300 h4        1 B2M      0.101800
     36 HAL         1.5250   -1.5920    4.6630 ha        1 B2M      0.156000
     37 HAJ        -0.6500   -0.4770    8.2400 ha        1 B2M      0.189000
     38 HOAC        3.6220    1.2330    8.6470 ho        1 B2M      0.464000
     39 HAP2        2.2160    0.4570    3.5300 hn        1 B2M      0.458800
@<TRIPOS>BOND
     1    1    2 1   
     2    1   27 1   
     3    1   28 1   
     4    1   29 1   
     5    2    3 ar  
     6    2    4 ar  
     7    3   12 ar  
     8    3   30 1   
     9    4    5 ar  
    10    5    6 ar  
    11    5   11 ar  
    12    6    7 ar  
    13    6   31 1   
    14    7    8 ar  
    15    7   32 1   
    16    8    9 1   
    17    8   10 ar  
    18   10   11 ar  
    19   10   33 1   
    20   11   12 ar  
    21   12   13 1   
    22   13   14 2   
    23   13   15 1   
    24   15   16 1   
    25   15   34 1   
    26   15   39 1   
    27   16   17 2   
    28   17   18 1   
    29   17   35 1   
    30   18   19 ar  
    31   18   25 ar  
    32   19   20 ar  
    33   19   36 1   
    34   20   21 1   
    35   20   22 ar  
    36   22   23 ar  
    37   22   37 1   
    38   23   24 1   
    39   23   25 ar  
    40   25   26 1   
    41   26   38 1   
@<TRIPOS>SUBSTRUCTURE
     1 B2M         1 TEMP              0 ****  ****    0 ROOT
