@<TRIPOS>MOLECULE
B2P
   13    11     1     0     0
SMALL
bcc


@<TRIPOS>ATOM
      1 O          -2.3180   -0.0000    1.0930 o         1 B2P     -0.527000
      2 C          -1.0590   -0.0000    1.0930 c1        1 B2P      0.347000
      3 OXT        -0.4300   -0.0000    2.1830 os        1 B2P     -0.575000
      4 CA         -0.3030   -0.0000   -0.2170 c3        1 B2P     -0.128000
      5 BR         -1.5450   -0.0000   -1.6700 br        1 B2P     -0.154000
      6 CB          0.5670    1.2350   -0.2970 c3        1 B2P     -0.194000
      7 CM          0.5670   -1.2350   -0.2970 c3        1 B2P     -0.194000
      8 H2          1.2480    1.2000    0.4010 hc        1 B2P      0.071000
      9 H3          0.0150    2.0310   -0.1730 hc        1 B2P      0.071000
     10 H4          0.9990    1.2720   -1.1720 hc        1 B2P      0.071000
     11 H5          0.9990   -1.2720   -1.1720 hc        1 B2P      0.071000
     12 H6          0.0150   -2.0310   -0.1730 hc        1 B2P      0.071000
     13 H7          1.2480   -1.2000    0.4010 hc        1 B2P      0.071000
@<TRIPOS>BOND
     1    1    2 1   
     2    2    4 1   
     3    4    5 1   
     4    4    6 1   
     5    4    7 1   
     6    6    8 1   
     7    6    9 1   
     8    6   10 1   
     9    7   11 1   
    10    7   12 1   
    11    7   13 1   
@<TRIPOS>SUBSTRUCTURE
     1 B2P         1 TEMP              0 ****  ****    0 ROOT
