@<TRIPOS>MOLECULE
B2P
   13    12     1     0     0
SMALL
bcc


@<TRIPOS>ATOM
      1 O           0.1700   -0.4640    0.0210 o         1 B2P     -0.818300
      2 C           1.3180    0.0540    0.0350 c         1 B2P      0.928600
      3 OXT         1.8680    0.5690    1.0440 o         1 B2P     -0.818300
      4 CA          2.1440    0.0130   -1.2960 c3        1 B2P     -0.051600
      5 Br          1.7600    1.6670   -2.3310 br        1 B2P     -0.282400
      6 CB          3.6210   -0.0240   -0.9910 c3        1 B2P     -0.072100
      7 CM          1.7300   -1.1750   -2.1290 c3        1 B2P     -0.072100
      8 H2          4.2390    0.0020   -1.9200 hc        1 B2P      0.031033
      9 H3          3.8520   -0.9670   -0.4360 hc        1 B2P      0.031033
     10 H4          3.8980    0.8350   -0.3310 hc        1 B2P      0.031033
     11 H5          1.9720   -2.1110   -1.5680 hc        1 B2P      0.031033
     12 H6          2.2620   -1.2000   -3.1100 hc        1 B2P      0.031033
     13 H7          0.6260   -1.1560   -2.3000 hc        1 B2P      0.031033
@<TRIPOS>BOND
     1    1    2 1   
     2    2    3 1   
     3    2    4 1   
     4    4    5 1   
     5    4    6 1   
     6    4    7 1   
     7    6    8 1   
     8    6    9 1   
     9    6   10 1   
    10    7   11 1   
    11    7   12 1   
    12    7   13 1   
@<TRIPOS>SUBSTRUCTURE
     1 B2P         1 TEMP              0 ****  ****    0 ROOT
