@<TRIPOS>MOLECULE
B2P
   13    12     1     0     0
SMALL
bcc


@<TRIPOS>ATOM
      1 O           0.1910   -0.5680    0.0400 o         1 B2P     -0.818300
      2 C           1.3020    0.0260    0.0300 c         1 B2P      0.928600
      3 OXT         1.8220    0.6050    1.0210 o         1 B2P     -0.818300
      4 CA          2.1230    0.0010   -1.3040 c3        1 B2P     -0.051600
      5 BR          1.6240    1.5950   -2.3830 br        1 B2P     -0.282400
      6 CB          3.6000    0.0710   -1.0080 c3        1 B2P     -0.072100
      7 CM          1.7840   -1.2360   -2.1000 c3        1 B2P     -0.072100
      8 H2          4.2100    0.1110   -1.9420 hc        1 B2P      0.031033
      9 H3          3.8960   -0.8390   -0.4280 hc        1 B2P      0.031033
     10 H4          3.8220    0.9650   -0.3750 hc        1 B2P      0.031033
     11 H5          2.0910   -2.1380   -1.5140 hc        1 B2P      0.031033
     12 H6          2.3130   -1.2540   -3.0830 hc        1 B2P      0.031033
     13 H7          0.6810   -1.2960   -2.2640 hc        1 B2P      0.031033
@<TRIPOS>BOND
     1    1    2 1   
     2    2    3 1   
     3    2    4 1   
     4    4    5 1   
     5    4    6 1   
     6    4    7 1   
     7    6    8 1   
     8    6    9 1   
     9    6   10 1   
    10    7   11 1   
    11    7   12 1   
    12    7   13 1   
@<TRIPOS>SUBSTRUCTURE
     1 B2P         1 TEMP              0 ****  ****    0 ROOT
