@<TRIPOS>MOLECULE
B2P
   13    12     1     0     0
SMALL
bcc


@<TRIPOS>ATOM
      1 O          -1.8980   -1.1940    0.8010 o         1 B2P     -0.818300
      2 C          -1.5500   -0.4070   -0.1200 c         1 B2P      0.928600
      3 OXT        -2.0610   -0.3690   -1.2700 o         1 B2P     -0.818300
      4 CA         -0.4260    0.6350    0.2070 c3        1 B2P     -0.051600
      5 BR          1.3340   -0.1690   -0.2520 br        1 B2P     -0.282400
      6 CB         -0.6120    1.8790   -0.6270 c3        1 B2P     -0.072100
      7 CM         -0.4300    0.9600    1.6800 c3        1 B2P     -0.072100
      8 H2         -1.5860    2.3550   -0.3520 hc        1 B2P      0.031033
      9 H3          0.2060    2.6190   -0.4570 hc        1 B2P      0.031033
     10 H4         -0.6580    1.6100   -1.7110 hc        1 B2P      0.031033
     11 H5         -0.3430    0.0210    2.2800 hc        1 B2P      0.031033
     12 H6          0.3970    1.6590    1.9530 hc        1 B2P      0.031033
     13 H7         -1.4050    1.4420    1.9410 hc        1 B2P      0.031033
@<TRIPOS>BOND
     1    1    2 1   
     2    2    3 1   
     3    2    4 1   
     4    4    5 1   
     5    4    6 1   
     6    4    7 1   
     7    6    8 1   
     8    6    9 1   
     9    6   10 1   
    10    7   11 1   
    11    7   12 1   
    12    7   13 1   
@<TRIPOS>SUBSTRUCTURE
     1 B2P         1 TEMP              0 ****  ****    0 ROOT
